MODEL 1
REMARK VINA RESULT:      -7.8      0.000      0.000
REMARK  5 active torsions:
REMARK  status: ('A' for Active; 'I' for Inactive)
REMARK    1  A    between atoms: C_6  and  N_2 
REMARK    2  A    between atoms: C_8  and  C_6 
REMARK    3  A    between atoms: C_13  and  C_8 
REMARK    4  A    between atoms: C_9  and  O_12 
REMARK    5  A    between atoms: O_12  and  C_13 
ROOT
ATOM      1  N   UNL d   1      53.625  33.895  54.253  0.00  0.00    -0.227 NA
ATOM      2  N   UNL d   1      52.621  33.908  53.369  0.00  0.00    -0.289 N 
ATOM      3  C   UNL d   1      53.052  34.393  53.899  0.00  0.00     0.148 A 
ATOM      4  C   UNL d   1      52.918  33.147  53.399  0.00  0.00     0.083 A 
ATOM      5  C   UNL d   1      53.567  33.138  53.970  0.00  0.00     0.099 A 
ATOM      6  C   UNL d   1      52.935  35.205  54.044  0.00  0.00     0.041 C 
ATOM      7  C   UNL d   1      52.701  32.471  53.000  0.00  0.00     0.019 A 
ATOM      8  C   UNL d   1      53.944  32.401  54.078  0.00  0.00     0.021 A 
ATOM      9  C   UNL d   1      53.113  31.791  53.156  0.00  0.00     0.002 A 
ATOM     10  C   UNL d   1      53.720  31.783  53.690  0.00  0.00     0.002 A 
ENDROOT
BRANCH   2  11
ATOM     11  C   UNL d   1      52.042  34.295  52.976  0.00  0.00     0.084 C 
BRANCH  11  12
ATOM     12  C   UNL d   1      51.242  34.128  53.084  0.00  0.00     0.046 C 
BRANCH  12  13
ATOM     13  C   UNL d   1      50.647  34.464  52.634  0.00  0.00     0.124 C 
BRANCH  13  14
ATOM     14  O   UNL d   1      49.862  34.466  52.862  0.00  0.00    -0.305 OA
BRANCH  14  15
ATOM     15  C   UNL d   1      49.252  34.751  52.385  0.00  0.00     0.100 A 
ATOM     16  C   UNL d   1      48.728  35.317  52.711  0.00  0.00     0.025 A 
ATOM     17  C   UNL d   1      48.100  35.621  52.246  0.00  0.00     0.002 A 
ATOM     18  C   UNL d   1      47.996  35.361  51.458  0.00  0.00     0.000 A 
ATOM     19  C   UNL d   1      48.521  34.795  51.132  0.00  0.00     0.002 A 
ATOM     20  C   UNL d   1      49.130  34.510  51.606  0.00  0.00     0.025 A 
ENDBRANCH  14  15
ENDBRANCH  13  14
ENDBRANCH  12  13
ENDBRANCH  11  12
ENDBRANCH   2  11
TORSDOF 5
ENDMDL
MODEL 2
REMARK VINA RESULT:      -7.8      2.068      4.579
REMARK  5 active torsions:
REMARK  status: ('A' for Active; 'I' for Inactive)
REMARK    1  A    between atoms: C_6  and  N_2 
REMARK    2  A    between atoms: C_8  and  C_6 
REMARK    3  A    between atoms: C_13  and  C_8 
REMARK    4  A    between atoms: C_9  and  O_12 
REMARK    5  A    between atoms: O_12  and  C_13 
ROOT
ATOM      1  N   UNL d   1      52.096  35.083  53.061  0.00  0.00    -0.227 NA
ATOM      2  N   UNL d   1      52.159  33.770  53.309  0.00  0.00    -0.289 N 
ATOM      3  C   UNL d   1      51.814  34.339  52.800  0.00  0.00     0.148 A 
ATOM      4  C   UNL d   1      52.633  34.150  53.856  0.00  0.00     0.083 A 
ATOM      5  C   UNL d   1      52.592  34.999  53.696  0.00  0.00     0.099 A 
ATOM      6  C   UNL d   1      51.294  34.194  52.165  0.00  0.00     0.041 C 
ATOM      7  C   UNL d   1      53.088  33.860  54.466  0.00  0.00     0.019 A 
ATOM      8  C   UNL d   1      53.044  35.485  54.202  0.00  0.00     0.021 A 
ATOM      9  C   UNL d   1      53.500  34.392  54.917  0.00  0.00     0.002 A 
ATOM     10  C   UNL d   1      53.462  35.185  54.767  0.00  0.00     0.002 A 
ENDROOT
BRANCH   2  11
ATOM     11  C   UNL d   1      51.950  33.017  53.141  0.00  0.00     0.084 C 
BRANCH  11  12
ATOM     12  C   UNL d   1      52.485  32.457  52.860  0.00  0.00     0.046 C 
BRANCH  12  13
ATOM     13  C   UNL d   1      52.362  31.649  52.909  0.00  0.00     0.124 C 
BRANCH  13  14
ATOM     14  O   UNL d   1      52.947  31.098  52.765  0.00  0.00    -0.305 OA
BRANCH  14  15
ATOM     15  C   UNL d   1      53.028  30.400  53.195  0.00  0.00     0.100 A 
ATOM     16  C   UNL d   1      53.713  30.304  53.668  0.00  0.00     0.025 A 
ATOM     17  C   UNL d   1      53.818  29.602  54.115  0.00  0.00     0.002 A 
ATOM     18  C   UNL d   1      53.240  28.997  54.089  0.00  0.00     0.000 A 
ATOM     19  C   UNL d   1      52.555  29.093  53.615  0.00  0.00     0.002 A 
ATOM     20  C   UNL d   1      52.474  29.789  53.186  0.00  0.00     0.025 A 
ENDBRANCH  14  15
ENDBRANCH  13  14
ENDBRANCH  12  13
ENDBRANCH  11  12
ENDBRANCH   2  11
TORSDOF 5
ENDMDL
MODEL 3
REMARK VINA RESULT:      -6.6      1.757      5.252
REMARK  5 active torsions:
REMARK  status: ('A' for Active; 'I' for Inactive)
REMARK    1  A    between atoms: C_6  and  N_2 
REMARK    2  A    between atoms: C_8  and  C_6 
REMARK    3  A    between atoms: C_13  and  C_8 
REMARK    4  A    between atoms: C_9  and  O_12 
REMARK    5  A    between atoms: O_12  and  C_13 
ROOT
ATOM      1  N   UNL d   1      47.776  35.564  51.380  0.00  0.00    -0.227 NA
ATOM      2  N   UNL d   1      48.693  35.013  52.183  0.00  0.00    -0.289 N 
ATOM      3  C   UNL d   1      48.390  34.996  51.402  0.00  0.00     0.148 A 
ATOM      4  C   UNL d   1      48.280  35.568  52.620  0.00  0.00     0.083 A 
ATOM      5  C   UNL d   1      47.687  35.925  52.101  0.00  0.00     0.099 A 
ATOM      6  C   UNL d   1      48.648  34.512  50.775  0.00  0.00     0.041 C 
ATOM      7  C   UNL d   1      48.351  35.801  53.397  0.00  0.00     0.019 A 
ATOM      8  C   UNL d   1      47.206  36.511  52.449  0.00  0.00     0.021 A 
ATOM      9  C   UNL d   1      47.849  36.376  53.667  0.00  0.00     0.002 A 
ATOM     10  C   UNL d   1      47.296  36.709  53.182  0.00  0.00     0.002 A 
ENDROOT
BRANCH   2  11
ATOM     11  C   UNL d   1      49.292  34.499  52.309  0.00  0.00     0.084 C 
BRANCH  11  12
ATOM     12  C   UNL d   1      50.055  34.743  52.501  0.00  0.00     0.046 C 
BRANCH  12  13
ATOM     13  C   UNL d   1      50.652  34.228  52.722  0.00  0.00     0.124 C 
BRANCH  13  14
ATOM     14  O   UNL d   1      51.444  34.426  52.701  0.00  0.00    -0.305 OA
BRANCH  14  15
ATOM     15  C   UNL d   1      52.036  33.968  53.045  0.00  0.00     0.100 A 
ATOM     16  C   UNL d   1      52.548  34.333  53.599  0.00  0.00     0.025 A 
ATOM     17  C   UNL d   1      53.158  33.887  53.963  0.00  0.00     0.002 A 
ATOM     18  C   UNL d   1      53.256  33.078  53.774  0.00  0.00     0.000 A 
ATOM     19  C   UNL d   1      52.744  32.712  53.221  0.00  0.00     0.002 A 
ATOM     20  C   UNL d   1      52.153  33.169  52.876  0.00  0.00     0.025 A 
ENDBRANCH  14  15
ENDBRANCH  13  14
ENDBRANCH  12  13
ENDBRANCH  11  12
ENDBRANCH   2  11
TORSDOF 5
ENDMDL
MODEL 4
REMARK VINA RESULT:      -6.0      2.412      5.621
REMARK  5 active torsions:
REMARK  status: ('A' for Active; 'I' for Inactive)
REMARK    1  A    between atoms: C_6  and  N_2 
REMARK    2  A    between atoms: C_8  and  C_6 
REMARK    3  A    between atoms: C_13  and  C_8 
REMARK    4  A    between atoms: C_9  and  O_12 
REMARK    5  A    between atoms: O_12  and  C_13 
ROOT
ATOM      1  N   UNL d   1      46.411  36.164  52.582  0.00  0.00    -0.227 NA
ATOM      2  N   UNL d   1      47.720  35.994  52.800  0.00  0.00    -0.289 N 
ATOM      3  C   UNL d   1      47.128  35.944  52.210  0.00  0.00     0.148 A 
ATOM      4  C   UNL d   1      47.379  36.234  53.504  0.00  0.00     0.083 A 
ATOM      5  C   UNL d   1      46.532  36.344  53.363  0.00  0.00     0.099 A 
ATOM      6  C   UNL d   1      47.232  35.721  51.414  0.00  0.00     0.041 C 
ATOM      7  C   UNL d   1      47.702  36.367  54.239  0.00  0.00     0.019 A 
ATOM      8  C   UNL d   1      46.084  36.591  54.022  0.00  0.00     0.021 A 
ATOM      9  C   UNL d   1      47.205  36.606  54.833  0.00  0.00     0.002 A 
ATOM     10  C   UNL d   1      46.415  36.709  54.701  0.00  0.00     0.002 A 
ENDROOT
BRANCH   2  11
ATOM     11  C   UNL d   1      48.451  35.801  52.543  0.00  0.00     0.084 C 
BRANCH  11  12
ATOM     12  C   UNL d   1      48.809  35.078  52.716  0.00  0.00     0.046 C 
BRANCH  12  13
ATOM     13  C   UNL d   1      49.616  34.952  52.672  0.00  0.00     0.124 C 
BRANCH  13  14
ATOM     14  O   UNL d   1      49.948  34.213  52.575  0.00  0.00    -0.305 OA
BRANCH  14  15
ATOM     15  C   UNL d   1      50.737  34.043  52.745  0.00  0.00     0.100 A 
ATOM     16  C   UNL d   1      51.331  34.460  52.324  0.00  0.00     0.025 A 
ATOM     17  C   UNL d   1      52.140  34.305  52.480  0.00  0.00     0.002 A 
ATOM     18  C   UNL d   1      52.356  33.735  53.054  0.00  0.00     0.000 A 
ATOM     19  C   UNL d   1      51.763  33.319  53.474  0.00  0.00     0.002 A 
ATOM     20  C   UNL d   1      50.975  33.487  53.305  0.00  0.00     0.025 A 
ENDBRANCH  14  15
ENDBRANCH  13  14
ENDBRANCH  12  13
ENDBRANCH  11  12
ENDBRANCH   2  11
TORSDOF 5
ENDMDL
MODEL 5
REMARK VINA RESULT:      -5.6      2.929      4.239
REMARK  5 active torsions:
REMARK  status: ('A' for Active; 'I' for Inactive)
REMARK    1  A    between atoms: C_6  and  N_2 
REMARK    2  A    between atoms: C_8  and  C_6 
REMARK    3  A    between atoms: C_13  and  C_8 
REMARK    4  A    between atoms: C_9  and  O_12 
REMARK    5  A    between atoms: O_12  and  C_13 
ROOT
ATOM      1  N   UNL d   1      52.695  29.584  53.101  0.00  0.00    -0.227 NA
ATOM      2  N   UNL d   1      53.382  30.565  53.697  0.00  0.00    -0.289 N 
ATOM      3  C   UNL d   1      52.945  30.378  53.007  0.00  0.00     0.148 A 
ATOM      4  C   UNL d   1      53.398  29.913  54.191  0.00  0.00     0.083 A 
ATOM      5  C   UNL d   1      52.954  29.278  53.805  0.00  0.00     0.099 A 
ATOM      6  C   UNL d   1      52.791  30.879  52.360  0.00  0.00     0.041 C 
ATOM      7  C   UNL d   1      53.742  29.799  54.920  0.00  0.00     0.019 A 
ATOM      8  C   UNL d   1      52.907  28.560  54.228  0.00  0.00     0.021 A 
ATOM      9  C   UNL d   1      53.655  29.075  55.271  0.00  0.00     0.002 A 
ATOM     10  C   UNL d   1      53.240  28.483  54.911  0.00  0.00     0.002 A 
ENDROOT
BRANCH   2  11
ATOM     11  C   UNL d   1      53.669  31.311  53.706  0.00  0.00     0.084 C 
BRANCH  11  12
ATOM     12  C   UNL d   1      53.410  31.881  54.242  0.00  0.00     0.046 C 
BRANCH  12  13
ATOM     13  C   UNL d   1      53.575  32.679  54.166  0.00  0.00     0.124 C 
BRANCH  13  14
ATOM     14  O   UNL d   1      53.309  33.242  54.694  0.00  0.00    -0.305 OA
BRANCH  14  15
ATOM     15  C   UNL d   1      53.172  34.029  54.488  0.00  0.00     0.100 A 
ATOM     16  C   UNL d   1      53.480  34.628  54.988  0.00  0.00     0.025 A 
ATOM     17  C   UNL d   1      53.353  35.435  54.799  0.00  0.00     0.002 A 
ATOM     18  C   UNL d   1      52.922  35.644  54.114  0.00  0.00     0.000 A 
ATOM     19  C   UNL d   1      52.615  35.045  53.614  0.00  0.00     0.002 A 
ATOM     20  C   UNL d   1      52.751  34.260  53.819  0.00  0.00     0.025 A 
ENDBRANCH  14  15
ENDBRANCH  13  14
ENDBRANCH  12  13
ENDBRANCH  11  12
ENDBRANCH   2  11
TORSDOF 5
ENDMDL
MODEL 6
REMARK VINA RESULT:      -4.9     10.208     10.993
REMARK  5 active torsions:
REMARK  status: ('A' for Active; 'I' for Inactive)
REMARK    1  A    between atoms: C_6  and  N_2 
REMARK    2  A    between atoms: C_8  and  C_6 
REMARK    3  A    between atoms: C_13  and  C_8 
REMARK    4  A    between atoms: C_9  and  O_12 
REMARK    5  A    between atoms: O_12  and  C_13 
ROOT
ATOM      1  N   UNL d   1      45.067  28.902  58.540  0.00  0.00    -0.227 NA
ATOM      2  N   UNL d   1      44.672  27.999  57.634  0.00  0.00    -0.289 N 
ATOM      3  C   UNL d   1      44.919  28.085  58.430  0.00  0.00     0.148 A 
ATOM      4  C   UNL d   1      44.670  28.733  57.273  0.00  0.00     0.083 A 
ATOM      5  C   UNL d   1      44.926  29.317  57.858  0.00  0.00     0.099 A 
ATOM      6  C   UNL d   1      45.000  27.480  58.997  0.00  0.00     0.041 C 
ATOM      7  C   UNL d   1      44.479  28.957  56.514  0.00  0.00     0.019 A 
ATOM      8  C   UNL d   1      44.960  30.107  57.591  0.00  0.00     0.021 A 
ATOM      9  C   UNL d   1      44.535  29.743  56.326  0.00  0.00     0.002 A 
ATOM     10  C   UNL d   1      44.774  30.288  56.872  0.00  0.00     0.002 A 
ENDROOT
BRANCH   2  11
ATOM     11  C   UNL d   1      44.504  27.246  57.427  0.00  0.00     0.084 C 
BRANCH  11  12
ATOM     12  C   UNL d   1      44.932  26.835  56.855  0.00  0.00     0.046 C 
BRANCH  12  13
ATOM     13  C   UNL d   1      44.683  26.129  56.525  0.00  0.00     0.124 C 
BRANCH  13  14
ATOM     14  O   UNL d   1      45.182  25.621  56.126  0.00  0.00    -0.305 OA
BRANCH  14  15
ATOM     15  C   UNL d   1      44.922  24.948  55.728  0.00  0.00     0.100 A 
ATOM     16  C   UNL d   1      44.586  25.044  54.966  0.00  0.00     0.025 A 
ATOM     17  C   UNL d   1      44.314  24.374  54.541  0.00  0.00     0.002 A 
ATOM     18  C   UNL d   1      44.377  23.610  54.877  0.00  0.00     0.000 A 
ATOM     19  C   UNL d   1      44.712  23.514  55.639  0.00  0.00     0.002 A 
ATOM     20  C   UNL d   1      44.973  24.185  56.037  0.00  0.00     0.025 A 
ENDBRANCH  14  15
ENDBRANCH  13  14
ENDBRANCH  12  13
ENDBRANCH  11  12
ENDBRANCH   2  11
TORSDOF 5
ENDMDL
