MODEL 1
REMARK VINA RESULT:      29.4      0.000      0.000
REMARK  5 active torsions:
REMARK  status: ('A' for Active; 'I' for Inactive)
REMARK    1  A    between atoms: C_12  and  C_1 
REMARK    2  A    between atoms: N_7  and  C_2 
REMARK    3  A    between atoms: C_3  and  C_6 
REMARK       I    between atoms: C_6  and  N_7 
REMARK    4  A    between atoms: O_18  and  C_12 
REMARK    5  A    between atoms: C_23  and  O_18 
ROOT
ATOM      1  C   UNL d   1      46.396 -18.313  42.599  0.00  0.00     0.111 A 
ATOM      2  C   UNL d   1      46.451 -18.120  43.366  0.00  0.00     0.096 A 
ATOM      3  S   UNL d   1      46.378 -19.156  42.557  0.00  0.00    -0.080 SA
ATOM      4  C   UNL d   1      46.471 -18.793  43.831  0.00  0.00     0.024 A 
ATOM      5  C   UNL d   1      46.425 -19.441  43.323  0.00  0.00     0.031 A 
ATOM      6  C   UNL d   1      46.524 -18.904  44.649  0.00  0.00     0.002 A 
ATOM      7  C   UNL d   1      46.431 -20.209  43.622  0.00  0.00     0.006 A 
ATOM      8  C   UNL d   1      46.531 -19.675  44.953  0.00  0.00     0.000 A 
ATOM      9  C   UNL d   1      46.485 -20.322  44.446  0.00  0.00     0.001 A 
ENDROOT
BRANCH   2  10
ATOM     10  N   UNL d   1      46.483 -17.320  43.633  0.00  0.00    -0.207 NA
ATOM     11  C   UNL d   1      45.831 -16.994  44.019  0.00  0.00     0.284 C 
ATOM     12  O   UNL d   1      45.134 -17.507  44.130  0.00  0.00    -0.265 OA
BRANCH  11  13
ATOM     13  C   UNL d   1      45.910 -16.214  44.259  0.00  0.00     0.121 A 
ATOM     14  C   UNL d   1      45.278 -15.703  44.128  0.00  0.00     0.204 A 
ATOM     15  C   UNL d   1      45.319 -14.905  44.357  0.00  0.00     0.062 A 
ATOM     16  O   UNL d   1      44.576 -16.000  43.753  0.00  0.00    -0.286 OA
ATOM     17  C   UNL d   1      44.682 -14.409  44.220  0.00  0.00     0.005 A 
ATOM     18  C   UNL d   1      46.008 -14.622  44.724  0.00  0.00     0.103 A 
ATOM     19  C   UNL d   1      44.741 -13.618  44.456  0.00  0.00     0.000 A 
ATOM     20  C   UNL d   1      45.416 -13.324  44.819  0.00  0.00     0.002 A 
ATOM     21  C   UNL d   1      46.040 -13.823  44.950  0.00  0.00     0.025 A 
ATOM     22  O   UNL d   1      46.644 -15.125  44.858  0.00  0.00    -0.305 OA
ATOM     23  C   UNL d   1      46.601 -15.923  44.628  0.00  0.00     0.131 A 
ENDBRANCH  11  13
ENDBRANCH   2  10
BRANCH   1  24
ATOM     24  C   UNL d   1      46.363 -17.771  41.973  0.00  0.00     0.308 C 
ATOM     25  O   UNL d   1      46.629 -17.006  42.063  0.00  0.00    -0.258 OA
BRANCH  24  26
ATOM     26  O   UNL d   1      46.060 -18.045  41.293  0.00  0.00    -0.271 OA
BRANCH  26  27
ATOM     27  C   UNL d   1      46.517 -18.158  40.532  0.00  0.00     0.126 C 
ATOM     28  C   UNL d   1      46.133 -18.335  39.849  0.00  0.00     0.029 C 
ENDBRANCH  26  27
ENDBRANCH  24  26
ENDBRANCH   1  24
TORSDOF 5
ENDMDL
