MODEL 1
REMARK VINA RESULT:      13.3      0.000      0.000
REMARK  3 active torsions:
REMARK  status: ('A' for Active; 'I' for Inactive)
REMARK    1  A    between atoms: C_3  and  C_5 
REMARK    2  A    between atoms: O_13  and  C_6 
REMARK    3  A    between atoms: O_15  and  C_8 
ROOT
ATOM      1  C   UNL d   1      14.097  12.530  -2.483  0.00  0.00     0.021 A 
ATOM      2  C   UNL d   1      13.905  12.069  -1.833  0.00  0.00     0.028 A 
ATOM      3  C   UNL d   1      14.197  12.249  -1.090  0.00  0.00     0.116 A 
ATOM      4  C   UNL d   1      14.691  12.903  -0.994  0.00  0.00     0.116 A 
ATOM      5  C   UNL d   1      14.597  13.191  -2.386  0.00  0.00     0.004 A 
ATOM      6  C   UNL d   1      14.893  13.377  -1.641  0.00  0.00     0.026 A 
ENDROOT
BRANCH   1   7
ATOM      7  C   UNL d   1      13.800  12.344  -3.228  0.00  0.00     0.103 A 
ATOM      8  N   UNL d   1      14.233  12.533  -3.904  0.00  0.00    -0.145 NA
ATOM      9  N   UNL d   1      13.936  12.347  -4.650  0.00  0.00    -0.106 NA
ATOM     10  C   UNL d   1      13.206  11.971  -4.717  0.00  0.00     0.297 A 
ATOM     11  O   UNL d   1      12.904  11.782  -5.468  0.00  0.00    -0.264 OA
ATOM     12  C   UNL d   1      12.770  11.780  -4.034  0.00  0.00     0.066 A 
ATOM     13  C   UNL d   1      13.066  11.966  -3.289  0.00  0.00     0.026 A 
ENDBRANCH   1   7
BRANCH   3  14
ATOM     14  O   UNL d   1      13.998  11.779  -0.441  0.00  0.00    -0.326 OA
ATOM     15  C   UNL d   1      13.229  11.798  -0.141  0.00  0.00     0.181 C 
ENDBRANCH   3  14
BRANCH   4  16
ATOM     16  O   UNL d   1      14.989  13.089  -0.244  0.00  0.00    -0.326 OA
ATOM     17  C   UNL d   1      15.429  13.776  -0.136  0.00  0.00     0.181 C 
ENDBRANCH   4  16
TORSDOF 3
ENDMDL
