MODEL 1
REMARK VINA RESULT:     119.4      0.000      0.000
REMARK  7 active torsions:
REMARK  status: ('A' for Active; 'I' for Inactive)
REMARK    1  A    between atoms: C_25  and  N_5 
REMARK    2  A    between atoms: C_11  and  C_6 
REMARK       I    between atoms: N_19  and  C_11 
REMARK    3  A    between atoms: N_15  and  C_28 
REMARK    4  A    between atoms: C_27  and  N_19 
REMARK    5  A    between atoms: C_26  and  C_25 
REMARK    6  A    between atoms: C_28  and  C_26 
REMARK    7  A    between atoms: C_29  and  C_27 
ROOT
ATOM      1  C   UNL d   1     -54.800-100.709 -42.646  0.00  0.00     0.155 A 
ATOM      2  C   UNL d   1     -54.818-101.534 -42.627  0.00  0.00     0.091 A 
ATOM      3  N   UNL d   1     -54.773-100.284 -41.940  0.00  0.00    -0.210 NA
ATOM      4  N   UNL d   1     -54.781-101.502 -41.205  0.00  0.00    -0.258 N 
ATOM      5  N   UNL d   1     -54.810-100.310 -43.367  0.00  0.00    -0.274 N 
ATOM      6  C   UNL d   1     -54.855-101.570 -44.059  0.00  0.00     0.094 A 
ATOM      7  C   UNL d   1     -54.808-101.932 -41.901  0.00  0.00     0.269 A 
ATOM      8  C   UNL d   1     -54.838-100.735 -44.078  0.00  0.00     0.175 A 
ATOM      9  C   UNL d   1     -54.764-100.678 -41.229  0.00  0.00     0.152 A 
ATOM     10  C   UNL d   1     -54.845-101.968 -43.333  0.00  0.00     0.016 A 
ATOM     11  C   UNL d   1     -54.770-101.891 -40.475  0.00  0.00     0.084 A 
ATOM     12  C   UNL d   1     -54.736-100.243 -40.523  0.00  0.00     0.038 A 
ATOM     13  N   UNL d   1     -54.847-100.337 -44.799  0.00  0.00    -0.128 N 
ATOM     14  C   UNL d   1     -54.743-101.460 -39.778  0.00  0.00     0.018 A 
ATOM     15  C   UNL d   1     -54.726-100.637 -39.802  0.00  0.00     0.005 A 
ATOM     16  O   UNL d   1     -54.825-102.756 -41.882  0.00  0.00    -0.266 OA
ATOM     17  C   UNL d   1     -54.733-101.845 -39.057  0.00  0.00     0.002 C 
ENDROOT
BRANCH   6  18
ATOM     18  C   UNL d   1     -54.882-101.995 -44.755  0.00  0.00     0.282 C 
ATOM     19  N   UNL d   1     -55.046-101.607 -45.473  0.00  0.00    -0.206 NA
ATOM     20  O   UNL d   1     -54.747-102.809 -44.759  0.00  0.00    -0.265 OA
BRANCH  19  21
ATOM     21  C   UNL d   1     -55.074-102.033 -46.175  0.00  0.00     0.102 C 
BRANCH  21  22
ATOM     22  C   UNL d   1     -55.807-102.256 -46.499  0.00  0.00     0.019 A 
ATOM     23  C   UNL d   1     -55.959-102.107 -47.296  0.00  0.00     0.002 A 
ATOM     24  C   UNL d   1     -56.685-102.323 -47.630  0.00  0.00     0.000 A 
ATOM     25  C   UNL d   1     -57.260-102.691 -47.158  0.00  0.00     0.000 A 
ATOM     26  C   UNL d   1     -57.097-102.838 -46.352  0.00  0.00     0.000 A 
ATOM     27  C   UNL d   1     -56.372-102.619 -46.028  0.00  0.00     0.002 A 
ENDBRANCH  21  22
ENDBRANCH  19  21
ENDBRANCH   6  18
BRANCH   5  28
ATOM     28  C   UNL d   1     -54.793 -99.485 -43.382  0.00  0.00     0.085 C 
BRANCH  28  29
ATOM     29  C   UNL d   1     -55.488 -99.061 -43.509  0.00  0.00     0.038 C 
BRANCH  29  30
ATOM     30  C   UNL d   1     -55.876 -99.106 -44.241  0.00  0.00     0.083 C 
BRANCH  30  31
ATOM     31  N   UNL d   1     -56.690 -98.987 -44.285  0.00  0.00    -0.285 N 
ATOM     32  C   UNL d   1     -57.209 -98.991 -43.652  0.00  0.00     0.183 A 
ATOM     33  N   UNL d   1     -57.978 -98.845 -43.963  0.00  0.00    -0.222 NA
ATOM     34  C   UNL d   1     -57.913 -98.756 -44.764  0.00  0.00     0.120 A 
ATOM     35  C   UNL d   1     -57.118 -98.843 -44.970  0.00  0.00     0.102 A 
ENDBRANCH  30  31
ENDBRANCH  29  30
ENDBRANCH  28  29
ENDBRANCH   5  28
TORSDOF 7
ENDMDL
