MODEL 1
REMARK VINA RESULT:      32.3      0.000      0.000
REMARK  5 active torsions:
REMARK  status: ('A' for Active; 'I' for Inactive)
REMARK    1  A    between atoms: S_3  and  N_1 
REMARK    2  A    between atoms: C_7  and  C_4 
REMARK    3  A    between atoms: C_8  and  C_5 
REMARK    4  A    between atoms: O_21  and  C_13 
REMARK    5  A    between atoms: O_22  and  C_15 
ROOT
ATOM      1  N   UNL d   1      44.783 -15.280  44.566  0.00  0.00    -0.155 N 
ATOM      2  N   UNL d   1      44.758 -14.466  44.559  0.00  0.00    -0.155 NA
ATOM      3  C   UNL d   1      45.498 -14.186  44.334  0.00  0.00     0.110 A 
ATOM      4  C   UNL d   1      45.544 -15.505  44.344  0.00  0.00     0.096 A 
ATOM      5  C   UNL d   1      45.979 -14.830  44.203  0.00  0.00     0.041 A 
ENDROOT
BRANCH   4   6
ATOM      6  C   UNL d   1      45.816 -16.278  44.276  0.00  0.00     0.021 A 
ATOM      7  C   UNL d   1      45.924 -16.613  43.530  0.00  0.00     0.028 A 
ATOM      8  C   UNL d   1      46.198 -17.390  43.462  0.00  0.00     0.116 A 
ATOM      9  C   UNL d   1      46.362 -17.829  44.139  0.00  0.00     0.116 A 
ATOM     10  C   UNL d   1      46.254 -17.494  44.886  0.00  0.00     0.026 A 
ATOM     11  C   UNL d   1      45.982 -16.722  44.953  0.00  0.00     0.004 A 
BRANCH   8  12
ATOM     12  O   UNL d   1      46.306 -17.725  42.716  0.00  0.00    -0.326 OA
ATOM     13  C   UNL d   1      45.660 -18.014  42.297  0.00  0.00     0.181 C 
ENDBRANCH   8  12
BRANCH   9  14
ATOM     14  O   UNL d   1      46.636 -18.607  44.071  0.00  0.00    -0.326 OA
ATOM     15  C   UNL d   1      46.501 -19.148  44.682  0.00  0.00     0.181 C 
ENDBRANCH   9  14
ENDBRANCH   4   6
BRANCH   1  16
ATOM     16  S   UNL d   1      44.168 -15.779  44.757  0.00  0.00     0.266 S 
ATOM     17  O   UNL d   1      43.522 -16.282  44.952  0.00  0.00    -0.203 OA
ATOM     18  O   UNL d   1      44.700 -16.389  44.894  0.00  0.00    -0.203 OA
ATOM     19  C   UNL d   1      43.636 -15.176  44.623  0.00  0.00     0.165 C 
ENDBRANCH   1  16
BRANCH   3  20
ATOM     20  C   UNL d   1      45.707 -13.386  44.259  0.00  0.00     0.049 A 
ATOM     21  S   UNL d   1      46.268 -12.994  44.714  0.00  0.00    -0.085 SA
ATOM     22  C   UNL d   1      46.315 -12.192  44.464  0.00  0.00     0.035 A 
ATOM     23  C   UNL d   1      45.770 -12.108  43.848  0.00  0.00     0.007 A 
ATOM     24  C   UNL d   1      45.401 -12.849  43.729  0.00  0.00     0.009 A 
ENDBRANCH   3  20
TORSDOF 5
ENDMDL
