MODEL 1
REMARK VINA RESULT:      -0.8      0.000      0.000
REMARK  0 active torsions:
REMARK  status: ('A' for Active; 'I' for Inactive)
ROOT
ATOM      1  C   UNL d   1      46.621 -19.570  42.855  0.00  0.00     0.061 A 
ATOM      2  C   UNL d   1      46.638 -19.582  42.030  0.00  0.00     0.279 A 
ATOM      3  C   UNL d   1      46.612 -18.851  43.255  0.00  0.00     0.045 A 
ATOM      4  N   UNL d   1      46.646 -18.877  41.610  0.00  0.00    -0.206 NA
ATOM      5  C   UNL d   1      46.595 -18.843  44.084  0.00  0.00     0.196 A 
ATOM      6  O   UNL d   1      46.647 -20.301  41.629  0.00  0.00    -0.265 OA
ATOM      7  C   UNL d   1      46.637 -18.156  42.016  0.00  0.00     0.102 A 
ATOM      8  O   UNL d   1      46.587 -18.124  44.484  0.00  0.00    -0.287 OA
ATOM      9  C   UNL d   1      46.620 -18.151  42.842  0.00  0.00     0.024 A 
ATOM     10  C   UNL d   1      46.613 -20.288  43.279  0.00  0.00     0.005 A 
ATOM     11  C   UNL d   1      46.596 -20.274  44.099  0.00  0.00     0.003 A 
ATOM     12  C   UNL d   1      46.587 -19.554  44.500  0.00  0.00     0.042 A 
ENDROOT
TORSDOF 0
ENDMDL
MODEL 2
REMARK VINA RESULT:      -0.8      0.866      2.610
REMARK  0 active torsions:
REMARK  status: ('A' for Active; 'I' for Inactive)
ROOT
ATOM      1  C   UNL d   1      46.622 -18.867  43.115  0.00  0.00     0.061 A 
ATOM      2  C   UNL d   1      46.611 -18.876  43.940  0.00  0.00     0.279 A 
ATOM      3  C   UNL d   1      46.627 -19.576  42.697  0.00  0.00     0.045 A 
ATOM      4  N   UNL d   1      46.604 -19.591  44.343  0.00  0.00    -0.206 NA
ATOM      5  C   UNL d   1      46.639 -19.564  41.868  0.00  0.00     0.196 A 
ATOM      6  O   UNL d   1      46.605 -18.167  44.359  0.00  0.00    -0.265 OA
ATOM      7  C   UNL d   1      46.610 -20.302  43.919  0.00  0.00     0.102 A 
ATOM      8  O   UNL d   1      46.644 -20.273  41.450  0.00  0.00    -0.287 OA
ATOM      9  C   UNL d   1      46.621 -20.287  43.093  0.00  0.00     0.024 A 
ATOM     10  C   UNL d   1      46.629 -18.140  42.709  0.00  0.00     0.005 A 
ATOM     11  C   UNL d   1      46.640 -18.133  41.888  0.00  0.00     0.003 A 
ATOM     12  C   UNL d   1      46.645 -18.843  41.470  0.00  0.00     0.042 A 
ENDROOT
TORSDOF 0
ENDMDL
