MODEL 1
REMARK VINA RESULT:     -10.5      0.000      0.000
REMARK  4 active torsions:
REMARK  status: ('A' for Active; 'I' for Inactive)
REMARK    1  A    between atoms: C_8  and  C_1 
REMARK    2  A    between atoms: C_12  and  C_3 
REMARK    3  A    between atoms: N_10  and  C_8 
REMARK    4  A    between atoms: C_25  and  C_13 
ROOT
ATOM      1  C   UNL d   1      53.540  32.573  53.380  0.00  0.00     0.079 A 
ATOM      2  C   UNL d   1      52.137  32.513  53.124  0.00  0.00     0.062 A 
ATOM      3  C   UNL d   1      51.409  33.712  52.872  0.00  0.00     0.064 A 
ATOM      4  C   UNL d   1      52.830  32.952  53.211  0.00  0.00     0.108 A 
ATOM      5  C   UNL d   1      51.426  32.893  52.955  0.00  0.00     0.199 A 
ATOM      6  O   UNL d   1      52.812  33.771  53.128  0.00  0.00    -0.305 OA
ATOM      7  C   UNL d   1      52.102  34.151  52.959  0.00  0.00     0.126 A 
ATOM      8  C   UNL d   1      53.560  31.750  53.464  0.00  0.00     0.199 A 
ATOM      9  C   UNL d   1      52.154  31.695  53.207  0.00  0.00     0.008 A 
ATOM     10  C   UNL d   1      52.867  31.311  53.377  0.00  0.00     0.039 A 
ATOM     11  O   UNL d   1      50.733  32.454  52.868  0.00  0.00    -0.286 OA
ATOM     12  O   UNL d   1      54.261  31.369  53.631  0.00  0.00    -0.286 OA
ENDROOT
BRANCH   3  13
ATOM     13  C   UNL d   1      50.698  34.092  52.702  0.00  0.00     0.007 A 
ATOM     14  C   UNL d   1      50.374  34.054  51.935  0.00  0.00     0.027 A 
ATOM     15  C   UNL d   1      49.663  34.434  51.766  0.00  0.00     0.123 A 
ATOM     16  O   UNL d   1      49.348  34.393  51.006  0.00  0.00    -0.301 OA
ATOM     17  C   UNL d   1      49.271  34.854  52.358  0.00  0.00     0.123 A 
ATOM     18  C   UNL d   1      48.632  34.775  50.832  0.00  0.00     0.149 A 
ATOM     19  C   UNL d   1      48.238  35.198  51.432  0.00  0.00     0.149 A 
ATOM     20  O   UNL d   1      48.560  35.233  52.188  0.00  0.00    -0.301 OA
ATOM     21  C   UNL d   1      49.593  34.892  53.123  0.00  0.00     0.027 A 
ATOM     22  C   UNL d   1      50.303  34.513  53.292  0.00  0.00     0.002 A 
ENDBRANCH   3  13
BRANCH   1  23
ATOM     23  C   UNL d   1      54.233  33.012  53.467  0.00  0.00     0.085 C 
BRANCH  23  24
ATOM     24  N   UNL d   1      54.497  33.222  54.218  0.00  0.00    -0.304 N 
ATOM     25  C   UNL d   1      55.232  33.584  54.315  0.00  0.00     0.064 A 
ATOM     26  C   UNL d   1      55.703  33.736  53.658  0.00  0.00     0.019 C 
ATOM     27  C   UNL d   1      55.489  33.791  55.065  0.00  0.00     0.018 A 
ATOM     28  C   UNL d   1      55.012  33.637  55.730  0.00  0.00     0.003 A 
ATOM     29  C   UNL d   1      54.282  33.277  55.630  0.00  0.00     0.019 A 
ATOM     30  C   UNL d   1      54.018  33.067  54.878  0.00  0.00     0.080 A 
ENDBRANCH  23  24
ENDBRANCH   1  23
BRANCH  10  31
ATOM     31  C   UNL d   1      52.888  30.485  53.461  0.00  0.00     0.003 C 
ATOM     32  C   UNL d   1      52.557  30.004  52.878  0.00  0.00     0.000 C 
ENDBRANCH  10  31
TORSDOF 4
ENDMDL
MODEL 2
REMARK VINA RESULT:      -9.3      0.879      2.396
REMARK  4 active torsions:
REMARK  status: ('A' for Active; 'I' for Inactive)
REMARK    1  A    between atoms: C_8  and  C_1 
REMARK    2  A    between atoms: C_12  and  C_3 
REMARK    3  A    between atoms: N_10  and  C_8 
REMARK    4  A    between atoms: C_25  and  C_13 
ROOT
ATOM      1  C   UNL d   1      53.474  32.280  53.302  0.00  0.00     0.079 A 
ATOM      2  C   UNL d   1      52.745  33.493  53.490  0.00  0.00     0.062 A 
ATOM      3  C   UNL d   1      51.413  33.606  52.997  0.00  0.00     0.064 A 
ATOM      4  C   UNL d   1      52.787  32.721  53.200  0.00  0.00     0.108 A 
ATOM      5  C   UNL d   1      52.058  33.936  53.388  0.00  0.00     0.199 A 
ATOM      6  O   UNL d   1      52.142  32.393  52.809  0.00  0.00    -0.305 OA
ATOM      7  C   UNL d   1      51.455  32.835  52.707  0.00  0.00     0.126 A 
ATOM      8  C   UNL d   1      54.123  32.608  53.696  0.00  0.00     0.199 A 
ATOM      9  C   UNL d   1      53.390  33.822  53.882  0.00  0.00     0.008 A 
ATOM     10  C   UNL d   1      54.081  33.379  53.985  0.00  0.00     0.039 A 
ATOM     11  O   UNL d   1      52.016  34.707  53.678  0.00  0.00    -0.286 OA
ATOM     12  O   UNL d   1      54.805  32.174  53.799  0.00  0.00    -0.286 OA
ENDROOT
BRANCH   3  13
ATOM     13  C   UNL d   1      50.726  34.049  52.895  0.00  0.00     0.007 A 
ATOM     14  C   UNL d   1      50.347  34.071  52.152  0.00  0.00     0.027 A 
ATOM     15  C   UNL d   1      49.660  34.514  52.051  0.00  0.00     0.123 A 
ATOM     16  O   UNL d   1      49.290  34.532  51.315  0.00  0.00    -0.301 OA
ATOM     17  C   UNL d   1      49.346  34.936  52.686  0.00  0.00     0.123 A 
ATOM     18  C   UNL d   1      48.597  34.977  51.209  0.00  0.00     0.149 A 
ATOM     19  C   UNL d   1      48.283  35.403  51.853  0.00  0.00     0.149 A 
ATOM     20  O   UNL d   1      48.660  35.378  52.583  0.00  0.00    -0.301 OA
ATOM     21  C   UNL d   1      49.723  34.915  53.426  0.00  0.00     0.027 A 
ATOM     22  C   UNL d   1      50.410  34.473  53.528  0.00  0.00     0.002 A 
ENDBRANCH   3  13
BRANCH   1  23
ATOM     23  C   UNL d   1      53.515  31.508  53.012  0.00  0.00     0.085 C 
BRANCH  23  24
ATOM     24  N   UNL d   1      53.368  30.871  53.513  0.00  0.00    -0.304 N 
ATOM     25  C   UNL d   1      53.217  30.122  53.201  0.00  0.00     0.064 A 
ATOM     26  C   UNL d   1      53.214  30.012  52.386  0.00  0.00     0.019 C 
ATOM     27  C   UNL d   1      53.072  29.493  53.704  0.00  0.00     0.018 A 
ATOM     28  C   UNL d   1      53.075  29.603  54.529  0.00  0.00     0.003 A 
ATOM     29  C   UNL d   1      53.225  30.349  54.836  0.00  0.00     0.019 A 
ATOM     30  C   UNL d   1      53.373  30.987  54.335  0.00  0.00     0.080 A 
ENDBRANCH  23  24
ENDBRANCH   1  23
BRANCH  10  31
ATOM     31  C   UNL d   1      54.734  33.708  54.380  0.00  0.00     0.003 C 
ATOM     32  C   UNL d   1      54.639  34.025  55.136  0.00  0.00     0.000 C 
ENDBRANCH  10  31
TORSDOF 4
ENDMDL
MODEL 3
REMARK VINA RESULT:      -8.1      1.667      5.169
REMARK  4 active torsions:
REMARK  status: ('A' for Active; 'I' for Inactive)
REMARK    1  A    between atoms: C_8  and  C_1 
REMARK    2  A    between atoms: C_12  and  C_3 
REMARK    3  A    between atoms: N_10  and  C_8 
REMARK    4  A    between atoms: C_25  and  C_13 
ROOT
ATOM      1  C   UNL d   1      52.299  33.979  52.862  0.00  0.00     0.079 A 
ATOM      2  C   UNL d   1      53.040  33.059  53.663  0.00  0.00     0.062 A 
ATOM      3  C   UNL d   1      52.955  31.661  53.402  0.00  0.00     0.064 A 
ATOM      4  C   UNL d   1      52.517  33.207  53.042  0.00  0.00     0.108 A 
ATOM      5  C   UNL d   1      53.259  32.286  53.844  0.00  0.00     0.199 A 
ATOM      6  O   UNL d   1      52.214  32.581  52.601  0.00  0.00    -0.305 OA
ATOM      7  C   UNL d   1      52.433  31.809  52.781  0.00  0.00     0.126 A 
ATOM      8  C   UNL d   1      52.602  34.609  53.303  0.00  0.00     0.199 A 
ATOM      9  C   UNL d   1      53.343  33.684  54.104  0.00  0.00     0.008 A 
ATOM     10  C   UNL d   1      53.124  34.462  53.925  0.00  0.00     0.039 A 
ATOM     11  O   UNL d   1      53.781  32.138  54.465  0.00  0.00    -0.286 OA
ATOM     12  O   UNL d   1      52.388  35.376  53.128  0.00  0.00    -0.286 OA
ENDROOT
BRANCH   3  13
ATOM     13  C   UNL d   1      53.174  30.888  53.583  0.00  0.00     0.007 A 
ATOM     14  C   UNL d   1      52.909  30.529  54.288  0.00  0.00     0.027 A 
ATOM     15  C   UNL d   1      53.128  29.756  54.468  0.00  0.00     0.123 A 
ATOM     16  O   UNL d   1      52.863  29.408  55.166  0.00  0.00    -0.301 OA
ATOM     17  C   UNL d   1      53.611  29.336  53.949  0.00  0.00     0.123 A 
ATOM     18  C   UNL d   1      53.081  28.629  55.351  0.00  0.00     0.149 A 
ATOM     19  C   UNL d   1      53.570  28.207  54.824  0.00  0.00     0.149 A 
ATOM     20  O   UNL d   1      53.830  28.563  54.130  0.00  0.00    -0.301 OA
ATOM     21  C   UNL d   1      53.876  29.691  53.247  0.00  0.00     0.027 A 
ATOM     22  C   UNL d   1      53.658  30.463  53.066  0.00  0.00     0.002 A 
ENDBRANCH   3  13
BRANCH   1  23
ATOM     23  C   UNL d   1      51.776  34.127  52.240  0.00  0.00     0.085 C 
BRANCH  23  24
ATOM     24  N   UNL d   1      50.982  34.279  52.396  0.00  0.00    -0.304 N 
ATOM     25  C   UNL d   1      50.448  34.383  51.776  0.00  0.00     0.064 A 
ATOM     26  C   UNL d   1      50.711  34.335  50.998  0.00  0.00     0.019 C 
ATOM     27  C   UNL d   1      49.660  34.534  51.938  0.00  0.00     0.018 A 
ATOM     28  C   UNL d   1      49.393  34.583  52.725  0.00  0.00     0.003 A 
ATOM     29  C   UNL d   1      49.927  34.479  53.339  0.00  0.00     0.019 A 
ATOM     30  C   UNL d   1      50.722  34.327  53.183  0.00  0.00     0.080 A 
ENDBRANCH  23  24
ENDBRANCH   1  23
BRANCH  10  31
ATOM     31  C   UNL d   1      53.429  35.095  54.368  0.00  0.00     0.003 C 
ATOM     32  C   UNL d   1      53.614  34.987  55.164  0.00  0.00     0.000 C 
ENDBRANCH  10  31
TORSDOF 4
ENDMDL
