MODEL 1
REMARK VINA RESULT:      -8.6      0.000      0.000
REMARK  4 active torsions:
REMARK  status: ('A' for Active; 'I' for Inactive)
REMARK    1  A    between atoms: C_3  and  C_1 
REMARK    2  A    between atoms: C_2  and  C_3 
REMARK    3  A    between atoms: C_6  and  C_2 
REMARK    4  A    between atoms: C_16  and  C_6 
ROOT
ATOM      1  C   UNL d   1      53.010  34.463  54.022  0.00  0.00     0.119 A 
ATOM      2  C   UNL d   1      53.550  34.487  54.639  0.00  0.00     0.119 A 
ATOM      3  O   UNL d   1      52.602  35.179  54.011  0.00  0.00    -0.300 OA
ATOM      4  O   UNL d   1      53.478  35.219  55.012  0.00  0.00    -0.300 OA
ATOM      5  C   UNL d   1      52.898  35.642  54.628  0.00  0.00     0.304 A 
ATOM      6  C   UNL d   1      52.958  33.797  53.551  0.00  0.00     0.026 A 
ATOM      7  C   UNL d   1      53.449  33.146  53.695  0.00  0.00     0.002 A 
ATOM      8  C   UNL d   1      54.036  33.847  54.784  0.00  0.00     0.026 A 
ATOM      9  C   UNL d   1      53.983  33.170  54.306  0.00  0.00     0.002 A 
ENDROOT
BRANCH   7  10
ATOM     10  C   UNL d   1      53.406  32.464  53.225  0.00  0.00     0.003 C 
BRANCH  10  11
ATOM     11  C   UNL d   1      53.292  31.724  53.579  0.00  0.00     0.044 C 
BRANCH  11  12
ATOM     12  C   UNL d   1      53.115  31.063  53.110  0.00  0.00     0.213 C 
ATOM     13  O   UNL d   1      52.968  31.156  52.312  0.00  0.00    -0.285 OA
BRANCH  12  14
ATOM     14  C   UNL d   1      53.085  30.306  53.449  0.00  0.00     0.120 A 
ATOM     15  N   UNL d   1      52.426  29.831  53.342  0.00  0.00    -0.241 NA
ATOM     16  C   UNL d   1      52.556  29.117  53.741  0.00  0.00     0.099 A 
ATOM     17  C   UNL d   1      53.301  29.163  54.091  0.00  0.00     0.022 A 
ATOM     18  C   UNL d   1      53.626  29.885  53.916  0.00  0.00     0.024 A 
ENDBRANCH  12  14
ENDBRANCH  11  12
ENDBRANCH  10  11
ENDBRANCH   7  10
TORSDOF 4
ENDMDL
MODEL 2
REMARK VINA RESULT:      -8.4      1.635      4.495
REMARK  4 active torsions:
REMARK  status: ('A' for Active; 'I' for Inactive)
REMARK    1  A    between atoms: C_3  and  C_1 
REMARK    2  A    between atoms: C_2  and  C_3 
REMARK    3  A    between atoms: C_6  and  C_2 
REMARK    4  A    between atoms: C_16  and  C_6 
ROOT
ATOM      1  C   UNL d   1      53.310  30.124  53.951  0.00  0.00     0.119 A 
ATOM      2  C   UNL d   1      52.808  30.069  53.304  0.00  0.00     0.119 A 
ATOM      3  O   UNL d   1      53.312  29.395  54.335  0.00  0.00    -0.300 OA
ATOM      4  O   UNL d   1      52.499  29.305  53.287  0.00  0.00    -0.300 OA
ATOM      5  C   UNL d   1      52.807  28.893  53.917  0.00  0.00     0.304 A 
ATOM      6  C   UNL d   1      53.698  30.825  54.108  0.00  0.00     0.026 A 
ATOM      7  C   UNL d   1      53.587  31.482  53.615  0.00  0.00     0.002 A 
ATOM      8  C   UNL d   1      52.696  30.715  52.817  0.00  0.00     0.026 A 
ATOM      9  C   UNL d   1      53.090  31.427  52.975  0.00  0.00     0.002 A 
ENDROOT
BRANCH   7  10
ATOM     10  C   UNL d   1      53.975  32.200  53.764  0.00  0.00     0.003 C 
BRANCH  10  11
ATOM     11  C   UNL d   1      53.544  32.857  54.027  0.00  0.00     0.044 C 
BRANCH  11  12
ATOM     12  C   UNL d   1      53.942  33.537  54.284  0.00  0.00     0.213 C 
ATOM     13  O   UNL d   1      54.736  33.501  54.470  0.00  0.00    -0.285 OA
BRANCH  12  14
ATOM     14  C   UNL d   1      53.535  34.257  54.355  0.00  0.00     0.120 A 
ATOM     15  N   UNL d   1      53.481  34.632  55.082  0.00  0.00    -0.241 NA
ATOM     16  C   UNL d   1      53.048  35.330  54.980  0.00  0.00     0.099 A 
ATOM     17  C   UNL d   1      52.838  35.376  54.184  0.00  0.00     0.022 A 
ATOM     18  C   UNL d   1      53.133  34.724  53.800  0.00  0.00     0.024 A 
ENDBRANCH  12  14
ENDBRANCH  11  12
ENDBRANCH  10  11
ENDBRANCH   7  10
TORSDOF 4
ENDMDL
MODEL 3
REMARK VINA RESULT:      -8.1      1.919      4.388
REMARK  4 active torsions:
REMARK  status: ('A' for Active; 'I' for Inactive)
REMARK    1  A    between atoms: C_3  and  C_1 
REMARK    2  A    between atoms: C_2  and  C_3 
REMARK    3  A    between atoms: C_6  and  C_2 
REMARK    4  A    between atoms: C_16  and  C_6 
ROOT
ATOM      1  C   UNL d   1      53.281  30.071  54.262  0.00  0.00     0.119 A 
ATOM      2  C   UNL d   1      53.084  29.556  53.655  0.00  0.00     0.119 A 
ATOM      3  O   UNL d   1      53.426  29.623  54.939  0.00  0.00    -0.300 OA
ATOM      4  O   UNL d   1      53.106  28.788  53.954  0.00  0.00    -0.300 OA
ATOM      5  C   UNL d   1      53.315  28.830  54.739  0.00  0.00     0.304 A 
ATOM      6  C   UNL d   1      53.303  30.875  54.124  0.00  0.00     0.026 A 
ATOM      7  C   UNL d   1      53.127  31.174  53.372  0.00  0.00     0.002 A 
ATOM      8  C   UNL d   1      52.910  29.847  52.912  0.00  0.00     0.026 A 
ATOM      9  C   UNL d   1      52.932  30.664  52.770  0.00  0.00     0.002 A 
ENDROOT
BRANCH   7  10
ATOM     10  C   UNL d   1      53.147  31.989  53.219  0.00  0.00     0.003 C 
BRANCH  10  11
ATOM     11  C   UNL d   1      52.440  32.403  53.094  0.00  0.00     0.044 C 
BRANCH  11  12
ATOM     12  C   UNL d   1      52.449  33.231  53.042  0.00  0.00     0.213 C 
ATOM     13  O   UNL d   1      53.145  33.641  53.161  0.00  0.00    -0.285 OA
BRANCH  12  14
ATOM     14  C   UNL d   1      51.751  33.646  52.869  0.00  0.00     0.120 A 
ATOM     15  N   UNL d   1      51.669  34.034  52.151  0.00  0.00    -0.241 NA
ATOM     16  C   UNL d   1      50.923  34.393  52.138  0.00  0.00     0.099 A 
ATOM     17  C   UNL d   1      50.553  34.221  52.853  0.00  0.00     0.022 A 
ATOM     18  C   UNL d   1      51.054  33.765  53.302  0.00  0.00     0.024 A 
ENDBRANCH  12  14
ENDBRANCH  11  12
ENDBRANCH  10  11
ENDBRANCH   7  10
TORSDOF 4
ENDMDL
MODEL 4
REMARK VINA RESULT:      -7.7      2.387      3.368
REMARK  4 active torsions:
REMARK  status: ('A' for Active; 'I' for Inactive)
REMARK    1  A    between atoms: C_3  and  C_1 
REMARK    2  A    between atoms: C_2  and  C_3 
REMARK    3  A    between atoms: C_6  and  C_2 
REMARK    4  A    between atoms: C_16  and  C_6 
ROOT
ATOM      1  C   UNL d   1      50.571  33.961  52.995  0.00  0.00     0.119 A 
ATOM      2  C   UNL d   1      50.713  34.315  52.269  0.00  0.00     0.119 A 
ATOM      3  O   UNL d   1      49.817  34.181  53.244  0.00  0.00    -0.300 OA
ATOM      4  O   UNL d   1      50.046  34.756  52.066  0.00  0.00    -0.300 OA
ATOM      5  C   UNL d   1      49.499  34.674  52.663  0.00  0.00     0.304 A 
ATOM      6  C   UNL d   1      51.142  33.486  53.336  0.00  0.00     0.026 A 
ATOM      7  C   UNL d   1      51.864  33.361  52.950  0.00  0.00     0.002 A 
ATOM      8  C   UNL d   1      51.424  34.194  51.886  0.00  0.00     0.026 A 
ATOM      9  C   UNL d   1      52.004  33.711  52.231  0.00  0.00     0.002 A 
ENDROOT
BRANCH   7  10
ATOM     10  C   UNL d   1      52.452  32.881  53.285  0.00  0.00     0.003 C 
BRANCH  10  11
ATOM     11  C   UNL d   1      53.079  33.226  53.702  0.00  0.00     0.044 C 
BRANCH  11  12
ATOM     12  C   UNL d   1      53.644  32.744  54.073  0.00  0.00     0.213 C 
ATOM     13  O   UNL d   1      53.639  31.937  53.948  0.00  0.00    -0.285 OA
BRANCH  12  14
ATOM     14  C   UNL d   1      54.216  33.081  54.571  0.00  0.00     0.120 A 
ATOM     15  N   UNL d   1      54.142  33.018  55.385  0.00  0.00    -0.241 NA
ATOM     16  C   UNL d   1      54.789  33.403  55.732  0.00  0.00     0.099 A 
ATOM     17  C   UNL d   1      55.255  33.700  55.121  0.00  0.00     0.022 A 
ATOM     18  C   UNL d   1      54.910  33.506  54.413  0.00  0.00     0.024 A 
ENDBRANCH  12  14
ENDBRANCH  11  12
ENDBRANCH  10  11
ENDBRANCH   7  10
TORSDOF 4
ENDMDL
MODEL 5
REMARK VINA RESULT:      -7.6      1.511      1.935
REMARK  4 active torsions:
REMARK  status: ('A' for Active; 'I' for Inactive)
REMARK    1  A    between atoms: C_3  and  C_1 
REMARK    2  A    between atoms: C_2  and  C_3 
REMARK    3  A    between atoms: C_6  and  C_2 
REMARK    4  A    between atoms: C_16  and  C_6 
ROOT
ATOM      1  C   UNL d   1      51.178  33.863  52.863  0.00  0.00     0.119 A 
ATOM      2  C   UNL d   1      51.348  34.597  53.187  0.00  0.00     0.119 A 
ATOM      3  O   UNL d   1      50.393  33.872  52.609  0.00  0.00    -0.300 OA
ATOM      4  O   UNL d   1      50.669  35.062  53.135  0.00  0.00    -0.300 OA
ATOM      5  C   UNL d   1      50.085  34.618  52.782  0.00  0.00     0.304 A 
ATOM      6  C   UNL d   1      51.753  33.283  52.839  0.00  0.00     0.026 A 
ATOM      7  C   UNL d   1      52.509  33.435  53.141  0.00  0.00     0.002 A 
ATOM      8  C   UNL d   1      52.092  34.749  53.487  0.00  0.00     0.026 A 
ATOM      9  C   UNL d   1      52.677  34.161  53.463  0.00  0.00     0.002 A 
ENDROOT
BRANCH   7  10
ATOM     10  C   UNL d   1      53.102  32.855  53.123  0.00  0.00     0.003 C 
BRANCH  10  11
ATOM     11  C   UNL d   1      52.920  32.072  53.322  0.00  0.00     0.044 C 
BRANCH  11  12
ATOM     12  C   UNL d   1      53.530  31.517  53.415  0.00  0.00     0.213 C 
ATOM     13  O   UNL d   1      54.309  31.761  53.421  0.00  0.00    -0.285 OA
BRANCH  12  14
ATOM     14  C   UNL d   1      53.350  30.711  53.503  0.00  0.00     0.120 A 
ATOM     15  N   UNL d   1      53.553  30.316  54.192  0.00  0.00    -0.241 NA
ATOM     16  C   UNL d   1      53.306  29.529  54.119  0.00  0.00     0.099 A 
ATOM     17  C   UNL d   1      52.951  29.449  53.379  0.00  0.00     0.022 A 
ATOM     18  C   UNL d   1      52.976  30.167  53.001  0.00  0.00     0.024 A 
ENDBRANCH  12  14
ENDBRANCH  11  12
ENDBRANCH  10  11
ENDBRANCH   7  10
TORSDOF 4
ENDMDL
MODEL 6
REMARK VINA RESULT:      -7.5      2.313      3.629
REMARK  4 active torsions:
REMARK  status: ('A' for Active; 'I' for Inactive)
REMARK    1  A    between atoms: C_3  and  C_1 
REMARK    2  A    between atoms: C_2  and  C_3 
REMARK    3  A    between atoms: C_6  and  C_2 
REMARK    4  A    between atoms: C_16  and  C_6 
ROOT
ATOM      1  C   UNL d   1      54.038  33.702  54.538  0.00  0.00     0.119 A 
ATOM      2  C   UNL d   1      54.136  32.913  54.740  0.00  0.00     0.119 A 
ATOM      3  O   UNL d   1      54.495  34.155  55.053  0.00  0.00    -0.300 OA
ATOM      4  O   UNL d   1      54.654  32.876  55.380  0.00  0.00    -0.300 OA
ATOM      5  C   UNL d   1      54.873  33.636  55.571  0.00  0.00     0.304 A 
ATOM      6  C   UNL d   1      53.550  33.908  53.916  0.00  0.00     0.026 A 
ATOM      7  C   UNL d   1      53.152  33.321  53.488  0.00  0.00     0.002 A 
ATOM      8  C   UNL d   1      53.745  32.332  54.319  0.00  0.00     0.026 A 
ATOM      9  C   UNL d   1      53.249  32.540  53.688  0.00  0.00     0.002 A 
ENDROOT
BRANCH   7  10
ATOM     10  C   UNL d   1      52.654  33.516  52.855  0.00  0.00     0.003 C 
BRANCH  10  11
ATOM     11  C   UNL d   1      51.897  33.820  53.003  0.00  0.00     0.044 C 
BRANCH  11  12
ATOM     12  C   UNL d   1      51.427  34.085  52.373  0.00  0.00     0.213 C 
ATOM     13  O   UNL d   1      51.729  34.096  51.614  0.00  0.00    -0.285 OA
BRANCH  12  14
ATOM     14  C   UNL d   1      50.650  34.340  52.511  0.00  0.00     0.120 A 
ATOM     15  N   UNL d   1      50.070  34.225  51.943  0.00  0.00    -0.241 NA
ATOM     16  C   UNL d   1      49.359  34.534  52.235  0.00  0.00     0.099 A 
ATOM     17  C   UNL d   1      49.512  34.838  52.985  0.00  0.00     0.022 A 
ATOM     18  C   UNL d   1      50.297  34.722  53.157  0.00  0.00     0.024 A 
ENDBRANCH  12  14
ENDBRANCH  11  12
ENDBRANCH  10  11
ENDBRANCH   7  10
TORSDOF 4
ENDMDL
MODEL 7
REMARK VINA RESULT:      -7.0      2.651      3.867
REMARK  4 active torsions:
REMARK  status: ('A' for Active; 'I' for Inactive)
REMARK    1  A    between atoms: C_3  and  C_1 
REMARK    2  A    between atoms: C_2  and  C_3 
REMARK    3  A    between atoms: C_6  and  C_2 
REMARK    4  A    between atoms: C_16  and  C_6 
ROOT
ATOM      1  C   UNL d   1      53.767  33.524  54.298  0.00  0.00     0.119 A 
ATOM      2  C   UNL d   1      53.845  34.190  54.769  0.00  0.00     0.119 A 
ATOM      3  O   UNL d   1      54.243  32.930  54.615  0.00  0.00    -0.300 OA
ATOM      4  O   UNL d   1      54.368  34.010  55.380  0.00  0.00    -0.300 OA
ATOM      5  C   UNL d   1      54.611  33.239  55.285  0.00  0.00     0.304 A 
ATOM      6  C   UNL d   1      53.278  33.540  53.644  0.00  0.00     0.026 A 
ATOM      7  C   UNL d   1      52.859  34.230  53.455  0.00  0.00     0.002 A 
ATOM      8  C   UNL d   1      53.433  34.871  54.586  0.00  0.00     0.026 A 
ATOM      9  C   UNL d   1      52.936  34.890  53.922  0.00  0.00     0.002 A 
ENDROOT
BRANCH   7  10
ATOM     10  C   UNL d   1      52.359  34.260  52.794  0.00  0.00     0.003 C 
BRANCH  10  11
ATOM     11  C   UNL d   1      51.541  34.339  52.898  0.00  0.00     0.044 C 
BRANCH  11  12
ATOM     12  C   UNL d   1      51.035  34.298  52.242  0.00  0.00     0.213 C 
ATOM     13  O   UNL d   1      51.322  34.051  51.518  0.00  0.00    -0.285 OA
BRANCH  12  14
ATOM     14  C   UNL d   1      50.235  34.506  52.318  0.00  0.00     0.120 A 
ATOM     15  N   UNL d   1      49.728  34.442  51.677  0.00  0.00    -0.241 NA
ATOM     16  C   UNL d   1      48.975  34.686  51.919  0.00  0.00     0.099 A 
ATOM     17  C   UNL d   1      49.028  34.900  52.713  0.00  0.00     0.022 A 
ATOM     18  C   UNL d   1      49.794  34.792  52.960  0.00  0.00     0.024 A 
ENDBRANCH  12  14
ENDBRANCH  11  12
ENDBRANCH  10  11
ENDBRANCH   7  10
TORSDOF 4
ENDMDL
MODEL 8
REMARK VINA RESULT:      -6.4      1.717      4.392
REMARK  4 active torsions:
REMARK  status: ('A' for Active; 'I' for Inactive)
REMARK    1  A    between atoms: C_3  and  C_1 
REMARK    2  A    between atoms: C_2  and  C_3 
REMARK    3  A    between atoms: C_6  and  C_2 
REMARK    4  A    between atoms: C_16  and  C_6 
ROOT
ATOM      1  C   UNL d   1      52.990  29.920  54.235  0.00  0.00     0.119 A 
ATOM      2  C   UNL d   1      53.238  29.409  53.644  0.00  0.00     0.119 A 
ATOM      3  O   UNL d   1      53.081  29.536  54.959  0.00  0.00    -0.300 OA
ATOM      4  O   UNL d   1      53.484  28.707  54.000  0.00  0.00    -0.300 OA
ATOM      5  C   UNL d   1      53.388  28.786  54.804  0.00  0.00     0.304 A 
ATOM      6  C   UNL d   1      52.714  30.665  54.043  0.00  0.00     0.026 A 
ATOM      7  C   UNL d   1      52.684  30.906  53.250  0.00  0.00     0.002 A 
ATOM      8  C   UNL d   1      53.210  29.644  52.862  0.00  0.00     0.026 A 
ATOM      9  C   UNL d   1      52.930  30.399  52.665  0.00  0.00     0.002 A 
ENDROOT
BRANCH   7  10
ATOM     10  C   UNL d   1      52.407  31.659  53.042  0.00  0.00     0.003 C 
BRANCH  10  11
ATOM     11  C   UNL d   1      52.882  32.325  53.171  0.00  0.00     0.044 C 
BRANCH  11  12
ATOM     12  C   UNL d   1      52.618  33.074  52.932  0.00  0.00     0.213 C 
ATOM     13  O   UNL d   1      52.204  33.158  52.233  0.00  0.00    -0.285 OA
BRANCH  12  14
ATOM     14  C   UNL d   1      52.772  33.741  53.402  0.00  0.00     0.120 A 
ATOM     15  N   UNL d   1      53.544  33.942  53.591  0.00  0.00    -0.241 NA
ATOM     16  C   UNL d   1      53.524  34.624  54.061  0.00  0.00     0.099 A 
ATOM     17  C   UNL d   1      52.733  34.835  54.155  0.00  0.00     0.022 A 
ATOM     18  C   UNL d   1      52.272  34.299  53.756  0.00  0.00     0.024 A 
ENDBRANCH  12  14
ENDBRANCH  11  12
ENDBRANCH  10  11
ENDBRANCH   7  10
TORSDOF 4
ENDMDL
MODEL 9
REMARK VINA RESULT:      -5.9      3.980      5.043
REMARK  4 active torsions:
REMARK  status: ('A' for Active; 'I' for Inactive)
REMARK    1  A    between atoms: C_3  and  C_1 
REMARK    2  A    between atoms: C_2  and  C_3 
REMARK    3  A    between atoms: C_6  and  C_2 
REMARK    4  A    between atoms: C_16  and  C_6 
ROOT
ATOM      1  C   UNL d   1      48.132  35.099  51.712  0.00  0.00     0.119 A 
ATOM      2  C   UNL d   1      47.998  35.558  52.378  0.00  0.00     0.119 A 
ATOM      3  O   UNL d   1      47.475  35.167  51.218  0.00  0.00    -0.300 OA
ATOM      4  O   UNL d   1      47.257  35.912  52.298  0.00  0.00    -0.300 OA
ATOM      5  C   UNL d   1      46.938  35.672  51.589  0.00  0.00     0.304 A 
ATOM      6  C   UNL d   1      48.829  34.679  51.639  0.00  0.00     0.026 A 
ATOM      7  C   UNL d   1      49.402  34.717  52.236  0.00  0.00     0.002 A 
ATOM      8  C   UNL d   1      48.560  35.597  52.968  0.00  0.00     0.026 A 
ATOM      9  C   UNL d   1      49.269  35.172  52.895  0.00  0.00     0.002 A 
ENDROOT
BRANCH   7  10
ATOM     10  C   UNL d   1      50.114  34.296  52.174  0.00  0.00     0.003 C 
BRANCH  10  11
ATOM     11  C   UNL d   1      50.698  34.384  52.756  0.00  0.00     0.044 C 
BRANCH  11  12
ATOM     12  C   UNL d   1      51.452  34.058  52.638  0.00  0.00     0.213 C 
ATOM     13  O   UNL d   1      51.607  33.619  51.967  0.00  0.00    -0.285 OA
BRANCH  12  14
ATOM     14  C   UNL d   1      52.050  34.175  53.201  0.00  0.00     0.120 A 
ATOM     15  N   UNL d   1      52.185  33.614  53.783  0.00  0.00    -0.241 NA
ATOM     16  C   UNL d   1      52.809  33.881  54.258  0.00  0.00     0.099 A 
ATOM     17  C   UNL d   1      53.051  34.611  53.960  0.00  0.00     0.022 A 
ATOM     18  C   UNL d   1      52.591  34.793  53.316  0.00  0.00     0.024 A 
ENDBRANCH  12  14
ENDBRANCH  11  12
ENDBRANCH  10  11
ENDBRANCH   7  10
TORSDOF 4
ENDMDL
