MODEL 1
REMARK VINA RESULT:      61.4      0.000      0.000
REMARK  6 active torsions:
REMARK  status: ('A' for Active; 'I' for Inactive)
REMARK    1  A    between atoms: C_10  and  C_4 
REMARK    2  A    between atoms: N_12  and  C_5 
REMARK    3  A    between atoms: N_11  and  C_15 
REMARK    4  A    between atoms: C_20  and  N_12 
REMARK    5  A    between atoms: C_15  and  C_16 
REMARK    6  A    between atoms: C_16  and  C_20 
ROOT
ATOM      1  N   UNL d   1      59.818  49.567  50.411  0.00  0.00    -0.195 N 
ATOM      2  C   UNL d   1      59.119  49.603  50.846  0.00  0.00     0.167 A 
ATOM      3  N   UNL d   1      59.625  49.532  49.614  0.00  0.00    -0.163 NA
ATOM      4  C   UNL d   1      58.491  49.591  50.319  0.00  0.00     0.055 A 
ATOM      5  C   UNL d   1      60.552  49.570  50.793  0.00  0.00     0.167 A 
ATOM      6  C   UNL d   1      58.797  49.547  49.560  0.00  0.00     0.104 A 
ATOM      7  N   UNL d   1      59.146  49.643  51.667  0.00  0.00    -0.227 NA
ATOM      8  C   UNL d   1      60.576  49.610  51.626  0.00  0.00     0.058 A 
ATOM      9  C   UNL d   1      59.877  49.647  52.060  0.00  0.00     0.086 A 
ATOM     10  C   UNL d   1      58.361  49.522  48.861  0.00  0.00     0.023 C 
ATOM     11  C   UNL d   1      59.903  49.687  52.887  0.00  0.00     0.021 C 
ENDROOT
BRANCH   5  12
ATOM     12  N   UNL d   1      61.244  49.534  50.362  0.00  0.00    -0.225 NA
BRANCH  12  13
ATOM     13  C   UNL d   1      61.358  48.931  49.813  0.00  0.00     0.102 C 
BRANCH  13  14
ATOM     14  C   UNL d   1      61.497  48.152  50.070  0.00  0.00     0.040 C 
BRANCH  14  15
ATOM     15  C   UNL d   1      61.779  47.587  49.542  0.00  0.00     0.082 C 
BRANCH  15  16
ATOM     16  N   UNL d   1      61.792  46.792  49.755  0.00  0.00    -0.299 N 
ATOM     17  C   UNL d   1      61.189  46.483  50.235  0.00  0.00     0.107 A 
ATOM     18  C   UNL d   1      61.202  45.684  50.450  0.00  0.00     0.142 A 
ATOM     19  O   UNL d   1      61.818  45.195  50.185  0.00  0.00    -0.300 OA
ATOM     20  C   UNL d   1      62.414  45.504  49.709  0.00  0.00     0.142 A 
ATOM     21  C   UNL d   1      62.401  46.304  49.494  0.00  0.00     0.107 A 
ENDBRANCH  15  16
ENDBRANCH  14  15
ENDBRANCH  13  14
ENDBRANCH  12  13
ENDBRANCH   5  12
BRANCH   4  22
ATOM     22  C   UNL d   1      57.676  49.614  50.428  0.00  0.00     0.004 A 
ATOM     23  C   UNL d   1      57.359  49.640  51.189  0.00  0.00     0.000 A 
ATOM     24  C   UNL d   1      56.536  49.663  51.295  0.00  0.00     0.000 A 
ATOM     25  C   UNL d   1      56.037  49.660  50.638  0.00  0.00     0.000 A 
ATOM     26  C   UNL d   1      56.355  49.635  49.877  0.00  0.00     0.000 A 
ATOM     27  C   UNL d   1      57.170  49.612  49.768  0.00  0.00     0.000 A 
ENDBRANCH   4  22
TORSDOF 6
ENDMDL
MODEL 2
REMARK VINA RESULT:      63.7      1.003      1.914
REMARK  6 active torsions:
REMARK  status: ('A' for Active; 'I' for Inactive)
REMARK    1  A    between atoms: C_10  and  C_4 
REMARK    2  A    between atoms: N_12  and  C_5 
REMARK    3  A    between atoms: N_11  and  C_15 
REMARK    4  A    between atoms: C_20  and  N_12 
REMARK    5  A    between atoms: C_15  and  C_16 
REMARK    6  A    between atoms: C_16  and  C_20 
ROOT
ATOM      1  N   UNL d   1      59.427  49.704  51.087  0.00  0.00    -0.195 N 
ATOM      2  C   UNL d   1      58.963  49.703  50.406  0.00  0.00     0.167 A 
ATOM      3  N   UNL d   1      58.929  49.705  51.740  0.00  0.00    -0.163 NA
ATOM      4  C   UNL d   1      58.176  49.704  50.635  0.00  0.00     0.055 A 
ATOM      5  C   UNL d   1      60.252  49.704  51.034  0.00  0.00     0.167 A 
ATOM      6  C   UNL d   1      58.150  49.705  51.454  0.00  0.00     0.104 A 
ATOM      7  N   UNL d   1      59.319  49.703  49.665  0.00  0.00    -0.227 NA
ATOM      8  C   UNL d   1      60.610  49.703  50.281  0.00  0.00     0.058 A 
ATOM      9  C   UNL d   1      60.146  49.703  49.600  0.00  0.00     0.086 A 
ATOM     10  C   UNL d   1      57.468  49.705  51.919  0.00  0.00     0.023 C 
ATOM     11  C   UNL d   1      60.504  49.702  48.853  0.00  0.00     0.021 C 
ENDROOT
BRANCH   5  12
ATOM     12  N   UNL d   1      60.712  49.705  51.709  0.00  0.00    -0.225 NA
BRANCH  12  13
ATOM     13  C   UNL d   1      60.860  49.000  52.108  0.00  0.00     0.102 C 
BRANCH  13  14
ATOM     14  C   UNL d   1      61.521  48.537  51.905  0.00  0.00     0.040 C 
BRANCH  14  15
ATOM     15  C   UNL d   1      61.513  47.725  52.040  0.00  0.00     0.082 C 
BRANCH  15  16
ATOM     16  N   UNL d   1      61.306  47.208  51.433  0.00  0.00    -0.299 N 
ATOM     17  C   UNL d   1      61.841  47.059  50.816  0.00  0.00     0.107 A 
ATOM     18  C   UNL d   1      61.633  46.540  50.206  0.00  0.00     0.142 A 
ATOM     19  O   UNL d   1      60.890  46.169  50.214  0.00  0.00    -0.300 OA
ATOM     20  C   UNL d   1      60.362  46.319  50.827  0.00  0.00     0.142 A 
ATOM     21  C   UNL d   1      60.570  46.839  51.437  0.00  0.00     0.107 A 
ENDBRANCH  15  16
ENDBRANCH  14  15
ENDBRANCH  13  14
ENDBRANCH  12  13
ENDBRANCH   5  12
BRANCH   4  22
ATOM     22  C   UNL d   1      57.474  49.703  50.206  0.00  0.00     0.004 A 
ATOM     23  C   UNL d   1      57.491  49.707  49.381  0.00  0.00     0.000 A 
ATOM     24  C   UNL d   1      56.781  49.706  48.952  0.00  0.00     0.000 A 
ATOM     25  C   UNL d   1      56.059  49.703  49.352  0.00  0.00     0.000 A 
ATOM     26  C   UNL d   1      56.043  49.699  50.176  0.00  0.00     0.000 A 
ATOM     27  C   UNL d   1      56.745  49.700  50.605  0.00  0.00     0.000 A 
ENDBRANCH   4  22
TORSDOF 6
ENDMDL
