MODEL 1
REMARK VINA RESULT:      -6.7      0.000      0.000
REMARK  6 active torsions:
REMARK  status: ('A' for Active; 'I' for Inactive)
REMARK    1  A    between atoms: S_6  and  C_1 
REMARK    2  A    between atoms: C_7  and  S_6 
REMARK    3  A    between atoms: C_8  and  C_7 
REMARK    4  A    between atoms: O_14  and  C_9 
REMARK    5  A    between atoms: C_17  and  O_14 
REMARK    6  A    between atoms: C_18  and  C_17 
ROOT
ATOM      1  C   UNL d   1     -47.816  12.922  22.729  0.00  0.00     0.038 C 
ENDROOT
BRANCH   1   2
ATOM      2  S   UNL d   1     -47.839  13.748  22.720  0.00  0.00    -0.048 SA
BRANCH   2   3
ATOM      3  C   UNL d   1     -48.562  14.141  22.780  0.00  0.00     0.194 A 
ATOM      4  N   UNL d   1     -49.241  13.994  22.341  0.00  0.00    -0.220 NA
ATOM      5  C   UNL d   1     -49.835  14.534  22.600  0.00  0.00     0.101 A 
ATOM      6  C   UNL d   1     -50.615  14.636  22.355  0.00  0.00     0.021 A 
ATOM      7  C   UNL d   1     -49.526  15.011  23.193  0.00  0.00     0.101 A 
ATOM      8  C   UNL d   1     -51.063  15.203  22.703  0.00  0.00     0.002 A 
ATOM      9  C   UNL d   1     -50.754  15.679  23.296  0.00  0.00     0.002 A 
ATOM     10  C   UNL d   1     -49.996  15.590  23.543  0.00  0.00     0.021 A 
ATOM     11  N   UNL d   1     -48.736  14.774  23.311  0.00  0.00    -0.220 NA
ENDBRANCH   2   3
ENDBRANCH   1   2
BRANCH   1  12
ATOM     12  C   UNL d   1     -47.112  12.558  22.957  0.00  0.00     0.007 A 
ATOM     13  C   UNL d   1     -47.161  11.899  23.452  0.00  0.00     0.003 A 
ATOM     14  C   UNL d   1     -46.474  11.515  23.696  0.00  0.00     0.025 A 
ATOM     15  C   UNL d   1     -45.736  11.789  23.446  0.00  0.00     0.100 A 
ATOM     16  C   UNL d   1     -45.704  12.429  22.967  0.00  0.00     0.025 A 
ATOM     17  C   UNL d   1     -46.392  12.813  22.723  0.00  0.00     0.003 A 
BRANCH  15  18
ATOM     18  O   UNL d   1     -45.048  11.405  23.691  0.00  0.00    -0.305 OA
BRANCH  18  19
ATOM     19  C   UNL d   1     -44.912  10.622  23.468  0.00  0.00     0.123 C 
BRANCH  19  20
ATOM     20  C   UNL d   1     -44.142  10.328  23.445  0.00  0.00     0.027 C 
ATOM     21  C   UNL d   1     -44.001   9.525  23.599  0.00  0.00     0.002 C 
ENDBRANCH  19  20
ENDBRANCH  18  19
ENDBRANCH  15  18
ENDBRANCH   1  12
TORSDOF 6
ENDMDL
MODEL 2
REMARK VINA RESULT:      -6.4      1.378      1.773
REMARK  6 active torsions:
REMARK  status: ('A' for Active; 'I' for Inactive)
REMARK    1  A    between atoms: S_6  and  C_1 
REMARK    2  A    between atoms: C_7  and  S_6 
REMARK    3  A    between atoms: C_8  and  C_7 
REMARK    4  A    between atoms: O_14  and  C_9 
REMARK    5  A    between atoms: C_17  and  O_14 
REMARK    6  A    between atoms: C_18  and  C_17 
ROOT
ATOM      1  C   UNL d   1     -47.385  13.517  23.094  0.00  0.00     0.038 C 
ENDROOT
BRANCH   1   2
ATOM      2  S   UNL d   1     -47.758  14.106  22.653  0.00  0.00    -0.048 SA
BRANCH   2   3
ATOM      3  C   UNL d   1     -48.498  14.389  22.884  0.00  0.00     0.194 A 
ATOM      4  N   UNL d   1     -48.734  15.175  22.930  0.00  0.00    -0.220 NA
ATOM      5  C   UNL d   1     -49.535  15.187  23.191  0.00  0.00     0.101 A 
ATOM      6  C   UNL d   1     -50.046  15.818  23.334  0.00  0.00     0.021 A 
ATOM      7  C   UNL d   1     -49.793  14.416  23.306  0.00  0.00     0.101 A 
ATOM      8  C   UNL d   1     -50.793  15.666  23.583  0.00  0.00     0.002 A 
ATOM      9  C   UNL d   1     -51.051  14.896  23.698  0.00  0.00     0.002 A 
ATOM     10  C   UNL d   1     -50.563  14.273  23.563  0.00  0.00     0.021 A 
ATOM     11  N   UNL d   1     -49.156  13.914  23.117  0.00  0.00    -0.220 NA
ENDBRANCH   2   3
ENDBRANCH   1   2
BRANCH   1  12
ATOM     12  C   UNL d   1     -46.624  13.289  22.870  0.00  0.00     0.007 A 
ATOM     13  C   UNL d   1     -46.371  12.531  23.077  0.00  0.00     0.003 A 
ATOM     14  C   UNL d   1     -45.615  12.277  22.866  0.00  0.00     0.025 A 
ATOM     15  C   UNL d   1     -45.112  12.781  22.448  0.00  0.00     0.100 A 
ATOM     16  C   UNL d   1     -45.371  13.513  22.255  0.00  0.00     0.025 A 
ATOM     17  C   UNL d   1     -46.127  13.767  22.466  0.00  0.00     0.003 A 
BRANCH  15  18
ATOM     18  O   UNL d   1     -44.356  12.527  22.237  0.00  0.00    -0.305 OA
BRANCH  18  19
ATOM     19  C   UNL d   1     -43.984  12.847  21.573  0.00  0.00     0.123 C 
BRANCH  19  20
ATOM     20  C   UNL d   1     -43.214  12.620  21.383  0.00  0.00     0.027 C 
ATOM     21  C   UNL d   1     -42.679  13.182  21.088  0.00  0.00     0.002 C 
ENDBRANCH  19  20
ENDBRANCH  18  19
ENDBRANCH  15  18
ENDBRANCH   1  12
TORSDOF 6
ENDMDL
MODEL 3
REMARK VINA RESULT:      -4.4      9.522     10.470
REMARK  6 active torsions:
REMARK  status: ('A' for Active; 'I' for Inactive)
REMARK    1  A    between atoms: S_6  and  C_1 
REMARK    2  A    between atoms: C_7  and  S_6 
REMARK    3  A    between atoms: C_8  and  C_7 
REMARK    4  A    between atoms: O_14  and  C_9 
REMARK    5  A    between atoms: C_17  and  O_14 
REMARK    6  A    between atoms: C_18  and  C_17 
ROOT
ATOM      1  C   UNL d   1     -39.131  14.596  19.713  0.00  0.00     0.038 C 
ENDROOT
BRANCH   1   2
ATOM      2  S   UNL d   1     -38.581  14.146  20.134  0.00  0.00    -0.048 SA
BRANCH   2   3
ATOM      3  C   UNL d   1     -38.598  14.140  20.959  0.00  0.00     0.194 A 
ATOM      4  N   UNL d   1     -38.492  13.489  21.450  0.00  0.00    -0.220 NA
ATOM      5  C   UNL d   1     -38.557  13.756  22.247  0.00  0.00     0.101 A 
ATOM      6  C   UNL d   1     -38.499  13.346  22.959  0.00  0.00     0.021 A 
ATOM      7  C   UNL d   1     -38.703  14.564  22.249  0.00  0.00     0.101 A 
ATOM      8  C   UNL d   1     -38.586  13.747  23.648  0.00  0.00     0.002 A 
ATOM      9  C   UNL d   1     -38.731  14.555  23.651  0.00  0.00     0.002 A 
ATOM     10  C   UNL d   1     -38.790  14.965  22.964  0.00  0.00     0.021 A 
ATOM     11  N   UNL d   1     -38.730  14.811  21.454  0.00  0.00    -0.220 NA
ENDBRANCH   2   3
ENDBRANCH   1   2
BRANCH   1  12
ATOM     12  C   UNL d   1     -39.094  14.578  18.889  0.00  0.00     0.007 A 
ATOM     13  C   UNL d   1     -39.636  14.101  18.489  0.00  0.00     0.003 A 
ATOM     14  C   UNL d   1     -39.622  14.063  17.665  0.00  0.00     0.025 A 
ATOM     15  C   UNL d   1     -39.067  14.504  17.240  0.00  0.00     0.100 A 
ATOM     16  C   UNL d   1     -38.549  14.962  17.642  0.00  0.00     0.025 A 
ATOM     17  C   UNL d   1     -38.563  14.999  18.466  0.00  0.00     0.003 A 
BRANCH  15  18
ATOM     18  O   UNL d   1     -39.054  14.467  16.416  0.00  0.00    -0.305 OA
BRANCH  18  19
ATOM     19  C   UNL d   1     -38.455  14.049  16.033  0.00  0.00     0.123 C 
BRANCH  19  20
ATOM     20  C   UNL d   1     -38.386  14.088  15.211  0.00  0.00     0.027 C 
ATOM     21  C   UNL d   1     -37.940  13.519  14.806  0.00  0.00     0.002 C 
ENDBRANCH  19  20
ENDBRANCH  18  19
ENDBRANCH  15  18
ENDBRANCH   1  12
TORSDOF 6
ENDMDL
MODEL 4
REMARK VINA RESULT:      -4.3      9.013     10.156
REMARK  6 active torsions:
REMARK  status: ('A' for Active; 'I' for Inactive)
REMARK    1  A    between atoms: S_6  and  C_1 
REMARK    2  A    between atoms: C_7  and  S_6 
REMARK    3  A    between atoms: C_8  and  C_7 
REMARK    4  A    between atoms: O_14  and  C_9 
REMARK    5  A    between atoms: C_17  and  O_14 
REMARK    6  A    between atoms: C_18  and  C_17 
ROOT
ATOM      1  C   UNL d   1     -39.929  14.748  19.710  0.00  0.00     0.038 C 
ENDROOT
BRANCH   1   2
ATOM      2  S   UNL d   1     -39.192  14.391  19.817  0.00  0.00    -0.048 SA
BRANCH   2   3
ATOM      3  C   UNL d   1     -38.940  14.184  20.575  0.00  0.00     0.194 A 
ATOM      4  N   UNL d   1     -39.054  14.614  21.267  0.00  0.00    -0.220 NA
ATOM      5  C   UNL d   1     -38.699  14.181  21.897  0.00  0.00     0.101 A 
ATOM      6  C   UNL d   1     -38.646  14.349  22.703  0.00  0.00     0.021 A 
ATOM      7  C   UNL d   1     -38.370  13.491  21.599  0.00  0.00     0.101 A 
ATOM      8  C   UNL d   1     -38.271  13.830  23.185  0.00  0.00     0.002 A 
ATOM      9  C   UNL d   1     -37.941  13.139  22.887  0.00  0.00     0.002 A 
ATOM     10  C   UNL d   1     -37.986  12.965  22.106  0.00  0.00     0.021 A 
ATOM     11  N   UNL d   1     -38.515  13.484  20.779  0.00  0.00    -0.220 NA
ENDBRANCH   2   3
ENDBRANCH   1   2
BRANCH   1  12
ATOM     12  C   UNL d   1     -40.148  14.961  18.943  0.00  0.00     0.007 A 
ATOM     13  C   UNL d   1     -40.628  15.626  18.849  0.00  0.00     0.003 A 
ATOM     14  C   UNL d   1     -40.862  15.862  18.094  0.00  0.00     0.025 A 
ATOM     15  C   UNL d   1     -40.616  15.433  17.433  0.00  0.00     0.100 A 
ATOM     16  C   UNL d   1     -40.151  14.791  17.540  0.00  0.00     0.025 A 
ATOM     17  C   UNL d   1     -39.917  14.555  18.295  0.00  0.00     0.003 A 
BRANCH  15  18
ATOM     18  O   UNL d   1     -40.850  15.669  16.678  0.00  0.00    -0.305 OA
BRANCH  18  19
ATOM     19  C   UNL d   1     -41.624  15.922  16.547  0.00  0.00     0.123 C 
BRANCH  19  20
ATOM     20  C   UNL d   1     -41.936  15.916  15.783  0.00  0.00     0.027 C 
ATOM     21  C   UNL d   1     -42.726  15.696  15.660  0.00  0.00     0.002 C 
ENDBRANCH  19  20
ENDBRANCH  18  19
ENDBRANCH  15  18
ENDBRANCH   1  12
TORSDOF 6
ENDMDL
MODEL 5
REMARK VINA RESULT:      -4.2      9.211     10.524
REMARK  6 active torsions:
REMARK  status: ('A' for Active; 'I' for Inactive)
REMARK    1  A    between atoms: S_6  and  C_1 
REMARK    2  A    between atoms: C_7  and  S_6 
REMARK    3  A    between atoms: C_8  and  C_7 
REMARK    4  A    between atoms: O_14  and  C_9 
REMARK    5  A    between atoms: C_17  and  O_14 
REMARK    6  A    between atoms: C_18  and  C_17 
ROOT
ATOM      1  C   UNL d   1     -39.558  14.837  17.643  0.00  0.00     0.038 C 
ENDROOT
BRANCH   1   2
ATOM      2  S   UNL d   1     -39.534  14.382  18.332  0.00  0.00    -0.048 SA
BRANCH   2   3
ATOM      3  C   UNL d   1     -39.800  14.700  19.045  0.00  0.00     0.194 A 
ATOM      4  N   UNL d   1     -40.573  14.906  19.236  0.00  0.00    -0.220 NA
ATOM      5  C   UNL d   1     -40.570  15.206  20.024  0.00  0.00     0.101 A 
ATOM      6  C   UNL d   1     -41.185  15.491  20.493  0.00  0.00     0.021 A 
ATOM      7  C   UNL d   1     -39.804  15.186  20.318  0.00  0.00     0.101 A 
ATOM      8  C   UNL d   1     -41.022  15.746  21.236  0.00  0.00     0.002 A 
ATOM      9  C   UNL d   1     -40.256  15.725  21.530  0.00  0.00     0.002 A 
ATOM     10  C   UNL d   1     -39.650  15.450  21.083  0.00  0.00     0.021 A 
ATOM     11  N   UNL d   1     -39.319  14.873  19.717  0.00  0.00    -0.220 NA
ENDBRANCH   2   3
ENDBRANCH   1   2
BRANCH   1  12
ATOM     12  C   UNL d   1     -39.156  14.555  16.979  0.00  0.00     0.007 A 
ATOM     13  C   UNL d   1     -38.861  15.108  16.443  0.00  0.00     0.003 A 
ATOM     14  C   UNL d   1     -38.455  14.854  15.771  0.00  0.00     0.025 A 
ATOM     15  C   UNL d   1     -38.345  14.047  15.635  0.00  0.00     0.100 A 
ATOM     16  C   UNL d   1     -38.637  13.523  16.164  0.00  0.00     0.025 A 
ATOM     17  C   UNL d   1     -39.042  13.776  16.836  0.00  0.00     0.003 A 
BRANCH  15  18
ATOM     18  O   UNL d   1     -37.940  13.793  14.963  0.00  0.00    -0.305 OA
BRANCH  18  19
ATOM     19  C   UNL d   1     -38.345  13.690  14.252  0.00  0.00     0.123 C 
BRANCH  19  20
ATOM     20  C   UNL d   1     -37.944  13.416  13.585  0.00  0.00     0.027 C 
ATOM     21  C   UNL d   1     -37.940  12.606  13.409  0.00  0.00     0.002 C 
ENDBRANCH  19  20
ENDBRANCH  18  19
ENDBRANCH  15  18
ENDBRANCH   1  12
TORSDOF 6
ENDMDL
MODEL 6
REMARK VINA RESULT:      -4.1      9.387     10.871
REMARK  6 active torsions:
REMARK  status: ('A' for Active; 'I' for Inactive)
REMARK    1  A    between atoms: S_6  and  C_1 
REMARK    2  A    between atoms: C_7  and  S_6 
REMARK    3  A    between atoms: C_8  and  C_7 
REMARK    4  A    between atoms: O_14  and  C_9 
REMARK    5  A    between atoms: C_17  and  O_14 
REMARK    6  A    between atoms: C_18  and  C_17 
ROOT
ATOM      1  C   UNL d   1     -38.733  14.000  18.882  0.00  0.00     0.038 C 
ENDROOT
BRANCH   1   2
ATOM      2  S   UNL d   1     -38.678  14.681  18.418  0.00  0.00    -0.048 SA
BRANCH   2   3
ATOM      3  C   UNL d   1     -38.526  14.618  17.610  0.00  0.00     0.194 A 
ATOM      4  N   UNL d   1     -38.570  13.937  17.151  0.00  0.00    -0.220 NA
ATOM      5  C   UNL d   1     -38.366  14.147  16.361  0.00  0.00     0.101 A 
ATOM      6  C   UNL d   1     -38.319  13.689  15.677  0.00  0.00     0.021 A 
ATOM      7  C   UNL d   1     -38.198  14.950  16.330  0.00  0.00     0.101 A 
ATOM      8  C   UNL d   1     -38.108  14.040  14.987  0.00  0.00     0.002 A 
ATOM      9  C   UNL d   1     -37.940  14.843  14.956  0.00  0.00     0.002 A 
ATOM     10  C   UNL d   1     -37.983  15.298  15.615  0.00  0.00     0.021 A 
ATOM     11  N   UNL d   1     -38.295  15.250  17.101  0.00  0.00    -0.220 NA
ENDBRANCH   2   3
ENDBRANCH   1   2
BRANCH   1  12
ATOM     12  C   UNL d   1     -38.799  14.094  19.700  0.00  0.00     0.007 A 
ATOM     13  C   UNL d   1     -38.201  13.780  20.174  0.00  0.00     0.003 A 
ATOM     14  C   UNL d   1     -38.242  13.859  20.994  0.00  0.00     0.025 A 
ATOM     15  C   UNL d   1     -38.880  14.252  21.340  0.00  0.00     0.100 A 
ATOM     16  C   UNL d   1     -39.452  14.552  20.868  0.00  0.00     0.025 A 
ATOM     17  C   UNL d   1     -39.411  14.473  20.048  0.00  0.00     0.003 A 
BRANCH  15  18
ATOM     18  O   UNL d   1     -38.920  14.331  22.160  0.00  0.00    -0.305 OA
BRANCH  18  19
ATOM     19  C   UNL d   1     -38.603  15.000  22.526  0.00  0.00     0.123 C 
BRANCH  19  20
ATOM     20  C   UNL d   1     -38.663  15.089  23.344  0.00  0.00     0.027 C 
ATOM     21  C   UNL d   1     -38.694  15.849  23.675  0.00  0.00     0.002 C 
ENDBRANCH  19  20
ENDBRANCH  18  19
ENDBRANCH  15  18
ENDBRANCH   1  12
TORSDOF 6
ENDMDL
