MODEL 1
REMARK VINA RESULT:      -3.7      0.000      0.000
REMARK  2 active torsions:
REMARK  status: ('A' for Active; 'I' for Inactive)
REMARK       I    between atoms: C_3  and  N_1 
REMARK    1  A    between atoms: C_7  and  C_3 
REMARK    2  A    between atoms: O_15  and  C_11 
ROOT
ATOM      1  N   UNL d   1      56.162   0.425  33.738  0.00  0.00    -0.195 N 
ATOM      2  N   UNL d   1      55.445   0.392  33.315  0.00  0.00    -0.163 NA
ATOM      3  C   UNL d   1      56.923   0.305  33.451  0.00  0.00     0.280 C 
ATOM      4  C   UNL d   1      56.009   0.597  34.492  0.00  0.00     0.088 A 
ATOM      5  C   UNL d   1      55.186   0.682  34.588  0.00  0.00     0.040 A 
ATOM      6  C   UNL d   1      54.845   0.554  33.858  0.00  0.00     0.103 A 
ATOM      7  O   UNL d   1      57.555   0.364  33.960  0.00  0.00    -0.265 OA
ATOM      8  C   UNL d   1      56.591   0.682  35.106  0.00  0.00     0.021 C 
ATOM      9  C   UNL d   1      54.018   0.585  33.703  0.00  0.00     0.022 C 
ENDROOT
BRANCH   3  10
ATOM     10  C   UNL d   1      57.062   0.125  32.650  0.00  0.00     0.058 A 
ATOM     11  C   UNL d   1      57.427   0.682  32.164  0.00  0.00     0.007 A 
ATOM     12  C   UNL d   1      57.569   0.516  31.372  0.00  0.00     0.024 A 
ATOM     13  C   UNL d   1      57.347  -0.210  31.062  0.00  0.00     0.094 A 
ATOM     14  C   UNL d   1      56.981  -0.773  31.542  0.00  0.00     0.024 A 
ATOM     15  C   UNL d   1      56.835  -0.617  32.333  0.00  0.00     0.007 A 
BRANCH  13  16
ATOM     16  O   UNL d   1      57.498  -0.366  30.257  0.00  0.00    -0.328 OA
ATOM     17  C   UNL d   1      58.108  -0.896  30.040  0.00  0.00     0.181 C 
ENDBRANCH  13  16
ENDBRANCH   3  10
TORSDOF 2
ENDMDL
MODEL 2
REMARK VINA RESULT:      -3.1      9.320      9.923
REMARK  2 active torsions:
REMARK  status: ('A' for Active; 'I' for Inactive)
REMARK       I    between atoms: C_3  and  N_1 
REMARK    1  A    between atoms: C_7  and  C_3 
REMARK    2  A    between atoms: O_15  and  C_11 
ROOT
ATOM      1  N   UNL d   1      59.634  -8.573  35.249  0.00  0.00    -0.195 N 
ATOM      2  N   UNL d   1      60.133  -7.933  35.062  0.00  0.00    -0.163 NA
ATOM      3  C   UNL d   1      59.500  -9.254  34.808  0.00  0.00     0.280 C 
ATOM      4  C   UNL d   1      59.286  -8.435  35.943  0.00  0.00     0.088 A 
ATOM      5  C   UNL d   1      59.546  -7.699  36.233  0.00  0.00     0.040 A 
ATOM      6  C   UNL d   1      60.068  -7.396  35.685  0.00  0.00     0.103 A 
ATOM      7  O   UNL d   1      58.985  -9.818  35.092  0.00  0.00    -0.265 OA
ATOM      8  C   UNL d   1      58.735  -8.954  36.330  0.00  0.00     0.021 C 
ATOM      9  C   UNL d   1      60.466  -6.656  35.758  0.00  0.00     0.022 C 
ENDROOT
BRANCH   3  10
ATOM     10  C   UNL d   1      59.878  -9.380  34.077  0.00  0.00     0.058 A 
ATOM     11  C   UNL d   1      60.688  -9.531  34.058  0.00  0.00     0.007 A 
ATOM     12  C   UNL d   1      61.072  -9.657  33.343  0.00  0.00     0.024 A 
ATOM     13  C   UNL d   1      60.647  -9.632  32.642  0.00  0.00     0.094 A 
ATOM     14  C   UNL d   1      59.836  -9.481  32.652  0.00  0.00     0.024 A 
ATOM     15  C   UNL d   1      59.444  -9.354  33.360  0.00  0.00     0.007 A 
BRANCH  13  16
ATOM     16  O   UNL d   1      61.050  -9.762  31.923  0.00  0.00    -0.328 OA
ATOM     17  C   UNL d   1      60.627  -9.765  31.201  0.00  0.00     0.181 C 
ENDBRANCH  13  16
ENDBRANCH   3  10
TORSDOF 2
ENDMDL
MODEL 3
REMARK VINA RESULT:      -3.0      2.019      4.456
REMARK  2 active torsions:
REMARK  status: ('A' for Active; 'I' for Inactive)
REMARK       I    between atoms: C_3  and  N_1 
REMARK    1  A    between atoms: C_7  and  C_3 
REMARK    2  A    between atoms: O_15  and  C_11 
ROOT
ATOM      1  N   UNL d   1      58.258  -0.616  29.776  0.00  0.00    -0.195 N 
ATOM      2  N   UNL d   1      58.455  -1.366  30.081  0.00  0.00    -0.163 NA
ATOM      3  C   UNL d   1      57.832  -0.018  30.144  0.00  0.00     0.280 C 
ATOM      4  C   UNL d   1      58.550  -0.550  29.046  0.00  0.00     0.088 A 
ATOM      5  C   UNL d   1      58.948  -1.254  28.850  0.00  0.00     0.040 A 
ATOM      6  C   UNL d   1      58.885  -1.753  29.492  0.00  0.00     0.103 A 
ATOM      7  O   UNL d   1      57.699   0.680  29.747  0.00  0.00    -0.265 OA
ATOM      8  C   UNL d   1      58.471   0.132  28.544  0.00  0.00     0.021 C 
ATOM      9  C   UNL d   1      59.210  -2.529  29.531  0.00  0.00     0.022 C 
ENDROOT
BRANCH   3  10
ATOM     10  C   UNL d   1      57.532  -0.109  30.916  0.00  0.00     0.058 A 
ATOM     11  C   UNL d   1      57.807   0.379  31.520  0.00  0.00     0.007 A 
ATOM     12  C   UNL d   1      57.519   0.298  32.285  0.00  0.00     0.024 A 
ATOM     13  C   UNL d   1      56.953  -0.272  32.450  0.00  0.00     0.094 A 
ATOM     14  C   UNL d   1      56.673  -0.765  31.850  0.00  0.00     0.024 A 
ATOM     15  C   UNL d   1      56.954  -0.692  31.084  0.00  0.00     0.007 A 
BRANCH  13  16
ATOM     16  O   UNL d   1      56.669  -0.343  33.231  0.00  0.00    -0.328 OA
ATOM     17  C   UNL d   1      55.920  -0.686  33.374  0.00  0.00     0.181 C 
ENDBRANCH  13  16
ENDBRANCH   3  10
TORSDOF 2
ENDMDL
MODEL 4
REMARK VINA RESULT:      -2.4      3.874      5.906
REMARK  2 active torsions:
REMARK  status: ('A' for Active; 'I' for Inactive)
REMARK       I    between atoms: C_3  and  N_1 
REMARK    1  A    between atoms: C_7  and  C_3 
REMARK    2  A    between atoms: O_15  and  C_11 
ROOT
ATOM      1  N   UNL d   1      59.589  -2.758  28.761  0.00  0.00    -0.195 N 
ATOM      2  N   UNL d   1      58.804  -3.034  28.729  0.00  0.00    -0.163 NA
ATOM      3  C   UNL d   1      59.849  -1.995  28.920  0.00  0.00     0.280 C 
ATOM      4  C   UNL d   1      60.080  -3.357  28.613  0.00  0.00     0.088 A 
ATOM      5  C   UNL d   1      59.631  -4.046  28.477  0.00  0.00     0.040 A 
ATOM      6  C   UNL d   1      58.846  -3.839  28.550  0.00  0.00     0.103 A 
ATOM      7  O   UNL d   1      60.648  -1.839  28.926  0.00  0.00    -0.265 OA
ATOM      8  C   UNL d   1      60.928  -3.306  28.594  0.00  0.00     0.021 C 
ATOM      9  C   UNL d   1      58.198  -4.370  28.457  0.00  0.00     0.022 C 
ENDROOT
BRANCH   3  10
ATOM     10  C   UNL d   1      59.313  -1.376  29.075  0.00  0.00     0.058 A 
ATOM     11  C   UNL d   1      59.159  -0.816  28.491  0.00  0.00     0.007 A 
ATOM     12  C   UNL d   1      58.632  -0.201  28.631  0.00  0.00     0.024 A 
ATOM     13  C   UNL d   1      58.257  -0.144  29.358  0.00  0.00     0.094 A 
ATOM     14  C   UNL d   1      58.406  -0.702  29.948  0.00  0.00     0.024 A 
ATOM     15  C   UNL d   1      58.929  -1.318  29.817  0.00  0.00     0.007 A 
BRANCH  13  16
ATOM     16  O   UNL d   1      57.724   0.485  29.488  0.00  0.00    -0.328 OA
ATOM     17  C   UNL d   1      57.489   0.681  30.266  0.00  0.00     0.181 C 
ENDBRANCH  13  16
ENDBRANCH   3  10
TORSDOF 2
ENDMDL
