MODEL 1
REMARK VINA RESULT:      38.4      0.000      0.000
REMARK  3 active torsions:
REMARK  status: ('A' for Active; 'I' for Inactive)
REMARK       I    between atoms: C_2  and  N_1 
REMARK    1  A    between atoms: C_4  and  C_2 
REMARK    2  A    between atoms: C_6  and  C_4 
REMARK    3  A    between atoms: C_10  and  C_6 
ROOT
ATOM      1  N   UNL d   1     -51.359  25.069  33.317  0.00  0.00    -0.273 N 
ATOM      2  C   UNL d   1     -51.363  25.886  33.314  0.00  0.00     0.265 C 
ATOM      3  C   UNL d   1     -52.020  24.589  33.326  0.00  0.00     0.067 A 
ATOM      4  C   UNL d   1     -50.690  24.591  33.313  0.00  0.00     0.083 A 
ATOM      5  C   UNL d   1     -51.766  23.804  33.326  0.00  0.00     0.018 A 
ATOM      6  O   UNL d   1     -52.076  26.297  33.319  0.00  0.00    -0.267 OA
ATOM      7  C   UNL d   1     -50.944  23.801  33.319  0.00  0.00     0.021 A 
ATOM      8  C   UNL d   1     -52.830  24.759  33.332  0.00  0.00     0.018 A 
ATOM      9  C   UNL d   1     -52.319  23.189  33.334  0.00  0.00     0.002 A 
ATOM     10  C   UNL d   1     -53.378  24.144  33.340  0.00  0.00     0.002 A 
ATOM     11  C   UNL d   1     -53.126  23.357  33.341  0.00  0.00     0.000 A 
ENDROOT
BRANCH   2  12
ATOM     12  C   UNL d   1     -50.653  26.303  33.306  0.00  0.00     0.061 C 
BRANCH  12  13
ATOM     13  C   UNL d   1     -50.651  27.126  33.340  0.00  0.00     0.005 C 
BRANCH  13  14
ATOM     14  C   UNL d   1     -50.050  27.514  33.740  0.00  0.00     0.002 A 
ATOM     15  C   UNL d   1     -49.511  27.085  34.193  0.00  0.00     0.030 A 
ATOM     16  C   UNL d   1     -48.902  27.474  34.599  0.00  0.00     0.140 A 
ATOM     17  F   UNL d   1     -48.366  27.045  35.049  0.00  0.00    -0.204 F 
ATOM     18  C   UNL d   1     -48.837  28.298  34.550  0.00  0.00     0.030 A 
ATOM     19  C   UNL d   1     -49.379  28.727  34.095  0.00  0.00     0.002 A 
ATOM     20  C   UNL d   1     -49.984  28.338  33.691  0.00  0.00     0.000 A 
ENDBRANCH  13  14
ENDBRANCH  12  13
ENDBRANCH   2  12
TORSDOF 3
ENDMDL
