MODEL 1
REMARK VINA RESULT:      -3.1      0.000      0.000
REMARK  2 active torsions:
REMARK  status: ('A' for Active; 'I' for Inactive)
REMARK    1  A    between atoms: C_6  and  N_1 
REMARK    2  A    between atoms: C_7  and  C_6 
ROOT
ATOM      1  N   UNL d   1      30.061  16.472 -24.147  0.00  0.00    -0.236 N 
ATOM      2  C   UNL d   1      30.302  17.170 -24.485  0.00  0.00     0.267 A 
ATOM      3  C   UNL d   1      30.668  16.170 -23.706  0.00  0.00     0.267 A 
ATOM      4  C   UNL d   1      31.074  17.307 -24.252  0.00  0.00     0.061 A 
ATOM      5  C   UNL d   1      31.302  16.682 -23.766  0.00  0.00     0.061 A 
ATOM      6  O   UNL d   1      29.850  17.670 -24.985  0.00  0.00    -0.267 OA
ATOM      7  O   UNL d   1      30.660  15.454 -23.261  0.00  0.00    -0.267 OA
ATOM      8  C   UNL d   1      32.062  16.674 -23.446  0.00  0.00     0.005 A 
ATOM      9  C   UNL d   1      31.609  17.914 -24.411  0.00  0.00     0.005 A 
ATOM     10  C   UNL d   1      32.373  17.908 -24.091  0.00  0.00     0.000 A 
ATOM     11  C   UNL d   1      32.601  17.283 -23.605  0.00  0.00     0.000 A 
ENDROOT
BRANCH   1  12
ATOM     12  C   UNL d   1      29.304  16.144 -24.255  0.00  0.00     0.134 C 
ATOM     13  C   UNL d   1      29.117  15.683 -24.896  0.00  0.00     0.026 C 
BRANCH  12  14
ATOM     14  C   UNL d   1      28.722  16.299 -23.675  0.00  0.00     0.228 C 
ATOM     15  O   UNL d   1      28.602  15.755 -23.052  0.00  0.00    -0.643 OA
ATOM     16  O   UNL d   1      28.264  16.990 -23.715  0.00  0.00    -0.643 OA
ENDBRANCH  12  14
ENDBRANCH   1  12
TORSDOF 2
ENDMDL
MODEL 2
REMARK VINA RESULT:      -3.1      1.161      2.847
REMARK  2 active torsions:
REMARK  status: ('A' for Active; 'I' for Inactive)
REMARK    1  A    between atoms: C_6  and  N_1 
REMARK    2  A    between atoms: C_7  and  C_6 
ROOT
ATOM      1  N   UNL d   1      30.996  16.667 -24.063  0.00  0.00    -0.236 N 
ATOM      2  C   UNL d   1      30.305  17.003 -24.323  0.00  0.00     0.267 A 
ATOM      3  C   UNL d   1      30.820  16.048 -23.572  0.00  0.00     0.267 A 
ATOM      4  C   UNL d   1      29.684  16.589 -23.989  0.00  0.00     0.061 A 
ATOM      5  C   UNL d   1      30.006  15.992 -23.521  0.00  0.00     0.061 A 
ATOM      6  O   UNL d   1      30.228  17.659 -24.841  0.00  0.00    -0.267 OA
ATOM      7  O   UNL d   1      31.369  15.544 -23.179  0.00  0.00    -0.267 OA
ATOM      8  C   UNL d   1      29.503  15.481 -23.112  0.00  0.00     0.005 A 
ATOM      9  C   UNL d   1      28.864  16.666 -24.042  0.00  0.00     0.005 A 
ATOM     10  C   UNL d   1      28.358  16.154 -23.633  0.00  0.00     0.000 A 
ATOM     11  C   UNL d   1      28.680  15.557 -23.164  0.00  0.00     0.000 A 
ENDROOT
BRANCH   1  12
ATOM     12  C   UNL d   1      31.753  16.936 -24.283  0.00  0.00     0.134 C 
ATOM     13  C   UNL d   1      32.126  16.679 -24.956  0.00  0.00     0.026 C 
BRANCH  12  14
ATOM     14  C   UNL d   1      32.133  17.490 -23.786  0.00  0.00     0.228 C 
ATOM     15  O   UNL d   1      32.031  18.308 -23.923  0.00  0.00    -0.643 OA
ATOM     16  O   UNL d   1      32.609  17.232 -23.157  0.00  0.00    -0.643 OA
ENDBRANCH  12  14
ENDBRANCH   1  12
TORSDOF 2
ENDMDL
MODEL 3
REMARK VINA RESULT:      -3.1      1.157      3.138
REMARK  2 active torsions:
REMARK  status: ('A' for Active; 'I' for Inactive)
REMARK    1  A    between atoms: C_6  and  N_1 
REMARK    2  A    between atoms: C_7  and  C_6 
ROOT
ATOM      1  N   UNL d   1      30.977  16.686 -24.091  0.00  0.00    -0.236 N 
ATOM      2  C   UNL d   1      30.827  16.070 -23.584  0.00  0.00     0.267 A 
ATOM      3  C   UNL d   1      30.273  16.997 -24.341  0.00  0.00     0.267 A 
ATOM      4  C   UNL d   1      30.017  15.993 -23.515  0.00  0.00     0.061 A 
ATOM      5  C   UNL d   1      29.670  16.573 -23.988  0.00  0.00     0.061 A 
ATOM      6  O   UNL d   1      31.396  15.591 -23.194  0.00  0.00    -0.267 OA
ATOM      7  O   UNL d   1      30.167  17.644 -24.871  0.00  0.00    -0.267 OA
ATOM      8  C   UNL d   1      28.848  16.627 -24.026  0.00  0.00     0.005 A 
ATOM      9  C   UNL d   1      29.536  15.477 -23.088  0.00  0.00     0.005 A 
ATOM     10  C   UNL d   1      28.710  15.530 -23.125  0.00  0.00     0.000 A 
ATOM     11  C   UNL d   1      28.364  16.109 -23.598  0.00  0.00     0.000 A 
ENDROOT
BRANCH   1  12
ATOM     12  C   UNL d   1      31.742  16.937 -24.302  0.00  0.00     0.134 C 
ATOM     13  C   UNL d   1      32.167  16.581 -24.895  0.00  0.00     0.026 C 
BRANCH  12  14
ATOM     14  C   UNL d   1      32.075  17.579 -23.883  0.00  0.00     0.228 C 
ATOM     15  O   UNL d   1      32.045  18.347 -24.211  0.00  0.00    -0.643 OA
ATOM     16  O   UNL d   1      32.433  17.457 -23.145  0.00  0.00    -0.643 OA
ENDBRANCH  12  14
ENDBRANCH   1  12
TORSDOF 2
ENDMDL
MODEL 4
REMARK VINA RESULT:      -2.1      1.944      2.796
REMARK  2 active torsions:
REMARK  status: ('A' for Active; 'I' for Inactive)
REMARK    1  A    between atoms: C_6  and  N_1 
REMARK    2  A    between atoms: C_7  and  C_6 
ROOT
ATOM      1  N   UNL d   1      32.594  17.428 -23.997  0.00  0.00    -0.236 N 
ATOM      2  C   UNL d   1      32.444  18.192 -24.226  0.00  0.00     0.267 A 
ATOM      3  C   UNL d   1      32.913  17.436 -23.254  0.00  0.00     0.267 A 
ATOM      4  C   UNL d   1      32.672  18.687 -23.617  0.00  0.00     0.061 A 
ATOM      5  C   UNL d   1      32.966  18.214 -23.010  0.00  0.00     0.061 A 
ATOM      6  O   UNL d   1      32.112  18.442 -24.957  0.00  0.00    -0.267 OA
ATOM      7  O   UNL d   1      33.153  16.766 -22.802  0.00  0.00    -0.267 OA
ATOM      8  C   UNL d   1      33.240  18.568 -22.317  0.00  0.00     0.005 A 
ATOM      9  C   UNL d   1      32.658  19.506 -23.524  0.00  0.00     0.005 A 
ATOM     10  C   UNL d   1      32.933  19.863 -22.829  0.00  0.00     0.000 A 
ATOM     11  C   UNL d   1      33.226  19.390 -22.221  0.00  0.00     0.000 A 
ENDROOT
BRANCH   1  12
ATOM     12  C   UNL d   1      32.435  16.763 -24.471  0.00  0.00     0.134 C 
ATOM     13  C   UNL d   1      32.976  16.465 -24.997  0.00  0.00     0.026 C 
BRANCH  12  14
ATOM     14  C   UNL d   1      31.688  16.395 -24.394  0.00  0.00     0.228 C 
ATOM     15  O   UNL d   1      31.042  16.673 -24.845  0.00  0.00    -0.643 OA
ATOM     16  O   UNL d   1      31.586  15.757 -23.873  0.00  0.00    -0.643 OA
ENDBRANCH  12  14
ENDBRANCH   1  12
TORSDOF 2
ENDMDL
