MODEL 1
REMARK VINA RESULT:      28.8      0.000      0.000
REMARK  3 active torsions:
REMARK  status: ('A' for Active; 'I' for Inactive)
REMARK    1  A    between atoms: C_4  and  C_1 
REMARK    2  A    between atoms: N_7  and  C_4 
REMARK    3  A    between atoms: C_9  and  N_7 
ROOT
ATOM      1  C   UNL d   1     -56.342 -98.975 -44.706  0.00  0.00     0.159 C 
ATOM      2  S   UNL d   1     -56.187 -98.756 -45.487  0.00  0.00    -0.055 SA
ENDROOT
BRANCH   1   3
ATOM      3  C   UNL d   1     -57.112 -98.928 -44.414  0.00  0.00     0.139 A 
ATOM      4  N   UNL d   1     -57.802 -98.936 -44.870  0.00  0.00    -0.236 NA
ATOM      5  C   UNL d   1     -58.447 -98.878 -44.355  0.00  0.00     0.088 A 
ATOM      6  C   UNL d   1     -59.262 -98.859 -44.483  0.00  0.00     0.020 A 
ATOM      7  C   UNL d   1     -58.150 -98.836 -43.582  0.00  0.00     0.049 A 
ATOM      8  C   UNL d   1     -59.778 -98.798 -43.849  0.00  0.00     0.002 A 
ATOM      9  C   UNL d   1     -59.481 -98.755 -43.076  0.00  0.00     0.001 A 
ATOM     10  C   UNL d   1     -58.673 -98.774 -42.944  0.00  0.00     0.008 A 
ATOM     11  S   UNL d   1     -57.324 -98.867 -43.625  0.00  0.00    -0.064 SA
ENDBRANCH   1   3
BRANCH   1  12
ATOM     12  N   UNL d   1     -55.734 -99.238 -44.220  0.00  0.00    -0.233 NA
BRANCH  12  13
ATOM     13  C   UNL d   1     -55.478-100.025 -44.268  0.00  0.00     0.082 A 
ATOM     14  C   UNL d   1     -55.586-100.533 -43.630  0.00  0.00     0.020 A 
ATOM     15  C   UNL d   1     -55.335-101.314 -43.670  0.00  0.00     0.013 A 
ATOM     16  C   UNL d   1     -54.969-101.587 -44.365  0.00  0.00     0.058 A 
ATOM     17  C   UNL d   1     -54.859-101.080 -45.007  0.00  0.00     0.013 A 
ATOM     18 CL   UNL d   1     -54.715-102.367 -44.413  0.00  0.00    -0.082 Cl
ATOM     19  C   UNL d   1     -55.117-100.298 -44.951  0.00  0.00     0.020 A 
ENDBRANCH  12  13
ENDBRANCH   1  12
TORSDOF 3
ENDMDL
