MODEL 1
REMARK VINA RESULT:      -0.0      0.000      0.000
REMARK  7 active torsions:
REMARK  status: ('A' for Active; 'I' for Inactive)
REMARK    1  A    between atoms: C_17  and  N_1 
REMARK       I    between atoms: C_4  and  N_7 
REMARK    2  A    between atoms: C_8  and  C_4 
REMARK    3  A    between atoms: N_7  and  C_26 
REMARK    4  A    between atoms: C_9  and  N_7 
REMARK    5  A    between atoms: C_27  and  C_17 
REMARK    6  A    between atoms: C_26  and  C_28 
REMARK    7  A    between atoms: C_28  and  C_27 
ROOT
ATOM      1  C   UNL d   1      32.989  21.733 -22.818  0.00  0.00     0.287 C 
ATOM      2  N   UNL d   1      32.961  21.121 -22.263  0.00  0.00    -0.272 N 
ATOM      3  O   UNL d   1      33.238  21.584 -23.575  0.00  0.00    -0.264 OA
ENDROOT
BRANCH   2   4
ATOM      4  C   UNL d   1      33.183  20.374 -22.480  0.00  0.00     0.083 C 
BRANCH   4   5
ATOM      5  C   UNL d   1      32.691  19.920 -22.971  0.00  0.00     0.021 C 
BRANCH   5   6
ATOM      6  C   UNL d   1      32.603  19.123 -22.834  0.00  0.00     0.021 C 
BRANCH   6   7
ATOM      7  C   UNL d   1      32.834  18.585 -23.415  0.00  0.00     0.086 C 
BRANCH   7   8
ATOM      8  N   UNL d   1      32.343  17.927 -23.586  0.00  0.00    -0.240 N 
ATOM      9  C   UNL d   1      32.361  17.231 -23.211  0.00  0.00     0.267 A 
ATOM     10  C   UNL d   1      31.795  16.741 -23.544  0.00  0.00     0.061 A 
ATOM     11  O   UNL d   1      32.882  17.011 -22.561  0.00  0.00    -0.267 OA
ATOM     12  C   UNL d   1      31.571  15.976 -23.384  0.00  0.00     0.005 A 
ATOM     13  C   UNL d   1      31.421  17.178 -24.153  0.00  0.00     0.061 A 
ATOM     14  C   UNL d   1      30.964  15.628 -23.832  0.00  0.00     0.000 A 
ATOM     15  C   UNL d   1      30.590  16.065 -24.441  0.00  0.00     0.000 A 
ATOM     16  C   UNL d   1      30.830  16.841 -24.590  0.00  0.00     0.005 A 
ATOM     17  C   UNL d   1      31.773  17.918 -24.169  0.00  0.00     0.267 A 
ATOM     18  O   UNL d   1      31.564  18.550 -24.707  0.00  0.00    -0.267 OA
ENDBRANCH   7   8
ENDBRANCH   6   7
ENDBRANCH   5   6
ENDBRANCH   4   5
ENDBRANCH   2   4
BRANCH   2  19
ATOM     19  C   UNL d   1      32.709  21.264 -21.488  0.00  0.00     0.067 A 
ATOM     20  C   UNL d   1      31.930  21.102 -21.261  0.00  0.00     0.018 A 
ATOM     21  C   UNL d   1      31.678  21.245 -20.486  0.00  0.00     0.013 A 
ATOM     22  C   UNL d   1      32.204  21.550 -19.938  0.00  0.00     0.058 A 
ATOM     23  C   UNL d   1      32.981  21.710 -20.169  0.00  0.00     0.013 A 
ATOM     24 CL   UNL d   1      31.949  21.691 -19.166  0.00  0.00    -0.082 Cl
ATOM     25  C   UNL d   1      33.236  21.569 -20.941  0.00  0.00     0.018 A 
ENDBRANCH   2  19
BRANCH   1  26
ATOM     26  C   UNL d   1      32.764  22.490 -22.599  0.00  0.00     0.156 A 
ATOM     27  O   UNL d   1      33.001  23.001 -21.994  0.00  0.00    -0.300 OA
ATOM     28  C   UNL d   1      32.573  23.700 -22.049  0.00  0.00     0.123 A 
ATOM     29  C   UNL d   1      32.086  23.628 -22.667  0.00  0.00     0.029 A 
ATOM     30  C   UNL d   1      32.182  22.881 -23.033  0.00  0.00     0.032 A 
ENDBRANCH   1  26
TORSDOF 7
ENDMDL
