MODEL 1
REMARK VINA RESULT:       8.0      0.000      0.000
REMARK  7 active torsions:
REMARK  status: ('A' for Active; 'I' for Inactive)
REMARK    1  A    between atoms: C_6  and  N_2 
REMARK    2  A    between atoms: C_7  and  C_3 
REMARK    3  A    between atoms: C_8  and  C_6 
REMARK    4  A    between atoms: O_13  and  C_7 
REMARK    5  A    between atoms: C_14  and  C_8 
REMARK    6  A    between atoms: C_9  and  O_12 
REMARK    7  A    between atoms: O_12  and  C_14 
ROOT
ATOM      1  N   UNL d   1      46.493 -19.810  43.211  0.00  0.00    -0.225 NA
ATOM      2  N   UNL d   1      46.489 -18.487  43.547  0.00  0.00    -0.287 N 
ATOM      3  C   UNL d   1      46.460 -19.271  43.859  0.00  0.00     0.172 A 
ATOM      4  C   UNL d   1      46.540 -18.532  42.717  0.00  0.00     0.083 A 
ATOM      5  C   UNL d   1      46.542 -19.350  42.509  0.00  0.00     0.099 A 
ATOM      6  C   UNL d   1      46.584 -17.958  42.123  0.00  0.00     0.019 A 
ATOM      7  C   UNL d   1      46.589 -19.574  41.712  0.00  0.00     0.021 A 
ATOM      8  C   UNL d   1      46.630 -18.190  41.322  0.00  0.00     0.002 A 
ATOM      9  C   UNL d   1      46.633 -18.995  41.117  0.00  0.00     0.002 A 
ENDROOT
BRANCH   2  10
ATOM     10  C   UNL d   1      46.461 -17.897  44.127  0.00  0.00     0.084 C 
BRANCH  10  11
ATOM     11  C   UNL d   1      46.075 -17.186  43.962  0.00  0.00     0.046 C 
BRANCH  11  12
ATOM     12  C   UNL d   1      46.007 -16.618  44.543  0.00  0.00     0.124 C 
BRANCH  12  13
ATOM     13  O   UNL d   1      45.326 -16.160  44.584  0.00  0.00    -0.305 OA
BRANCH  13  14
ATOM     14  C   UNL d   1      45.385 -15.340  44.613  0.00  0.00     0.100 A 
ATOM     15  C   UNL d   1      46.106 -14.992  44.756  0.00  0.00     0.025 A 
ATOM     16  C   UNL d   1      46.166 -14.184  44.785  0.00  0.00     0.002 A 
ATOM     17  C   UNL d   1      45.493 -13.710  44.669  0.00  0.00     0.000 A 
ATOM     18  C   UNL d   1      44.770 -14.073  44.525  0.00  0.00     0.002 A 
ATOM     19  C   UNL d   1      44.721 -14.889  44.498  0.00  0.00     0.025 A 
ENDBRANCH  13  14
ENDBRANCH  12  13
ENDBRANCH  11  12
ENDBRANCH  10  11
ENDBRANCH   2  10
BRANCH   3  20
ATOM     20  C   UNL d   1      46.415 -19.546  44.538  0.00  0.00     0.154 C 
BRANCH  20  21
ATOM     21  O   UNL d   1      45.984 -20.208  44.757  0.00  0.00    -0.323 OA
ATOM     22  C   UNL d   1      45.191 -20.330  44.954  0.00  0.00     0.182 C 
ENDBRANCH  20  21
ENDBRANCH   3  20
TORSDOF 7
ENDMDL
MODEL 2
REMARK VINA RESULT:       9.7      1.133      2.134
REMARK  7 active torsions:
REMARK  status: ('A' for Active; 'I' for Inactive)
REMARK    1  A    between atoms: C_6  and  N_2 
REMARK    2  A    between atoms: C_7  and  C_3 
REMARK    3  A    between atoms: C_8  and  C_6 
REMARK    4  A    between atoms: O_13  and  C_7 
REMARK    5  A    between atoms: C_14  and  C_8 
REMARK    6  A    between atoms: C_9  and  O_12 
REMARK    7  A    between atoms: O_12  and  C_14 
ROOT
ATOM      1  N   UNL d   1      46.577 -19.250  42.351  0.00  0.00    -0.225 NA
ATOM      2  N   UNL d   1      46.270 -18.170  43.127  0.00  0.00    -0.287 N 
ATOM      3  C   UNL d   1      46.411 -18.424  42.334  0.00  0.00     0.172 A 
ATOM      4  C   UNL d   1      46.346 -18.827  43.634  0.00  0.00     0.083 A 
ATOM      5  C   UNL d   1      46.536 -19.495  43.154  0.00  0.00     0.099 A 
ATOM      6  C   UNL d   1      46.272 -18.919  44.453  0.00  0.00     0.019 A 
ATOM      7  C   UNL d   1      46.647 -20.238  43.505  0.00  0.00     0.021 A 
ATOM      8  C   UNL d   1      46.385 -19.670  44.800  0.00  0.00     0.002 A 
ATOM      9  C   UNL d   1      46.572 -20.327  44.327  0.00  0.00     0.002 A 
ENDROOT
BRANCH   2  10
ATOM     10  C   UNL d   1      46.099 -17.363  43.194  0.00  0.00     0.084 C 
BRANCH  10  11
ATOM     11  C   UNL d   1      45.975 -17.036  43.941  0.00  0.00     0.046 C 
BRANCH  11  12
ATOM     12  C   UNL d   1      45.694 -16.274  44.008  0.00  0.00     0.124 C 
BRANCH  12  13
ATOM     13  O   UNL d   1      46.069 -15.747  44.514  0.00  0.00    -0.305 OA
BRANCH  13  14
ATOM     14  C   UNL d   1      45.815 -14.965  44.553  0.00  0.00     0.100 A 
ATOM     15  C   UNL d   1      46.337 -14.383  44.778  0.00  0.00     0.025 A 
ATOM     16  C   UNL d   1      46.089 -13.612  44.818  0.00  0.00     0.002 A 
ATOM     17  C   UNL d   1      45.304 -13.415  44.629  0.00  0.00     0.000 A 
ATOM     18  C   UNL d   1      44.786 -14.011  44.404  0.00  0.00     0.002 A 
ATOM     19  C   UNL d   1      45.046 -14.785  44.367  0.00  0.00     0.025 A 
ENDBRANCH  13  14
ENDBRANCH  12  13
ENDBRANCH  11  12
ENDBRANCH  10  11
ENDBRANCH   2  10
BRANCH   3  20
ATOM     20  C   UNL d   1      46.415 -18.081  41.685  0.00  0.00     0.154 C 
BRANCH  20  21
ATOM     21  O   UNL d   1      45.879 -18.203  41.078  0.00  0.00    -0.323 OA
ATOM     22  C   UNL d   1      45.961 -18.415  40.282  0.00  0.00     0.182 C 
ENDBRANCH  20  21
ENDBRANCH   3  20
TORSDOF 7
ENDMDL
