MODEL 1
REMARK VINA RESULT:      -7.3      0.000      0.000
REMARK  2 active torsions:
REMARK  status: ('A' for Active; 'I' for Inactive)
REMARK    1  A    between atoms: C_7  and  C_1 
REMARK       I    between atoms: N_13  and  C_7 
REMARK    2  A    between atoms: C_18  and  N_13 
ROOT
ATOM      1  N   UNL d   1     -41.785  13.001  21.286  0.00  0.00    -0.191 NA
ATOM      2  C   UNL d   1     -42.605  13.000  21.427  0.00  0.00     0.101 C 
ATOM      3  C   UNL d   1     -45.062  12.990  21.850  0.00  0.00     0.085 A 
ATOM      4  C   UNL d   1     -43.426  12.998  21.568  0.00  0.00     0.068 A 
ATOM      5  C   UNL d   1     -44.616  12.309  21.956  0.00  0.00     0.020 A 
ATOM      6  C   UNL d   1     -44.675  13.695  21.595  0.00  0.00     0.020 A 
ATOM      7  C   UNL d   1     -43.803  12.297  21.820  0.00  0.00     0.012 A 
ATOM      8  C   UNL d   1     -43.861  13.683  21.459  0.00  0.00     0.012 A 
ENDROOT
BRANCH   3   9
ATOM      9  N   UNL d   1     -45.871  13.009  21.984  0.00  0.00    -0.208 NA
ATOM     10  C   UNL d   1     -46.133  12.867  22.763  0.00  0.00     0.283 C 
ATOM     11  O   UNL d   1     -45.620  12.719  23.363  0.00  0.00    -0.265 OA
BRANCH  10  12
ATOM     12  C   UNL d   1     -46.945  12.884  22.904  0.00  0.00     0.101 A 
ATOM     13  C   UNL d   1     -47.354  12.215  23.150  0.00  0.00     0.208 A 
ATOM     14  O   UNL d   1     -48.163  12.225  23.292  0.00  0.00    -0.288 OA
ATOM     15  N   UNL d   1     -46.930  11.496  23.259  0.00  0.00    -0.121 N 
ATOM     16  C   UNL d   1     -48.588  12.945  23.183  0.00  0.00     0.103 A 
ATOM     17  C   UNL d   1     -48.165  13.620  22.933  0.00  0.00     0.023 A 
ATOM     18  C   UNL d   1     -49.375  12.965  23.319  0.00  0.00     0.039 A 
ATOM     19  C   UNL d   1     -47.370  13.604  22.795  0.00  0.00     0.010 A 
ATOM     20  C   UNL d   1     -48.582  14.344  22.821  0.00  0.00     0.003 A 
ATOM     21  C   UNL d   1     -49.391  14.354  22.963  0.00  0.00     0.016 A 
ATOM     22  C   UNL d   1     -49.800  13.685  23.209  0.00  0.00     0.066 A 
ATOM     23  C   UNL d   1     -49.836  15.061  22.861  0.00  0.00     0.003 A 
ATOM     24  N   UNL d   1     -50.580  13.710  23.343  0.00  0.00    -0.304 N 
ATOM     25  C   UNL d   1     -50.989  13.041  23.588  0.00  0.00     0.080 A 
ATOM     26  C   UNL d   1     -51.005  14.429  23.233  0.00  0.00     0.080 A 
ATOM     27  C   UNL d   1     -50.565  12.321  23.698  0.00  0.00     0.019 A 
ATOM     28  C   UNL d   1     -49.778  12.301  23.562  0.00  0.00     0.005 A 
ATOM     29  C   UNL d   1     -50.609  15.090  22.992  0.00  0.00     0.019 A 
ENDBRANCH  10  12
ENDBRANCH   3   9
TORSDOF 2
ENDMDL
MODEL 2
REMARK VINA RESULT:      -6.1      1.792      3.345
REMARK  2 active torsions:
REMARK  status: ('A' for Active; 'I' for Inactive)
REMARK    1  A    between atoms: C_7  and  C_1 
REMARK       I    between atoms: N_13  and  C_7 
REMARK    2  A    between atoms: C_18  and  N_13 
ROOT
ATOM      1  N   UNL d   1     -39.216  14.651  19.732  0.00  0.00    -0.191 NA
ATOM      2  C   UNL d   1     -39.919  14.454  20.133  0.00  0.00     0.101 C 
ATOM      3  C   UNL d   1     -42.021  13.862  21.335  0.00  0.00     0.085 A 
ATOM      4  C   UNL d   1     -40.622  14.257  20.534  0.00  0.00     0.068 A 
ATOM      5  C   UNL d   1     -41.306  13.520  21.550  0.00  0.00     0.020 A 
ATOM      6  C   UNL d   1     -42.033  14.418  20.701  0.00  0.00     0.020 A 
ATOM      7  C   UNL d   1     -40.602  13.706  21.161  0.00  0.00     0.012 A 
ATOM      8  C   UNL d   1     -41.330  14.604  20.313  0.00  0.00     0.012 A 
ENDROOT
BRANCH   3   9
ATOM      9  N   UNL d   1     -42.724  13.681  21.718  0.00  0.00    -0.208 NA
ATOM     10  C   UNL d   1     -43.152  13.021  21.439  0.00  0.00     0.283 C 
ATOM     11  O   UNL d   1     -42.893  12.576  20.823  0.00  0.00    -0.265 OA
BRANCH  10  12
ATOM     12  C   UNL d   1     -43.859  12.834  21.820  0.00  0.00     0.101 A 
ATOM     13  C   UNL d   1     -43.965  12.115  22.204  0.00  0.00     0.208 A 
ATOM     14  O   UNL d   1     -44.666  11.922  22.585  0.00  0.00    -0.288 OA
ATOM     15  N   UNL d   1     -43.333  11.559  22.208  0.00  0.00    -0.121 N 
ATOM     16  C   UNL d   1     -45.299  12.479  22.581  0.00  0.00     0.103 A 
ATOM     17  C   UNL d   1     -45.184  13.207  22.188  0.00  0.00     0.023 A 
ATOM     18  C   UNL d   1     -45.986  12.301  22.948  0.00  0.00     0.039 A 
ATOM     19  C   UNL d   1     -44.492  13.391  21.816  0.00  0.00     0.010 A 
ATOM     20  C   UNL d   1     -45.811  13.769  22.179  0.00  0.00     0.003 A 
ATOM     21  C   UNL d   1     -46.513  13.576  22.560  0.00  0.00     0.016 A 
ATOM     22  C   UNL d   1     -46.619  12.858  22.944  0.00  0.00     0.066 A 
ATOM     23  C   UNL d   1     -47.159  14.116  22.569  0.00  0.00     0.003 A 
ATOM     24  N   UNL d   1     -47.302  12.685  23.307  0.00  0.00    -0.304 N 
ATOM     25  C   UNL d   1     -47.407  11.967  23.692  0.00  0.00     0.080 A 
ATOM     26  C   UNL d   1     -47.934  13.242  23.303  0.00  0.00     0.080 A 
ATOM     27  C   UNL d   1     -46.775  11.410  23.696  0.00  0.00     0.019 A 
ATOM     28  C   UNL d   1     -46.088  11.589  23.328  0.00  0.00     0.005 A 
ATOM     29  C   UNL d   1     -47.837  13.950  22.927  0.00  0.00     0.019 A 
ENDBRANCH  10  12
ENDBRANCH   3   9
TORSDOF 2
ENDMDL
MODEL 3
REMARK VINA RESULT:      -4.5      8.346      9.219
REMARK  2 active torsions:
REMARK  status: ('A' for Active; 'I' for Inactive)
REMARK    1  A    between atoms: C_7  and  C_1 
REMARK       I    between atoms: N_13  and  C_7 
REMARK    2  A    between atoms: C_18  and  N_13 
ROOT
ATOM      1  N   UNL d   1     -42.193  15.783  14.993  0.00  0.00    -0.191 NA
ATOM      2  C   UNL d   1     -41.790  15.663  15.711  0.00  0.00     0.101 C 
ATOM      3  C   UNL d   1     -40.586  15.305  17.865  0.00  0.00     0.085 A 
ATOM      4  C   UNL d   1     -41.386  15.543  16.430  0.00  0.00     0.068 A 
ATOM      5  C   UNL d   1     -41.382  15.505  17.859  0.00  0.00     0.020 A 
ATOM      6  C   UNL d   1     -40.181  15.223  17.130  0.00  0.00     0.020 A 
ATOM      7  C   UNL d   1     -41.794  15.627  17.154  0.00  0.00     0.012 A 
ATOM      8  C   UNL d   1     -40.592  15.344  16.425  0.00  0.00     0.012 A 
ENDROOT
BRANCH   3   9
ATOM      9  N   UNL d   1     -40.172  15.183  18.562  0.00  0.00    -0.208 NA
ATOM     10  C   UNL d   1     -40.385  14.521  19.023  0.00  0.00     0.283 C 
ATOM     11  O   UNL d   1     -40.971  14.019  18.800  0.00  0.00    -0.265 OA
BRANCH  10  12
ATOM     12  C   UNL d   1     -39.972  14.393  19.725  0.00  0.00     0.101 A 
ATOM     13  C   UNL d   1     -39.565  13.694  19.864  0.00  0.00     0.208 A 
ATOM     14  O   UNL d   1     -39.152  13.559  20.561  0.00  0.00    -0.288 OA
ATOM     15  N   UNL d   1     -39.571  13.095  19.273  0.00  0.00    -0.121 N 
ATOM     16  C   UNL d   1     -39.146  14.159  21.154  0.00  0.00     0.103 A 
ATOM     17  C   UNL d   1     -39.563  14.866  21.005  0.00  0.00     0.023 A 
ATOM     18  C   UNL d   1     -38.747  14.038  21.836  0.00  0.00     0.039 A 
ATOM     19  C   UNL d   1     -39.967  14.993  20.318  0.00  0.00     0.010 A 
ATOM     20  C   UNL d   1     -39.562  15.471  21.592  0.00  0.00     0.003 A 
ATOM     21  C   UNL d   1     -39.149  15.337  22.289  0.00  0.00     0.016 A 
ATOM     22  C   UNL d   1     -38.741  14.637  22.428  0.00  0.00     0.066 A 
ATOM     23  C   UNL d   1     -39.129  15.921  22.896  0.00  0.00     0.003 A 
ATOM     24  N   UNL d   1     -38.347  14.522  23.106  0.00  0.00    -0.304 N 
ATOM     25  C   UNL d   1     -37.940  13.822  23.245  0.00  0.00     0.080 A 
ATOM     26  C   UNL d   1     -38.342  15.121  23.698  0.00  0.00     0.080 A 
ATOM     27  C   UNL d   1     -37.946  13.223  22.653  0.00  0.00     0.019 A 
ATOM     28  C   UNL d   1     -38.344  13.344  21.971  0.00  0.00     0.005 A 
ATOM     29  C   UNL d   1     -38.740  15.811  23.568  0.00  0.00     0.019 A 
ENDBRANCH  10  12
ENDBRANCH   3   9
TORSDOF 2
ENDMDL
MODEL 4
REMARK VINA RESULT:      -4.5      4.074      8.742
REMARK  2 active torsions:
REMARK  status: ('A' for Active; 'I' for Inactive)
REMARK    1  A    between atoms: C_7  and  C_1 
REMARK       I    between atoms: N_13  and  C_7 
REMARK    2  A    between atoms: C_18  and  N_13 
ROOT
ATOM      1  N   UNL d   1     -45.346  11.968  23.041  0.00  0.00    -0.191 NA
ATOM      2  C   UNL d   1     -44.707  12.219  22.570  0.00  0.00     0.101 C 
ATOM      3  C   UNL d   1     -42.796  12.972  21.158  0.00  0.00     0.085 A 
ATOM      4  C   UNL d   1     -44.067  12.469  22.099  0.00  0.00     0.068 A 
ATOM      5  C   UNL d   1     -43.541  13.306  21.067  0.00  0.00     0.020 A 
ATOM      6  C   UNL d   1     -42.688  12.369  21.737  0.00  0.00     0.020 A 
ATOM      7  C   UNL d   1     -44.182  13.067  21.527  0.00  0.00     0.012 A 
ATOM      8  C   UNL d   1     -43.329  12.130  22.197  0.00  0.00     0.012 A 
ENDROOT
BRANCH   3   9
ATOM      9  N   UNL d   1     -42.154  13.206  20.703  0.00  0.00    -0.208 NA
ATOM     10  C   UNL d   1     -41.818  13.951  20.870  0.00  0.00     0.283 C 
ATOM     11  O   UNL d   1     -42.107  14.427  21.450  0.00  0.00    -0.265 OA
BRANCH  10  12
ATOM     12  C   UNL d   1     -41.173  14.192  20.417  0.00  0.00     0.101 A 
ATOM     13  C   UNL d   1     -40.469  14.433  20.764  0.00  0.00     0.208 A 
ATOM     14  O   UNL d   1     -39.822  14.674  20.318  0.00  0.00    -0.288 OA
ATOM     15  N   UNL d   1     -40.407  14.432  21.603  0.00  0.00    -0.121 N 
ATOM     16  C   UNL d   1     -39.883  14.675  19.478  0.00  0.00     0.103 A 
ATOM     17  C   UNL d   1     -40.603  14.429  19.133  0.00  0.00     0.023 A 
ATOM     18  C   UNL d   1     -39.260  14.907  19.035  0.00  0.00     0.039 A 
ATOM     19  C   UNL d   1     -41.235  14.193  19.576  0.00  0.00     0.010 A 
ATOM     20  C   UNL d   1     -40.673  14.426  18.293  0.00  0.00     0.003 A 
ATOM     21  C   UNL d   1     -40.026  14.668  17.848  0.00  0.00     0.016 A 
ATOM     22  C   UNL d   1     -39.322  14.908  18.194  0.00  0.00     0.066 A 
ATOM     23  C   UNL d   1     -40.064  14.677  17.006  0.00  0.00     0.003 A 
ATOM     24  N   UNL d   1     -38.706  15.138  17.751  0.00  0.00    -0.304 N 
ATOM     25  C   UNL d   1     -38.001  15.379  18.098  0.00  0.00     0.080 A 
ATOM     26  C   UNL d   1     -38.767  15.139  16.912  0.00  0.00     0.080 A 
ATOM     27  C   UNL d   1     -37.940  15.378  18.939  0.00  0.00     0.019 A 
ATOM     28  C   UNL d   1     -38.563  15.145  19.381  0.00  0.00     0.005 A 
ATOM     29  C   UNL d   1     -39.457  14.904  16.564  0.00  0.00     0.019 A 
ENDBRANCH  10  12
ENDBRANCH   3   9
TORSDOF 2
ENDMDL
