MODEL 1
REMARK VINA RESULT:      23.5      0.000      0.000
REMARK  3 active torsions:
REMARK  status: ('A' for Active; 'I' for Inactive)
REMARK    1  A    between atoms: C_7  and  C_1 
REMARK    2  A    between atoms: N_8  and  C_7 
REMARK    3  A    between atoms: C_11  and  N_8 
ROOT
ATOM      1  C   UNL d   1      58.326  49.685  50.481  0.00  0.00     0.145 A 
ATOM      2  C   UNL d   1      57.787  49.685  51.098  0.00  0.00     0.304 A 
ATOM      3  C   UNL d   1      58.060  49.663  49.701  0.00  0.00     0.304 A 
ATOM      4  O   UNL d   1      56.977  49.663  50.940  0.00  0.00    -0.277 OA
ATOM      5  O   UNL d   1      57.249  49.642  49.543  0.00  0.00    -0.277 OA
ATOM      6  C   UNL d   1      56.709  49.641  50.167  0.00  0.00     0.203 A 
ATOM      7  O   UNL d   1      58.074  49.707  51.897  0.00  0.00    -0.259 OA
ATOM      8  O   UNL d   1      58.626  49.664  49.067  0.00  0.00    -0.259 OA
ATOM      9  C   UNL d   1      56.244  49.617  49.471  0.00  0.00     0.062 C 
ATOM     10  C   UNL d   1      56.043  49.636  50.664  0.00  0.00     0.062 C 
ENDROOT
BRANCH   1  11
ATOM     11  C   UNL d   1      59.144  49.707  50.641  0.00  0.00     0.111 C 
BRANCH  11  12
ATOM     12  N   UNL d   1      59.458  49.237  51.240  0.00  0.00    -0.225 NA
BRANCH  12  13
ATOM     13  C   UNL d   1      60.222  49.394  51.534  0.00  0.00     0.163 A 
ATOM     14  N   UNL d   1      60.339  49.497  52.341  0.00  0.00    -0.225 NA
ATOM     15  C   UNL d   1      61.100  49.654  52.633  0.00  0.00     0.101 A 
ATOM     16  C   UNL d   1      61.736  49.706  52.116  0.00  0.00     0.021 A 
ATOM     17  C   UNL d   1      61.620  49.603  51.306  0.00  0.00     0.005 A 
ATOM     18  C   UNL d   1      60.860  49.447  51.013  0.00  0.00     0.039 A 
ENDBRANCH  12  13
ENDBRANCH  11  12
ENDBRANCH   1  11
TORSDOF 3
ENDMDL
