MODEL 1
REMARK VINA RESULT:      -3.7      0.000      0.000
REMARK  5 active torsions:
REMARK  status: ('A' for Active; 'I' for Inactive)
REMARK    1  A    between atoms: N_2  and  S_1 
REMARK    2  A    between atoms: C_10  and  S_1 
REMARK    3  A    between atoms: S_6  and  C_3 
REMARK    4  A    between atoms: C_4  and  C_7 
REMARK    5  A    between atoms: C_7  and  S_6 
ROOT
ATOM      1  N   UNL d   1      58.486   0.367  30.452  0.00  0.00    -0.208 N 
ATOM      2  C   UNL d   1      58.250   0.343  31.249  0.00  0.00     0.189 A 
ATOM      3  N   UNL d   1      58.905   0.538  31.723  0.00  0.00    -0.219 NA
ATOM      4  C   UNL d   1      59.291   0.577  30.436  0.00  0.00     0.114 A 
ATOM      5  C   UNL d   1      59.545   0.682  31.216  0.00  0.00     0.121 A 
ENDROOT
BRANCH   2   6
ATOM      6  S   UNL d   1      57.487   0.156  31.519  0.00  0.00    -0.049 SA
BRANCH   6   7
ATOM      7  C   UNL d   1      57.398  -0.240  32.239  0.00  0.00     0.041 C 
BRANCH   7   8
ATOM      8  C   UNL d   1      56.694  -0.549  32.524  0.00  0.00     0.045 A 
ATOM      9  C   UNL d   1      56.462  -1.313  32.324  0.00  0.00     0.141 A 
ATOM     10  F   UNL d   1      56.941  -1.781  31.830  0.00  0.00    -0.204 F 
ATOM     11  C   UNL d   1      55.749  -1.625  32.613  0.00  0.00     0.030 A 
ATOM     12  C   UNL d   1      55.270  -1.156  33.108  0.00  0.00     0.003 A 
ATOM     13  C   UNL d   1      55.502  -0.392  33.307  0.00  0.00     0.012 A 
ATOM     14  C   UNL d   1      56.216  -0.084  33.016  0.00  0.00     0.060 A 
ATOM     15 CL   UNL d   1      56.438   0.682  33.222  0.00  0.00    -0.082 Cl
ENDBRANCH   7   8
ENDBRANCH   6   7
ENDBRANCH   2   6
BRANCH   1  16
ATOM     16  S   UNL d   1      58.012   0.210  29.792  0.00  0.00     0.273 S 
ATOM     17  O   UNL d   1      57.433   0.677  30.153  0.00  0.00    -0.200 OA
ATOM     18  O   UNL d   1      57.372   0.205  29.267  0.00  0.00    -0.200 OA
BRANCH  16  19
ATOM     19  C   UNL d   1      58.575  -0.257  29.418  0.00  0.00     0.104 A 
ATOM     20  C   UNL d   1      59.151   0.098  28.954  0.00  0.00     0.013 A 
ATOM     21  C   UNL d   1      59.713  -0.373  28.581  0.00  0.00     0.001 A 
ATOM     22  C   UNL d   1      59.702  -1.189  28.668  0.00  0.00     0.000 A 
ATOM     23  C   UNL d   1      59.116  -1.541  29.139  0.00  0.00     0.001 A 
ATOM     24  C   UNL d   1      58.554  -1.070  29.512  0.00  0.00     0.013 A 
ENDBRANCH  16  19
ENDBRANCH   1  16
TORSDOF 5
ENDMDL
MODEL 2
REMARK VINA RESULT:      -3.7      1.100      1.652
REMARK  5 active torsions:
REMARK  status: ('A' for Active; 'I' for Inactive)
REMARK    1  A    between atoms: N_2  and  S_1 
REMARK    2  A    between atoms: C_10  and  S_1 
REMARK    3  A    between atoms: S_6  and  C_3 
REMARK    4  A    between atoms: C_4  and  C_7 
REMARK    5  A    between atoms: C_7  and  S_6 
ROOT
ATOM      1  N   UNL d   1      58.502  -0.846  29.458  0.00  0.00    -0.208 N 
ATOM      2  C   UNL d   1      58.119  -1.055  30.167  0.00  0.00     0.189 A 
ATOM      3  N   UNL d   1      58.164  -1.881  30.256  0.00  0.00    -0.219 NA
ATOM      4  C   UNL d   1      58.783  -1.547  29.111  0.00  0.00     0.114 A 
ATOM      5  C   UNL d   1      58.574  -2.180  29.602  0.00  0.00     0.121 A 
ENDROOT
BRANCH   2   6
ATOM      6  S   UNL d   1      57.756  -0.523  30.692  0.00  0.00    -0.049 SA
BRANCH   6   7
ATOM      7  C   UNL d   1      57.597  -0.764  31.466  0.00  0.00     0.041 C 
BRANCH   7   8
ATOM      8  C   UNL d   1      57.057  -0.406  31.970  0.00  0.00     0.045 A 
ATOM      9  C   UNL d   1      56.328  -0.757  32.119  0.00  0.00     0.141 A 
ATOM     10  F   UNL d   1      56.129  -1.481  31.758  0.00  0.00    -0.204 F 
ATOM     11  C   UNL d   1      55.783  -0.394  32.629  0.00  0.00     0.030 A 
ATOM     12  C   UNL d   1      55.981   0.329  32.990  0.00  0.00     0.003 A 
ATOM     13  C   UNL d   1      56.711   0.681  32.841  0.00  0.00     0.012 A 
ATOM     14  C   UNL d   1      57.253   0.314  32.330  0.00  0.00     0.060 A 
ATOM     15 CL   UNL d   1      57.980   0.675  32.188  0.00  0.00    -0.082 Cl
ENDBRANCH   7   8
ENDBRANCH   6   7
ENDBRANCH   2   6
BRANCH   1  16
ATOM     16  S   UNL d   1      58.589  -0.083  29.152  0.00  0.00     0.273 S 
ATOM     17  O   UNL d   1      57.765  -0.026  29.178  0.00  0.00    -0.200 OA
ATOM     18  O   UNL d   1      58.415   0.674  28.864  0.00  0.00    -0.200 OA
BRANCH  16  19
ATOM     19  C   UNL d   1      59.410  -0.121  29.118  0.00  0.00     0.104 A 
ATOM     20  C   UNL d   1      59.856   0.298  29.664  0.00  0.00     0.013 A 
ATOM     21  C   UNL d   1      60.677   0.257  29.628  0.00  0.00     0.001 A 
ATOM     22  C   UNL d   1      61.050  -0.195  29.053  0.00  0.00     0.000 A 
ATOM     23  C   UNL d   1      60.592  -0.616  28.504  0.00  0.00     0.001 A 
ATOM     24  C   UNL d   1      59.770  -0.576  28.541  0.00  0.00     0.013 A 
ENDBRANCH  16  19
ENDBRANCH   1  16
TORSDOF 5
ENDMDL
MODEL 3
REMARK VINA RESULT:      -3.4      1.837      4.143
REMARK  5 active torsions:
REMARK  status: ('A' for Active; 'I' for Inactive)
REMARK    1  A    between atoms: N_2  and  S_1 
REMARK    2  A    between atoms: C_10  and  S_1 
REMARK    3  A    between atoms: S_6  and  C_3 
REMARK    4  A    between atoms: C_4  and  C_7 
REMARK    5  A    between atoms: C_7  and  S_6 
ROOT
ATOM      1  N   UNL d   1      57.898   0.243  30.567  0.00  0.00    -0.208 N 
ATOM      2  C   UNL d   1      58.205  -0.154  29.903  0.00  0.00     0.189 A 
ATOM      3  N   UNL d   1      57.737   0.040  29.243  0.00  0.00    -0.219 NA
ATOM      4  C   UNL d   1      57.238   0.682  30.313  0.00  0.00     0.114 A 
ATOM      5  C   UNL d   1      57.142   0.555  29.501  0.00  0.00     0.121 A 
ENDROOT
BRANCH   2   6
ATOM      6  S   UNL d   1      58.866  -0.655  29.906  0.00  0.00    -0.049 SA
BRANCH   6   7
ATOM      7  C   UNL d   1      59.102  -1.019  29.203  0.00  0.00     0.041 C 
BRANCH   7   8
ATOM      8  C   UNL d   1      59.606  -1.664  29.151  0.00  0.00     0.045 A 
ATOM      9  C   UNL d   1      59.315  -2.430  29.233  0.00  0.00     0.141 A 
ATOM     10  F   UNL d   1      58.504  -2.558  29.369  0.00  0.00    -0.204 F 
ATOM     11  C   UNL d   1      59.826  -3.081  29.180  0.00  0.00     0.030 A 
ATOM     12  C   UNL d   1      60.638  -2.953  29.043  0.00  0.00     0.003 A 
ATOM     13  C   UNL d   1      60.929  -2.188  28.962  0.00  0.00     0.012 A 
ATOM     14  C   UNL d   1      60.414  -1.539  29.015  0.00  0.00     0.060 A 
ATOM     15 CL   UNL d   1      60.716  -0.777  28.932  0.00  0.00    -0.082 Cl
ENDBRANCH   7   8
ENDBRANCH   6   7
ENDBRANCH   2   6
BRANCH   1  16
ATOM     16  S   UNL d   1      58.191   0.210  31.340  0.00  0.00     0.273 S 
ATOM     17  O   UNL d   1      58.926   0.417  31.022  0.00  0.00    -0.200 OA
ATOM     18  O   UNL d   1      58.705   0.243  31.988  0.00  0.00    -0.200 OA
BRANCH  16  19
ATOM     19  C   UNL d   1      57.468   0.005  31.674  0.00  0.00     0.104 A 
ATOM     20  C   UNL d   1      57.295  -0.786  31.805  0.00  0.00     0.013 A 
ATOM     21  C   UNL d   1      56.570  -0.988  32.139  0.00  0.00     0.001 A 
ATOM     22  C   UNL d   1      56.025  -0.409  32.341  0.00  0.00     0.000 A 
ATOM     23  C   UNL d   1      56.208   0.389  32.206  0.00  0.00     0.001 A 
ATOM     24  C   UNL d   1      56.933   0.591  31.871  0.00  0.00     0.013 A 
ENDBRANCH  16  19
ENDBRANCH   1  16
TORSDOF 5
ENDMDL
MODEL 4
REMARK VINA RESULT:      -3.2      1.710      4.273
REMARK  5 active torsions:
REMARK  status: ('A' for Active; 'I' for Inactive)
REMARK    1  A    between atoms: N_2  and  S_1 
REMARK    2  A    between atoms: C_10  and  S_1 
REMARK    3  A    between atoms: S_6  and  C_3 
REMARK    4  A    between atoms: C_4  and  C_7 
REMARK    5  A    between atoms: C_7  and  S_6 
ROOT
ATOM      1  N   UNL d   1      57.154  -0.124  32.704  0.00  0.00    -0.208 N 
ATOM      2  C   UNL d   1      57.711   0.188  32.170  0.00  0.00     0.189 A 
ATOM      3  N   UNL d   1      58.230   0.682  32.592  0.00  0.00    -0.219 NA
ATOM      4  C   UNL d   1      57.332   0.180  33.457  0.00  0.00     0.114 A 
ATOM      5  C   UNL d   1      57.992   0.673  33.386  0.00  0.00     0.121 A 
ENDROOT
BRANCH   2   6
ATOM      6  S   UNL d   1      57.737   0.028  31.356  0.00  0.00    -0.049 SA
BRANCH   6   7
ATOM      7  C   UNL d   1      58.395   0.270  30.917  0.00  0.00     0.041 C 
BRANCH   7   8
ATOM      8  C   UNL d   1      58.482   0.177  30.107  0.00  0.00     0.045 A 
ATOM      9  C   UNL d   1      57.870   0.380  29.595  0.00  0.00     0.141 A 
ATOM     10  F   UNL d   1      57.154   0.682  29.896  0.00  0.00    -0.204 F 
ATOM     11  C   UNL d   1      57.959   0.286  28.776  0.00  0.00     0.030 A 
ATOM     12  C   UNL d   1      58.674  -0.016  28.475  0.00  0.00     0.003 A 
ATOM     13  C   UNL d   1      59.286  -0.219  28.986  0.00  0.00     0.012 A 
ATOM     14  C   UNL d   1      59.193  -0.123  29.806  0.00  0.00     0.060 A 
ATOM     15 CL   UNL d   1      59.812  -0.329  30.309  0.00  0.00    -0.082 Cl
ENDBRANCH   7   8
ENDBRANCH   6   7
ENDBRANCH   2   6
BRANCH   1  16
ATOM     16  S   UNL d   1      56.535  -0.642  32.523  0.00  0.00     0.273 S 
ATOM     17  O   UNL d   1      57.070  -1.043  32.037  0.00  0.00    -0.200 OA
ATOM     18  O   UNL d   1      56.103  -1.269  32.196  0.00  0.00    -0.200 OA
BRANCH  16  19
ATOM     19  C   UNL d   1      55.988  -0.257  33.001  0.00  0.00     0.104 A 
ATOM     20  C   UNL d   1      55.483   0.298  32.670  0.00  0.00     0.013 A 
ATOM     21  C   UNL d   1      54.936   0.682  33.152  0.00  0.00     0.001 A 
ATOM     22  C   UNL d   1      54.893   0.514  33.955  0.00  0.00     0.000 A 
ATOM     23  C   UNL d   1      55.407  -0.050  34.282  0.00  0.00     0.001 A 
ATOM     24  C   UNL d   1      55.954  -0.433  33.800  0.00  0.00     0.013 A 
ENDBRANCH  16  19
ENDBRANCH   1  16
TORSDOF 5
ENDMDL
