MODEL 1
REMARK VINA RESULT:      -1.1      0.000      0.000
REMARK  11 active torsions:
REMARK  status: ('A' for Active; 'I' for Inactive)
REMARK    1  A    between atoms: C_14  and  C_3 
REMARK    2  A    between atoms: N_15  and  C_6 
REMARK    3  A    between atoms: N_12  and  C_19 
REMARK    4  A    between atoms: N_13  and  C_20 
REMARK    5  A    between atoms: N_16  and  C_14 
REMARK    6  A    between atoms: C_28  and  N_15 
REMARK    7  A    between atoms: C_23  and  N_16 
REMARK    8  A    between atoms: C_19  and  C_21 
REMARK    9  A    between atoms: C_20  and  C_22 
REMARK   10  A    between atoms: C_21  and  C_23 
REMARK   11  A    between atoms: C_22  and  C_28 
ROOT
ATOM      1  N   UNL d   1      32.759  22.169 -23.186  0.00  0.00    -0.258 N 
ATOM      2  C   UNL d   1      32.919  21.417 -22.863  0.00  0.00     0.270 A 
ATOM      3  C   UNL d   1      33.076  21.334 -22.069  0.00  0.00     0.111 A 
ATOM      4  N   UNL d   1      32.925  22.730 -21.883  0.00  0.00    -0.209 NA
ATOM      5  C   UNL d   1      32.763  22.830 -22.692  0.00  0.00     0.152 A 
ATOM      6  C   UNL d   1      33.080  21.995 -21.575  0.00  0.00     0.170 A 
ATOM      7  C   UNL d   1      32.603  22.248 -23.974  0.00  0.00     0.084 A 
ATOM      8  C   UNL d   1      32.610  23.561 -22.994  0.00  0.00     0.038 A 
ATOM      9  C   UNL d   1      32.445  22.997 -24.293  0.00  0.00     0.018 A 
ATOM     10  C   UNL d   1      32.448  23.659 -23.799  0.00  0.00     0.005 A 
ATOM     11  O   UNL d   1      32.916  20.746 -23.363  0.00  0.00    -0.266 OA
ATOM     12  C   UNL d   1      32.284  23.087 -25.096  0.00  0.00     0.002 C 
ENDROOT
BRANCH   3  13
ATOM     13  C   UNL d   1      33.233  20.589 -21.755  0.00  0.00     0.107 C 
BRANCH  13  14
ATOM     14  N   UNL d   1      33.017  19.903 -22.184  0.00  0.00    -0.242 NA
BRANCH  14  15
ATOM     15  C   UNL d   1      33.146  19.158 -21.858  0.00  0.00     0.101 C 
BRANCH  15  16
ATOM     16  C   UNL d   1      32.808  18.497 -22.205  0.00  0.00     0.040 C 
BRANCH  16  17
ATOM     17  C   UNL d   1      32.923  18.339 -23.025  0.00  0.00     0.082 C 
BRANCH  17  18
ATOM     18  N   UNL d   1      32.794  17.588 -23.325  0.00  0.00    -0.299 N 
ATOM     19  C   UNL d   1      33.210  16.953 -23.033  0.00  0.00     0.107 A 
ATOM     20  C   UNL d   1      33.078  16.185 -23.339  0.00  0.00     0.142 A 
ATOM     21  O   UNL d   1      32.532  16.070 -23.931  0.00  0.00    -0.300 OA
ATOM     22  C   UNL d   1      32.101  16.724 -24.234  0.00  0.00     0.142 A 
ATOM     23  C   UNL d   1      32.231  17.481 -23.932  0.00  0.00     0.107 A 
ENDBRANCH  17  18
ENDBRANCH  16  17
ENDBRANCH  15  16
ENDBRANCH  14  15
ENDBRANCH  13  14
ENDBRANCH   3  13
BRANCH   6  24
ATOM     24  N   UNL d   1      33.240  21.901 -20.776  0.00  0.00    -0.225 NA
BRANCH  24  25
ATOM     25  C   UNL d   1      33.214  22.572 -20.266  0.00  0.00     0.102 C 
BRANCH  25  26
ATOM     26  C   UNL d   1      33.178  22.461 -19.453  0.00  0.00     0.040 C 
BRANCH  26  27
ATOM     27  C   UNL d   1      32.773  23.025 -18.975  0.00  0.00     0.082 C 
BRANCH  27  28
ATOM     28  N   UNL d   1      32.871  22.992 -18.153  0.00  0.00    -0.299 N 
ATOM     29  C   UNL d   1      32.680  23.663 -17.702  0.00  0.00     0.107 A 
ATOM     30  C   UNL d   1      32.767  23.662 -16.886  0.00  0.00     0.142 A 
ATOM     31  O   UNL d   1      33.050  22.973 -16.519  0.00  0.00    -0.300 OA
ATOM     32  C   UNL d   1      33.240  22.307 -16.967  0.00  0.00     0.142 A 
ATOM     33  C   UNL d   1      33.146  22.329 -17.782  0.00  0.00     0.107 A 
ENDBRANCH  27  28
ENDBRANCH  26  27
ENDBRANCH  25  26
ENDBRANCH  24  25
ENDBRANCH   6  24
TORSDOF 11
ENDMDL
MODEL 2
REMARK VINA RESULT:       0.2      0.900      5.770
REMARK  11 active torsions:
REMARK  status: ('A' for Active; 'I' for Inactive)
REMARK    1  A    between atoms: C_14  and  C_3 
REMARK    2  A    between atoms: N_15  and  C_6 
REMARK    3  A    between atoms: N_12  and  C_19 
REMARK    4  A    between atoms: N_13  and  C_20 
REMARK    5  A    between atoms: N_16  and  C_14 
REMARK    6  A    between atoms: C_28  and  N_15 
REMARK    7  A    between atoms: C_23  and  N_16 
REMARK    8  A    between atoms: C_19  and  C_21 
REMARK    9  A    between atoms: C_20  and  C_22 
REMARK   10  A    between atoms: C_21  and  C_23 
REMARK   11  A    between atoms: C_22  and  C_28 
ROOT
ATOM      1  N   UNL d   1      32.878  22.534 -23.269  0.00  0.00    -0.258 N 
ATOM      2  C   UNL d   1      33.047  22.638 -22.459  0.00  0.00     0.270 A 
ATOM      3  C   UNL d   1      33.040  22.002 -21.951  0.00  0.00     0.111 A 
ATOM      4  N   UNL d   1      32.699  21.139 -23.021  0.00  0.00    -0.209 NA
ATOM      5  C   UNL d   1      32.703  21.779 -23.552  0.00  0.00     0.152 A 
ATOM      6  C   UNL d   1      32.865  21.247 -22.235  0.00  0.00     0.170 A 
ATOM      7  C   UNL d   1      32.886  23.167 -23.769  0.00  0.00     0.084 A 
ATOM      8  C   UNL d   1      32.538  21.669 -24.332  0.00  0.00     0.038 A 
ATOM      9  C   UNL d   1      32.717  23.062 -24.575  0.00  0.00     0.018 A 
ATOM     10  C   UNL d   1      32.542  22.307 -24.858  0.00  0.00     0.005 A 
ATOM     11  O   UNL d   1      33.225  23.404 -22.171  0.00  0.00    -0.266 OA
ATOM     12  C   UNL d   1      32.722  23.702 -25.093  0.00  0.00     0.002 C 
ENDROOT
BRANCH   3  13
ATOM     13  C   UNL d   1      33.209  22.110 -21.152  0.00  0.00     0.107 C 
BRANCH  13  14
ATOM     14  N   UNL d   1      32.583  22.213 -20.606  0.00  0.00    -0.242 NA
BRANCH  14  15
ATOM     15  C   UNL d   1      32.611  22.831 -20.061  0.00  0.00     0.101 C 
BRANCH  15  16
ATOM     16  C   UNL d   1      32.726  22.668 -19.267  0.00  0.00     0.040 C 
BRANCH  16  17
ATOM     17  C   UNL d   1      32.606  23.268 -18.687  0.00  0.00     0.082 C 
BRANCH  17  18
ATOM     18  N   UNL d   1      32.732  23.109 -17.893  0.00  0.00    -0.299 N 
ATOM     19  C   UNL d   1      33.109  22.425 -17.667  0.00  0.00     0.107 A 
ATOM     20  C   UNL d   1      33.238  22.262 -16.856  0.00  0.00     0.142 A 
ATOM     21  O   UNL d   1      32.987  22.788 -16.289  0.00  0.00    -0.300 OA
ATOM     22  C   UNL d   1      32.597  23.495 -16.520  0.00  0.00     0.142 A 
ATOM     23  C   UNL d   1      32.470  23.655 -17.319  0.00  0.00     0.107 A 
ENDBRANCH  17  18
ENDBRANCH  16  17
ENDBRANCH  15  16
ENDBRANCH  14  15
ENDBRANCH  13  14
ENDBRANCH   3  13
BRANCH   6  24
ATOM     24  N   UNL d   1      32.861  20.612 -21.715  0.00  0.00    -0.225 NA
BRANCH  24  25
ATOM     25  C   UNL d   1      33.238  19.891 -21.937  0.00  0.00     0.102 C 
BRANCH  25  26
ATOM     26  C   UNL d   1      32.781  19.260 -22.198  0.00  0.00     0.040 C 
BRANCH  26  27
ATOM     27  C   UNL d   1      33.155  18.607 -22.578  0.00  0.00     0.082 C 
BRANCH  27  28
ATOM     28  N   UNL d   1      32.713  18.151 -23.110  0.00  0.00    -0.299 N 
ATOM     29  C   UNL d   1      33.026  18.004 -23.865  0.00  0.00     0.107 A 
ATOM     30  C   UNL d   1      32.613  17.556 -24.413  0.00  0.00     0.142 A 
ATOM     31  O   UNL d   1      31.871  17.251 -24.198  0.00  0.00    -0.300 OA
ATOM     32  C   UNL d   1      31.560  17.398 -23.448  0.00  0.00     0.142 A 
ATOM     33  C   UNL d   1      31.990  17.849 -22.914  0.00  0.00     0.107 A 
ENDBRANCH  27  28
ENDBRANCH  26  27
ENDBRANCH  25  26
ENDBRANCH  24  25
ENDBRANCH   6  24
TORSDOF 11
ENDMDL
