MODEL 1
REMARK VINA RESULT:      65.2      0.000      0.000
REMARK  7 active torsions:
REMARK  status: ('A' for Active; 'I' for Inactive)
REMARK       I    between atoms: C_3  and  N_1 
REMARK    1  A    between atoms: C_4  and  N_2 
REMARK    2  A    between atoms: C_15  and  C_3 
REMARK    3  A    between atoms: C_12  and  C_4 
REMARK    4  A    between atoms: C_13  and  C_4 
REMARK    5  A    between atoms: C_5  and  C_17 
REMARK    6  A    between atoms: C_16  and  C_15 
REMARK    7  A    between atoms: C_17  and  C_16 
ROOT
ATOM      1  N   UNL d   1     -55.263-102.049 -41.326  0.00  0.00    -0.269 N 
ATOM      2  N   UNL d   1     -55.268-101.512 -42.904  0.00  0.00    -0.301 N 
ATOM      3  C   UNL d   1     -55.254-102.309 -40.543  0.00  0.00     0.265 C 
ATOM      4  C   UNL d   1     -54.712-101.473 -41.574  0.00  0.00     0.102 A 
ATOM      5  C   UNL d   1     -55.814-102.351 -41.874  0.00  0.00     0.102 A 
ATOM      6  C   UNL d   1     -55.814-102.082 -42.660  0.00  0.00     0.100 A 
ATOM      7  C   UNL d   1     -54.713-101.200 -42.371  0.00  0.00     0.100 A 
ATOM      8  O   UNL d   1     -55.799-102.875 -40.310  0.00  0.00    -0.267 OA
ENDROOT
BRANCH   2   9
ATOM      9  C   UNL d   1     -55.268-101.245 -43.685  0.00  0.00     0.064 C 
BRANCH   9  10
ATOM     10  C   UNL d   1     -55.355-101.784 -44.315  0.00  0.00     0.016 A 
ATOM     11  C   UNL d   1     -56.078-102.164 -44.428  0.00  0.00     0.001 A 
ATOM     12  C   UNL d   1     -56.152-102.692 -45.052  0.00  0.00     0.000 A 
ATOM     13  C   UNL d   1     -55.519-102.845 -45.559  0.00  0.00     0.000 A 
ATOM     14  C   UNL d   1     -54.802-102.459 -45.437  0.00  0.00     0.000 A 
ATOM     15  C   UNL d   1     -54.712-101.923 -44.811  0.00  0.00     0.001 A 
ENDBRANCH   9  10
BRANCH   9  16
ATOM     16  C   UNL d   1     -55.183-100.442 -43.843  0.00  0.00     0.016 A 
ATOM     17  C   UNL d   1     -55.009 -99.921 -43.236  0.00  0.00     0.001 A 
ATOM     18  C   UNL d   1     -54.921 -99.114 -43.387  0.00  0.00     0.000 A 
ATOM     19  C   UNL d   1     -55.011 -98.833 -44.164  0.00  0.00     0.000 A 
ATOM     20  C   UNL d   1     -55.187 -99.363 -44.779  0.00  0.00     0.000 A 
ATOM     21  C   UNL d   1     -55.272-100.163 -44.614  0.00  0.00     0.001 A 
ENDBRANCH   9  16
ENDBRANCH   2   9
BRANCH   3  22
ATOM     22  C   UNL d   1     -54.712-102.008 -40.013  0.00  0.00     0.061 C 
BRANCH  22  23
ATOM     23  C   UNL d   1     -54.967-101.529 -39.400  0.00  0.00     0.011 C 
BRANCH  23  24
ATOM     24  C   UNL d   1     -55.376-101.854 -38.769  0.00  0.00     0.070 C 
BRANCH  24  25
ATOM     25  C   UNL d   1     -55.091-101.765 -38.006  0.00  0.00     0.211 C 
ATOM     26  O   UNL d   1     -55.070-101.029 -37.661  0.00  0.00    -0.644 OA
ATOM     27  O   UNL d   1     -54.824-102.428 -37.588  0.00  0.00    -0.644 OA
ENDBRANCH  24  25
ENDBRANCH  23  24
ENDBRANCH  22  23
ENDBRANCH   3  22
TORSDOF 7
ENDMDL
