MODEL 1
REMARK VINA RESULT:      73.4      0.000      0.000
REMARK  6 active torsions:
REMARK  status: ('A' for Active; 'I' for Inactive)
REMARK    1  A    between atoms: C_8  and  C_1 
REMARK    2  A    between atoms: C_13  and  N_2 
REMARK    3  A    between atoms: C_7  and  C_4 
REMARK    4  A    between atoms: C_6  and  C_8 
REMARK    5  A    between atoms: C_22  and  C_13 
REMARK    6  A    between atoms: N_18  and  C_22 
ROOT
ATOM      1  C   UNL d   1      14.189  14.422  -1.480  0.00  0.00     0.103 A 
ATOM      2  N   UNL d   1      13.877  13.652  -2.530  0.00  0.00    -0.267 N 
ATOM      3  C   UNL d   1      13.781  14.891  -2.025  0.00  0.00     0.256 A 
ATOM      4  C   UNL d   1      14.246  13.662  -1.792  0.00  0.00     0.096 A 
ATOM      5  C   UNL d   1      13.589  14.415  -2.674  0.00  0.00     0.304 A 
ATOM      6  O   UNL d   1      13.179  14.661  -3.350  0.00  0.00    -0.263 OA
ATOM      7  O   UNL d   1      13.594  15.688  -1.949  0.00  0.00    -0.281 OA
ENDROOT
BRANCH   1   8
ATOM      8  C   UNL d   1      14.482  14.677  -0.753  0.00  0.00     0.223 C 
ATOM      9  O   UNL d   1      14.315  14.245  -0.065  0.00  0.00    -0.284 OA
BRANCH   8  10
ATOM     10  C   UNL d   1      14.943  15.363  -0.705  0.00  0.00     0.139 A 
ATOM     11  O   UNL d   1      14.747  16.102  -1.018  0.00  0.00    -0.304 OA
ATOM     12  C   UNL d   1      15.357  16.621  -0.845  0.00  0.00     0.100 A 
ATOM     13  C   UNL d   1      15.478  17.403  -1.003  0.00  0.00     0.025 A 
ATOM     14  C   UNL d   1      15.933  16.203  -0.424  0.00  0.00     0.025 A 
ATOM     15  C   UNL d   1      16.151  17.787  -0.758  0.00  0.00     0.002 A 
ATOM     16  C   UNL d   1      16.728  17.374  -0.338  0.00  0.00     0.000 A 
ATOM     17  C   UNL d   1      16.608  16.580  -0.175  0.00  0.00     0.002 A 
ATOM     18  C   UNL d   1      15.670  15.423  -0.340  0.00  0.00     0.030 A 
ENDBRANCH   8  10
ENDBRANCH   1   8
BRANCH   4  19
ATOM     19  C   UNL d   1      14.615  13.014  -1.423  0.00  0.00     0.116 A 
ATOM     20  O   UNL d   1      15.398  12.866  -1.247  0.00  0.00    -0.306 OA
ATOM     21  C   UNL d   1      15.444  12.136  -0.881  0.00  0.00     0.100 A 
ATOM     22  C   UNL d   1      16.138  11.780  -0.614  0.00  0.00     0.027 C 
ATOM     23  C   UNL d   1      14.680  11.828  -0.829  0.00  0.00     0.027 A 
ATOM     24  C   UNL d   1      14.166  12.371  -1.164  0.00  0.00     0.028 A 
ENDBRANCH   4  19
BRANCH   2  25
ATOM     25  C   UNL d   1      13.808  13.009  -3.029  0.00  0.00     0.102 C 
BRANCH  25  26
ATOM     26  C   UNL d   1      13.191  12.975  -3.576  0.00  0.00     0.100 C 
BRANCH  26  27
ATOM     27  N   UNL d   1      13.329  12.690  -4.337  0.00  0.00    -0.298 N 
ATOM     28  C   UNL d   1      12.882  12.069  -4.631  0.00  0.00     0.107 A 
ATOM     29  C   UNL d   1      13.014  11.780  -5.391  0.00  0.00     0.142 A 
ATOM     30  O   UNL d   1      13.598  12.114  -5.858  0.00  0.00    -0.300 OA
ATOM     31  C   UNL d   1      14.054  12.740  -5.570  0.00  0.00     0.142 A 
ATOM     32  C   UNL d   1      13.915  13.026  -4.804  0.00  0.00     0.107 A 
ENDBRANCH  26  27
ENDBRANCH  25  26
ENDBRANCH   2  25
TORSDOF 6
ENDMDL
MODEL 2
REMARK VINA RESULT:      75.7      3.229      5.593
REMARK  6 active torsions:
REMARK  status: ('A' for Active; 'I' for Inactive)
REMARK    1  A    between atoms: C_8  and  C_1 
REMARK    2  A    between atoms: C_13  and  N_2 
REMARK    3  A    between atoms: C_7  and  C_4 
REMARK    4  A    between atoms: C_6  and  C_8 
REMARK    5  A    between atoms: C_22  and  C_13 
REMARK    6  A    between atoms: N_18  and  C_22 
ROOT
ATOM      1  C   UNL d   1      13.717  15.765  -4.424  0.00  0.00     0.103 A 
ATOM      2  N   UNL d   1      14.082  16.902  -5.030  0.00  0.00    -0.267 N 
ATOM      3  C   UNL d   1      13.320  15.805  -5.148  0.00  0.00     0.256 A 
ATOM      4  C   UNL d   1      14.184  16.439  -4.354  0.00  0.00     0.096 A 
ATOM      5  C   UNL d   1      13.545  16.507  -5.522  0.00  0.00     0.304 A 
ATOM      6  O   UNL d   1      13.280  16.769  -6.261  0.00  0.00    -0.263 OA
ATOM      7  O   UNL d   1      12.792  15.252  -5.453  0.00  0.00    -0.281 OA
ENDROOT
BRANCH   1   8
ATOM      8  C   UNL d   1      13.651  15.154  -3.874  0.00  0.00     0.223 C 
ATOM      9  O   UNL d   1      13.729  15.317  -3.065  0.00  0.00    -0.284 OA
BRANCH   8  10
ATOM     10  C   UNL d   1      13.507  14.379  -4.125  0.00  0.00     0.139 A 
ATOM     11  O   UNL d   1      13.747  14.049  -4.844  0.00  0.00    -0.304 OA
ATOM     12  C   UNL d   1      13.489  13.272  -4.864  0.00  0.00     0.100 A 
ATOM     13  C   UNL d   1      13.556  12.683  -5.412  0.00  0.00     0.025 A 
ATOM     14  C   UNL d   1      13.089  13.118  -4.158  0.00  0.00     0.025 A 
ATOM     15  C   UNL d   1      13.239  11.945  -5.284  0.00  0.00     0.002 A 
ATOM     16  C   UNL d   1      12.839  11.788  -4.581  0.00  0.00     0.000 A 
ATOM     17  C   UNL d   1      12.770  12.384  -4.022  0.00  0.00     0.002 A 
ATOM     18  C   UNL d   1      13.104  13.810  -3.703  0.00  0.00     0.030 A 
ENDBRANCH   8  10
ENDBRANCH   1   8
BRANCH   4  19
ATOM     19  C   UNL d   1      14.676  16.622  -3.709  0.00  0.00     0.116 A 
ATOM     20  O   UNL d   1      14.537  17.048  -3.027  0.00  0.00    -0.306 OA
ATOM     21  C   UNL d   1      15.224  17.051  -2.583  0.00  0.00     0.100 A 
ATOM     22  C   UNL d   1      15.318  17.422  -1.853  0.00  0.00     0.027 C 
ATOM     23  C   UNL d   1      15.797  16.622  -2.995  0.00  0.00     0.027 A 
ATOM     24  C   UNL d   1      15.458  16.356  -3.692  0.00  0.00     0.028 A 
ENDBRANCH   4  19
BRANCH   2  25
ATOM     25  C   UNL d   1      14.443  17.617  -5.187  0.00  0.00     0.102 C 
BRANCH  25  26
ATOM     26  C   UNL d   1      14.000  18.313  -5.189  0.00  0.00     0.100 C 
BRANCH  26  27
ATOM     27  N   UNL d   1      14.344  19.023  -5.428  0.00  0.00    -0.298 N 
ATOM     28  C   UNL d   1      13.878  19.625  -5.730  0.00  0.00     0.107 A 
ATOM     29  C   UNL d   1      14.216  20.337  -5.970  0.00  0.00     0.142 A 
ATOM     30  O   UNL d   1      15.026  20.445  -5.907  0.00  0.00    -0.300 OA
ATOM     31  C   UNL d   1      15.503  19.843  -5.604  0.00  0.00     0.142 A 
ATOM     32  C   UNL d   1      15.155  19.129  -5.364  0.00  0.00     0.107 A 
ENDBRANCH  26  27
ENDBRANCH  25  26
ENDBRANCH   2  25
TORSDOF 6
ENDMDL
