MODEL 1
REMARK VINA RESULT:      12.8      0.000      0.000
REMARK  1 active torsions:
REMARK  status: ('A' for Active; 'I' for Inactive)
REMARK    1  A    between atoms: C_6  and  C_3 
ROOT
ATOM      1  N   UNL d   1      59.039  49.682  50.217  0.00  0.00    -0.228 NA
ATOM      2  C   UNL d   1      59.672  49.682  50.745  0.00  0.00     0.166 A 
ATOM      3  C   UNL d   1      58.344  49.679  50.661  0.00  0.00     0.089 A 
ATOM      4  S   UNL d   1      59.374  49.680  51.504  0.00  0.00    -0.055 SA
ATOM      5  C   UNL d   1      58.547  49.677  51.464  0.00  0.00     0.057 A 
ATOM      6  S   UNL d   1      60.472  49.685  50.535  0.00  0.00    -0.050 SA
ENDROOT
BRANCH   3   7
ATOM      7  C   UNL d   1      57.573  49.677  50.358  0.00  0.00     0.018 A 
ATOM      8  C   UNL d   1      56.933  49.678  50.871  0.00  0.00     0.002 A 
ATOM      9  C   UNL d   1      56.166  49.677  50.576  0.00  0.00     0.000 A 
ATOM     10  C   UNL d   1      56.040  49.673  49.753  0.00  0.00     0.000 A 
ATOM     11  C   UNL d   1      56.685  49.672  49.246  0.00  0.00     0.000 A 
ATOM     12  C   UNL d   1      57.454  49.674  49.545  0.00  0.00     0.002 A 
ENDBRANCH   3   7
TORSDOF 1
ENDMDL
MODEL 2
REMARK VINA RESULT:      13.0      1.479      3.025
REMARK  1 active torsions:
REMARK  status: ('A' for Active; 'I' for Inactive)
REMARK    1  A    between atoms: C_6  and  C_3 
ROOT
ATOM      1  N   UNL d   1      57.824  49.688  49.999  0.00  0.00    -0.228 NA
ATOM      2  C   UNL d   1      57.012  49.692  50.143  0.00  0.00     0.166 A 
ATOM      3  C   UNL d   1      58.207  49.695  50.729  0.00  0.00     0.089 A 
ATOM      4  S   UNL d   1      56.895  49.701  50.951  0.00  0.00    -0.055 SA
ATOM      5  C   UNL d   1      57.633  49.702  51.326  0.00  0.00     0.057 A 
ATOM      6  S   UNL d   1      56.422  49.688  49.564  0.00  0.00    -0.050 SA
ENDROOT
BRANCH   3   7
ATOM      7  C   UNL d   1      59.027  49.693  50.848  0.00  0.00     0.018 A 
ATOM      8  C   UNL d   1      59.532  49.678  50.202  0.00  0.00     0.002 A 
ATOM      9  C   UNL d   1      60.347  49.677  50.313  0.00  0.00     0.000 A 
ATOM     10  C   UNL d   1      60.658  49.691  51.086  0.00  0.00     0.000 A 
ATOM     11  C   UNL d   1      60.147  49.706  51.726  0.00  0.00     0.000 A 
ATOM     12  C   UNL d   1      59.330  49.708  51.612  0.00  0.00     0.002 A 
ENDBRANCH   3   7
TORSDOF 1
ENDMDL
