MODEL 1
REMARK VINA RESULT:      -6.1      0.000      0.000
REMARK  12 active torsions:
REMARK  status: ('A' for Active; 'I' for Inactive)
REMARK    1  A    between atoms: C_18  and  N_1 
REMARK    2  A    between atoms: C_9  and  N_3 
REMARK    3  A    between atoms: C_12  and  C_9 
REMARK       I    between atoms: N_19  and  C_12 
REMARK    4  A    between atoms: C_14  and  C_22 
REMARK       I    between atoms: N_15  and  C_14 
REMARK    5  A    between atoms: C_20  and  N_15 
REMARK    6  A    between atoms: C_27  and  C_18 
REMARK    7  A    between atoms: C_23  and  N_19 
REMARK    8  A    between atoms: O_21  and  C_24 
REMARK    9  A    between atoms: C_22  and  C_29 
REMARK   10  A    between atoms: C_24  and  C_23 
REMARK   11  A    between atoms: C_30  and  C_27 
REMARK   12  A    between atoms: C_29  and  C_30 
ROOT
ATOM      1  N   UNL d   1     -41.066  13.932  20.429  0.00  0.00    -0.225 N 
ATOM      2  C   UNL d   1     -41.032  14.111  19.626  0.00  0.00     0.342 A 
ATOM      3  N   UNL d   1     -40.518  14.703  19.343  0.00  0.00    -0.253 N 
ATOM      4  C   UNL d   1     -40.079  14.926  20.692  0.00  0.00     0.102 A 
ATOM      5  C   UNL d   1     -40.588  14.341  20.956  0.00  0.00     0.276 A 
ATOM      6  C   UNL d   1     -40.036  15.116  19.878  0.00  0.00     0.080 A 
ATOM      7  S   UNL d   1     -39.535  15.425  21.100  0.00  0.00    -0.080 SA
ATOM      8  C   UNL d   1     -39.471  15.730  19.773  0.00  0.00     0.025 A 
ATOM      9  O   UNL d   1     -41.506  13.709  19.085  0.00  0.00    -0.245 OA
ATOM     10  C   UNL d   1     -39.161  15.921  20.529  0.00  0.00     0.037 A 
ATOM     11  O   UNL d   1     -40.628  14.157  21.754  0.00  0.00    -0.266 OA
ENDROOT
BRANCH   1  12
ATOM     12  C   UNL d   1     -41.573  13.352  20.689  0.00  0.00     0.087 C 
BRANCH  12  13
ATOM     13  C   UNL d   1     -42.350  13.549  20.900  0.00  0.00     0.019 C 
BRANCH  13  14
ATOM     14  C   UNL d   1     -42.851  12.971  21.202  0.00  0.00     0.002 C 
BRANCH  14  15
ATOM     15  C   UNL d   1     -43.659  13.108  21.249  0.00  0.00     0.005 C 
BRANCH  15  16
ATOM     16  C   UNL d   1     -44.107  12.757  21.841  0.00  0.00     0.062 C 
BRANCH  16  17
ATOM     17  C   UNL d   1     -44.911  12.937  21.918  0.00  0.00     0.279 C 
ATOM     18  N   UNL d   1     -45.233  13.071  22.669  0.00  0.00    -0.208 NA
ATOM     19  O   UNL d   1     -45.386  12.981  21.245  0.00  0.00    -0.265 OA
BRANCH  18  20
ATOM     20  C   UNL d   1     -46.030  13.249  22.742  0.00  0.00     0.085 A 
ATOM     21  C   UNL d   1     -46.569  12.642  22.867  0.00  0.00     0.019 A 
ATOM     22  C   UNL d   1     -47.373  12.819  22.941  0.00  0.00     0.002 A 
ATOM     23  C   UNL d   1     -47.628  13.606  22.889  0.00  0.00     0.000 A 
ATOM     24  C   UNL d   1     -47.083  14.207  22.765  0.00  0.00     0.002 A 
ATOM     25  C   UNL d   1     -46.283  14.033  22.691  0.00  0.00     0.019 A 
ENDBRANCH  18  20
ENDBRANCH  16  17
ENDBRANCH  15  16
ENDBRANCH  14  15
ENDBRANCH  13  14
ENDBRANCH  12  13
ENDBRANCH   1  12
BRANCH   3  26
ATOM     26  C   UNL d   1     -40.494  14.874  18.536  0.00  0.00     0.147 C 
BRANCH  26  27
ATOM     27  C   UNL d   1     -40.044  14.397  18.027  0.00  0.00     0.297 C 
ATOM     28  O   UNL d   1     -40.030  13.584  18.114  0.00  0.00    -0.264 OA
ATOM     29  N   UNL d   1     -39.598  14.752  17.413  0.00  0.00    -0.203 NA
BRANCH  29  30
ATOM     30  C   UNL d   1     -39.143  14.277  16.896  0.00  0.00     0.129 C 
BRANCH  30  31
ATOM     31  C   UNL d   1     -38.469  14.586  16.535  0.00  0.00     0.137 C 
BRANCH  31  32
ATOM     32  O   UNL d   1     -38.248  14.337  15.784  0.00  0.00    -0.325 OA
ATOM     33  C   UNL d   1     -38.009  14.891  15.223  0.00  0.00     0.182 C 
ENDBRANCH  31  32
ENDBRANCH  30  31
ENDBRANCH  29  30
ENDBRANCH  26  27
ENDBRANCH   3  26
TORSDOF 12
ENDMDL
MODEL 2
REMARK VINA RESULT:      -5.0      2.698      7.869
REMARK  12 active torsions:
REMARK  status: ('A' for Active; 'I' for Inactive)
REMARK    1  A    between atoms: C_18  and  N_1 
REMARK    2  A    between atoms: C_9  and  N_3 
REMARK    3  A    between atoms: C_12  and  C_9 
REMARK       I    between atoms: N_19  and  C_12 
REMARK    4  A    between atoms: C_14  and  C_22 
REMARK       I    between atoms: N_15  and  C_14 
REMARK    5  A    between atoms: C_20  and  N_15 
REMARK    6  A    between atoms: C_27  and  C_18 
REMARK    7  A    between atoms: C_23  and  N_19 
REMARK    8  A    between atoms: O_21  and  C_24 
REMARK    9  A    between atoms: C_22  and  C_29 
REMARK   10  A    between atoms: C_24  and  C_23 
REMARK   11  A    between atoms: C_30  and  C_27 
REMARK   12  A    between atoms: C_29  and  C_30 
ROOT
ATOM      1  N   UNL d   1     -45.552  12.742  22.918  0.00  0.00    -0.225 N 
ATOM      2  C   UNL d   1     -46.073  13.376  22.992  0.00  0.00     0.342 A 
ATOM      3  N   UNL d   1     -46.864  13.251  23.225  0.00  0.00    -0.253 N 
ATOM      4  C   UNL d   1     -46.588  11.844  23.306  0.00  0.00     0.102 A 
ATOM      5  C   UNL d   1     -45.814  11.981  23.076  0.00  0.00     0.276 A 
ATOM      6  C   UNL d   1     -47.126  12.480  23.385  0.00  0.00     0.080 A 
ATOM      7  S   UNL d   1     -47.001  11.135  23.501  0.00  0.00    -0.080 SA
ATOM      8  C   UNL d   1     -47.871  12.175  23.626  0.00  0.00     0.025 A 
ATOM      9  O   UNL d   1     -45.825  14.145  22.836  0.00  0.00    -0.245 OA
ATOM     10  C   UNL d   1     -47.794  11.342  23.698  0.00  0.00     0.037 A 
ATOM     11  O   UNL d   1     -45.289  11.356  23.000  0.00  0.00    -0.266 OA
ENDROOT
BRANCH   1  12
ATOM     12  C   UNL d   1     -44.784  12.880  22.689  0.00  0.00     0.087 C 
BRANCH  12  13
ATOM     13  C   UNL d   1     -44.587  12.867  21.883  0.00  0.00     0.019 C 
BRANCH  13  14
ATOM     14  C   UNL d   1     -43.820  12.675  21.654  0.00  0.00     0.002 C 
BRANCH  14  15
ATOM     15  C   UNL d   1     -43.353  13.232  21.270  0.00  0.00     0.005 C 
BRANCH  15  16
ATOM     16  C   UNL d   1     -42.541  13.127  21.218  0.00  0.00     0.062 C 
BRANCH  16  17
ATOM     17  C   UNL d   1     -42.047  13.773  21.065  0.00  0.00     0.279 C 
ATOM     18  N   UNL d   1     -41.261  13.647  20.835  0.00  0.00    -0.208 NA
ATOM     19  O   UNL d   1     -42.341  14.540  21.141  0.00  0.00    -0.265 OA
BRANCH  18  20
ATOM     20  C   UNL d   1     -40.774  14.288  20.684  0.00  0.00     0.085 A 
ATOM     21  C   UNL d   1     -40.882  14.722  19.996  0.00  0.00     0.019 A 
ATOM     22  C   UNL d   1     -40.392  15.370  19.841  0.00  0.00     0.002 A 
ATOM     23  C   UNL d   1     -39.797  15.576  20.381  0.00  0.00     0.000 A 
ATOM     24  C   UNL d   1     -39.696  15.136  21.067  0.00  0.00     0.002 A 
ATOM     25  C   UNL d   1     -40.182  14.492  21.222  0.00  0.00     0.019 A 
ENDBRANCH  18  20
ENDBRANCH  16  17
ENDBRANCH  15  16
ENDBRANCH  14  15
ENDBRANCH  13  14
ENDBRANCH  12  13
ENDBRANCH   1  12
BRANCH   3  26
ATOM     26  C   UNL d   1     -47.376  13.894  23.296  0.00  0.00     0.147 C 
BRANCH  26  27
ATOM     27  C   UNL d   1     -47.874  14.097  22.663  0.00  0.00     0.297 C 
ATOM     28  O   UNL d   1     -47.684  13.890  21.896  0.00  0.00    -0.264 OA
ATOM     29  N   UNL d   1     -48.580  14.520  22.812  0.00  0.00    -0.203 NA
BRANCH  29  30
ATOM     30  C   UNL d   1     -49.086  14.729  22.178  0.00  0.00     0.129 C 
BRANCH  30  31
ATOM     31  C   UNL d   1     -49.720  15.241  22.306  0.00  0.00     0.137 C 
BRANCH  31  32
ATOM     32  O   UNL d   1     -50.426  15.137  21.900  0.00  0.00    -0.325 OA
ATOM     33  C   UNL d   1     -51.036  14.702  22.245  0.00  0.00     0.182 C 
ENDBRANCH  31  32
ENDBRANCH  30  31
ENDBRANCH  29  30
ENDBRANCH  26  27
ENDBRANCH   3  26
TORSDOF 12
ENDMDL
MODEL 3
REMARK VINA RESULT:      -3.8      2.469      7.994
REMARK  12 active torsions:
REMARK  status: ('A' for Active; 'I' for Inactive)
REMARK    1  A    between atoms: C_18  and  N_1 
REMARK    2  A    between atoms: C_9  and  N_3 
REMARK    3  A    between atoms: C_12  and  C_9 
REMARK       I    between atoms: N_19  and  C_12 
REMARK    4  A    between atoms: C_14  and  C_22 
REMARK       I    between atoms: N_15  and  C_14 
REMARK    5  A    between atoms: C_20  and  N_15 
REMARK    6  A    between atoms: C_27  and  C_18 
REMARK    7  A    between atoms: C_23  and  N_19 
REMARK    8  A    between atoms: O_21  and  C_24 
REMARK    9  A    between atoms: C_22  and  C_29 
REMARK   10  A    between atoms: C_24  and  C_23 
REMARK   11  A    between atoms: C_30  and  C_27 
REMARK   12  A    between atoms: C_29  and  C_30 
ROOT
ATOM      1  N   UNL d   1     -45.489  12.848  22.363  0.00  0.00    -0.225 N 
ATOM      2  C   UNL d   1     -45.945  12.371  22.858  0.00  0.00     0.342 A 
ATOM      3  N   UNL d   1     -46.644  12.665  23.204  0.00  0.00    -0.253 N 
ATOM      4  C   UNL d   1     -46.410  13.919  22.546  0.00  0.00     0.102 A 
ATOM      5  C   UNL d   1     -45.726  13.618  22.212  0.00  0.00     0.276 A 
ATOM      6  C   UNL d   1     -46.881  13.444  23.050  0.00  0.00     0.080 A 
ATOM      7  S   UNL d   1     -46.780  14.675  22.489  0.00  0.00    -0.080 SA
ATOM      8  C   UNL d   1     -47.541  13.897  23.307  0.00  0.00     0.025 A 
ATOM      9  O   UNL d   1     -45.720  11.595  23.019  0.00  0.00    -0.245 OA
ATOM     10  C   UNL d   1     -47.479  14.659  22.960  0.00  0.00     0.037 A 
ATOM     11  O   UNL d   1     -45.266  14.085  21.719  0.00  0.00    -0.266 OA
ENDROOT
BRANCH   1  12
ATOM     12  C   UNL d   1     -44.810  12.546  22.033  0.00  0.00     0.087 C 
BRANCH  12  13
ATOM     13  C   UNL d   1     -44.148  13.036  21.937  0.00  0.00     0.019 C 
BRANCH  13  14
ATOM     14  C   UNL d   1     -43.478  12.747  21.554  0.00  0.00     0.002 C 
BRANCH  14  15
ATOM     15  C   UNL d   1     -42.963  13.264  21.179  0.00  0.00     0.005 C 
BRANCH  15  16
ATOM     16  C   UNL d   1     -42.151  13.174  21.262  0.00  0.00     0.062 C 
BRANCH  16  17
ATOM     17  C   UNL d   1     -41.640  13.796  21.067  0.00  0.00     0.279 C 
ATOM     18  N   UNL d   1     -40.839  13.752  21.272  0.00  0.00    -0.208 NA
ATOM     19  O   UNL d   1     -41.934  14.456  20.669  0.00  0.00    -0.265 OA
BRANCH  18  20
ATOM     20  C   UNL d   1     -40.336  14.369  21.078  0.00  0.00     0.085 A 
ATOM     21  C   UNL d   1     -40.016  14.405  20.323  0.00  0.00     0.019 A 
ATOM     22  C   UNL d   1     -39.508  15.027  20.125  0.00  0.00     0.002 A 
ATOM     23  C   UNL d   1     -39.327  15.607  20.689  0.00  0.00     0.000 A 
ATOM     24  C   UNL d   1     -39.651  15.563  21.441  0.00  0.00     0.002 A 
ATOM     25  C   UNL d   1     -40.156  14.946  21.640  0.00  0.00     0.019 A 
ENDBRANCH  18  20
ENDBRANCH  16  17
ENDBRANCH  15  16
ENDBRANCH  14  15
ENDBRANCH  13  14
ENDBRANCH  12  13
ENDBRANCH   1  12
BRANCH   3  26
ATOM     26  C   UNL d   1     -47.092  12.178  23.698  0.00  0.00     0.147 C 
BRANCH  26  27
ATOM     27  C   UNL d   1     -47.725  11.742  23.384  0.00  0.00     0.297 C 
ATOM     28  O   UNL d   1     -47.608  11.210  22.775  0.00  0.00    -0.264 OA
ATOM     29  N   UNL d   1     -48.495  11.848  23.696  0.00  0.00    -0.203 NA
BRANCH  29  30
ATOM     30  C   UNL d   1     -49.137  11.411  23.384  0.00  0.00     0.129 C 
BRANCH  30  31
ATOM     31  C   UNL d   1     -49.907  11.568  23.637  0.00  0.00     0.137 C 
BRANCH  31  32
ATOM     32  O   UNL d   1     -50.495  11.747  23.093  0.00  0.00    -0.325 OA
ATOM     33  C   UNL d   1     -51.015  12.369  23.242  0.00  0.00     0.182 C 
ENDBRANCH  31  32
ENDBRANCH  30  31
ENDBRANCH  29  30
ENDBRANCH  26  27
ENDBRANCH   3  26
TORSDOF 12
ENDMDL
