MODEL 1
REMARK VINA RESULT:      -9.0      0.000      0.000
REMARK  4 active torsions:
REMARK  status: ('A' for Active; 'I' for Inactive)
REMARK    1  A    between atoms: C_5  and  N_1 
REMARK    2  A    between atoms: C_7  and  C_5 
REMARK    3  A    between atoms: O_11  and  C_8 
REMARK    4  A    between atoms: C_16  and  O_11 
ROOT
ATOM      1  N   UNL d   1     -48.698  12.205  23.517  0.00  0.00    -0.251 N 
ATOM      2  C   UNL d   1     -48.866  11.391  23.603  0.00  0.00     0.378 A 
ATOM      3  C   UNL d   1     -47.885  12.296  23.439  0.00  0.00     0.092 A 
ATOM      4  O   UNL d   1     -48.117  11.048  23.568  0.00  0.00    -0.258 OA
ATOM      5  C   UNL d   1     -47.539  11.541  23.474  0.00  0.00     0.121 A 
ATOM      6  O   UNL d   1     -49.618  11.052  23.698  0.00  0.00    -0.237 OA
ATOM      7  C   UNL d   1     -47.412  12.961  23.339  0.00  0.00     0.020 A 
ATOM      8  C   UNL d   1     -46.711  11.458  23.410  0.00  0.00     0.026 A 
ATOM      9  C   UNL d   1     -46.584  12.877  23.275  0.00  0.00     0.002 A 
ATOM     10  C   UNL d   1     -46.228  12.128  23.309  0.00  0.00     0.002 A 
ATOM     11  C   UNL d   1     -46.106  13.561  23.174  0.00  0.00     0.000 C 
ENDROOT
BRANCH   1  12
ATOM     12  C   UNL d   1     -49.259  12.803  23.514  0.00  0.00     0.087 C 
BRANCH  12  13
ATOM     13  C   UNL d   1     -49.652  13.005  22.817  0.00  0.00     0.041 A 
ATOM     14  C   UNL d   1     -50.005  13.746  22.751  0.00  0.00     0.101 A 
ATOM     15  C   UNL d   1     -50.397  13.944  22.053  0.00  0.00     0.025 A 
ATOM     16  C   UNL d   1     -50.437  13.409  21.427  0.00  0.00     0.002 A 
ATOM     17  C   UNL d   1     -50.079  12.663  21.500  0.00  0.00     0.000 A 
ATOM     18  C   UNL d   1     -49.688  12.465  22.198  0.00  0.00     0.004 A 
BRANCH  14  19
ATOM     19  O   UNL d   1     -49.948  14.258  23.391  0.00  0.00    -0.307 OA
BRANCH  19  20
ATOM     20  C   UNL d   1     -50.267  15.025  23.339  0.00  0.00     0.100 C 
ATOM     21  C   UNL d   1     -51.062  15.156  23.530  0.00  0.00     0.027 C 
ATOM     22  C   UNL d   1     -49.790  15.654  23.096  0.00  0.00     0.027 C 
ENDBRANCH  19  20
ENDBRANCH  14  19
ENDBRANCH  12  13
ENDBRANCH   1  12
TORSDOF 4
ENDMDL
MODEL 2
REMARK VINA RESULT:      -8.3      1.296      3.709
REMARK  4 active torsions:
REMARK  status: ('A' for Active; 'I' for Inactive)
REMARK    1  A    between atoms: C_5  and  N_1 
REMARK    2  A    between atoms: C_7  and  C_5 
REMARK    3  A    between atoms: O_11  and  C_8 
REMARK    4  A    between atoms: C_16  and  O_11 
ROOT
ATOM      1  N   UNL d   1     -49.236  13.358  21.934  0.00  0.00    -0.251 N 
ATOM      2  C   UNL d   1     -49.760  12.845  21.533  0.00  0.00     0.378 A 
ATOM      3  C   UNL d   1     -49.678  13.953  22.290  0.00  0.00     0.092 A 
ATOM      4  O   UNL d   1     -50.496  13.184  21.685  0.00  0.00    -0.258 OA
ATOM      5  C   UNL d   1     -50.479  13.817  22.114  0.00  0.00     0.121 A 
ATOM      6  O   UNL d   1     -49.549  12.169  21.099  0.00  0.00    -0.237 OA
ATOM      7  C   UNL d   1     -49.461  14.600  22.748  0.00  0.00     0.020 A 
ATOM      8  C   UNL d   1     -51.063  14.337  22.404  0.00  0.00     0.026 A 
ATOM      9  C   UNL d   1     -50.046  15.120  23.038  0.00  0.00     0.002 A 
ATOM     10  C   UNL d   1     -50.849  14.993  22.869  0.00  0.00     0.002 A 
ATOM     11  C   UNL d   1     -49.819  15.779  23.507  0.00  0.00     0.000 C 
ENDROOT
BRANCH   1  12
ATOM     12  C   UNL d   1     -48.421  13.271  21.960  0.00  0.00     0.087 C 
BRANCH  12  13
ATOM     13  C   UNL d   1     -48.071  12.769  22.513  0.00  0.00     0.041 A 
ATOM     14  C   UNL d   1     -47.268  12.846  22.679  0.00  0.00     0.101 A 
ATOM     15  C   UNL d   1     -46.922  12.342  23.232  0.00  0.00     0.025 A 
ATOM     16  C   UNL d   1     -47.371  11.768  23.617  0.00  0.00     0.002 A 
ATOM     17  C   UNL d   1     -48.181  11.695  23.446  0.00  0.00     0.000 A 
ATOM     18  C   UNL d   1     -48.527  12.199  22.892  0.00  0.00     0.004 A 
BRANCH  14  19
ATOM     19  O   UNL d   1     -46.847  13.427  22.280  0.00  0.00    -0.307 OA
BRANCH  19  20
ATOM     20  C   UNL d   1     -46.037  13.536  22.439  0.00  0.00     0.100 C 
ATOM     21  C   UNL d   1     -45.792  14.158  22.927  0.00  0.00     0.027 C 
ATOM     22  C   UNL d   1     -45.480  13.023  22.111  0.00  0.00     0.027 C 
ENDBRANCH  19  20
ENDBRANCH  14  19
ENDBRANCH  12  13
ENDBRANCH   1  12
TORSDOF 4
ENDMDL
MODEL 3
REMARK VINA RESULT:      -7.7      1.473      2.047
REMARK  4 active torsions:
REMARK  status: ('A' for Active; 'I' for Inactive)
REMARK    1  A    between atoms: C_5  and  N_1 
REMARK    2  A    between atoms: C_7  and  C_5 
REMARK    3  A    between atoms: O_11  and  C_8 
REMARK    4  A    between atoms: C_16  and  O_11 
ROOT
ATOM      1  N   UNL d   1     -47.320  13.818  23.031  0.00  0.00    -0.251 N 
ATOM      2  C   UNL d   1     -46.717  14.322  22.745  0.00  0.00     0.378 A 
ATOM      3  C   UNL d   1     -47.004  13.065  23.129  0.00  0.00     0.092 A 
ATOM      4  O   UNL d   1     -46.069  13.816  22.692  0.00  0.00    -0.258 OA
ATOM      5  C   UNL d   1     -46.204  13.093  22.905  0.00  0.00     0.121 A 
ATOM      6  O   UNL d   1     -46.796  15.130  22.570  0.00  0.00    -0.237 OA
ATOM      7  C   UNL d   1     -47.334  12.359  23.390  0.00  0.00     0.020 A 
ATOM      8  C   UNL d   1     -45.736  12.404  22.945  0.00  0.00     0.026 A 
ATOM      9  C   UNL d   1     -46.865  11.670  23.430  0.00  0.00     0.002 A 
ATOM     10  C   UNL d   1     -46.065  11.686  23.209  0.00  0.00     0.002 A 
ATOM     11  C   UNL d   1     -47.208  10.951  23.698  0.00  0.00     0.000 C 
ENDROOT
BRANCH   1  12
ATOM     12  C   UNL d   1     -48.092  14.048  23.185  0.00  0.00     0.087 C 
BRANCH  12  13
ATOM     13  C   UNL d   1     -48.661  14.028  22.588  0.00  0.00     0.041 A 
ATOM     14  C   UNL d   1     -49.408  14.346  22.730  0.00  0.00     0.101 A 
ATOM     15  C   UNL d   1     -49.974  14.324  22.132  0.00  0.00     0.025 A 
ATOM     16  C   UNL d   1     -49.799  13.990  21.399  0.00  0.00     0.002 A 
ATOM     17  C   UNL d   1     -49.044  13.671  21.262  0.00  0.00     0.000 A 
ATOM     18  C   UNL d   1     -48.478  13.692  21.860  0.00  0.00     0.004 A 
BRANCH  14  19
ATOM     19  O   UNL d   1     -49.553  14.673  23.470  0.00  0.00    -0.307 OA
BRANCH  19  20
ATOM     20  C   UNL d   1     -50.278  15.053  23.621  0.00  0.00     0.100 C 
ATOM     21  C   UNL d   1     -50.304  15.877  23.696  0.00  0.00     0.027 C 
ATOM     22  C   UNL d   1     -50.969  14.608  23.694  0.00  0.00     0.027 C 
ENDBRANCH  19  20
ENDBRANCH  14  19
ENDBRANCH  12  13
ENDBRANCH   1  12
TORSDOF 4
ENDMDL
MODEL 4
REMARK VINA RESULT:      -6.7      1.347      2.130
REMARK  4 active torsions:
REMARK  status: ('A' for Active; 'I' for Inactive)
REMARK    1  A    between atoms: C_5  and  N_1 
REMARK    2  A    between atoms: C_7  and  C_5 
REMARK    3  A    between atoms: O_11  and  C_8 
REMARK    4  A    between atoms: C_16  and  O_11 
ROOT
ATOM      1  N   UNL d   1     -47.418  12.670  23.236  0.00  0.00    -0.251 N 
ATOM      2  C   UNL d   1     -46.778  12.144  23.345  0.00  0.00     0.378 A 
ATOM      3  C   UNL d   1     -47.116  13.409  23.038  0.00  0.00     0.092 A 
ATOM      4  O   UNL d   1     -46.123  12.624  23.199  0.00  0.00    -0.258 OA
ATOM      5  C   UNL d   1     -46.287  13.350  23.022  0.00  0.00     0.121 A 
ATOM      6  O   UNL d   1     -46.833  11.342  23.549  0.00  0.00    -0.237 OA
ATOM      7  C   UNL d   1     -47.481  14.126  22.870  0.00  0.00     0.020 A 
ATOM      8  C   UNL d   1     -45.825  14.019  22.836  0.00  0.00     0.026 A 
ATOM      9  C   UNL d   1     -47.018  14.796  22.684  0.00  0.00     0.002 A 
ATOM     10  C   UNL d   1     -46.190  14.748  22.665  0.00  0.00     0.002 A 
ATOM     11  C   UNL d   1     -47.396  15.526  22.514  0.00  0.00     0.000 C 
ENDROOT
BRANCH   1  12
ATOM     12  C   UNL d   1     -48.210  12.471  23.316  0.00  0.00     0.087 C 
BRANCH  12  13
ATOM     13  C   UNL d   1     -48.662  12.279  22.653  0.00  0.00     0.041 A 
ATOM     14  C   UNL d   1     -49.483  12.328  22.695  0.00  0.00     0.101 A 
ATOM     15  C   UNL d   1     -49.931  12.135  22.031  0.00  0.00     0.025 A 
ATOM     16  C   UNL d   1     -49.566  11.895  21.332  0.00  0.00     0.002 A 
ATOM     17  C   UNL d   1     -48.738  11.847  21.296  0.00  0.00     0.000 A 
ATOM     18  C   UNL d   1     -48.289  12.040  21.960  0.00  0.00     0.004 A 
BRANCH  14  19
ATOM     19  O   UNL d   1     -49.818  12.571  23.404  0.00  0.00    -0.307 OA
BRANCH  19  20
ATOM     20  C   UNL d   1     -50.647  12.596  23.485  0.00  0.00     0.100 C 
ATOM     21  C   UNL d   1     -51.053  13.305  23.351  0.00  0.00     0.027 C 
ATOM     22  C   UNL d   1     -51.061  11.915  23.698  0.00  0.00     0.027 C 
ENDBRANCH  19  20
ENDBRANCH  14  19
ENDBRANCH  12  13
ENDBRANCH   1  12
TORSDOF 4
ENDMDL
MODEL 5
REMARK VINA RESULT:      -6.4      1.608      4.009
REMARK  4 active torsions:
REMARK  status: ('A' for Active; 'I' for Inactive)
REMARK    1  A    between atoms: C_5  and  N_1 
REMARK    2  A    between atoms: C_7  and  C_5 
REMARK    3  A    between atoms: O_11  and  C_8 
REMARK    4  A    between atoms: C_16  and  O_11 
ROOT
ATOM      1  N   UNL d   1     -48.718  13.044  21.814  0.00  0.00    -0.251 N 
ATOM      2  C   UNL d   1     -48.936  13.597  21.226  0.00  0.00     0.378 A 
ATOM      3  C   UNL d   1     -49.401  12.784  22.190  0.00  0.00     0.092 A 
ATOM      4  O   UNL d   1     -49.756  13.626  21.301  0.00  0.00    -0.258 OA
ATOM      5  C   UNL d   1     -50.049  13.172  21.842  0.00  0.00     0.121 A 
ATOM      6  O   UNL d   1     -48.419  13.998  20.715  0.00  0.00    -0.237 OA
ATOM      7  C   UNL d   1     -49.522  12.247  22.802  0.00  0.00     0.020 A 
ATOM      8  C   UNL d   1     -50.822  13.017  22.114  0.00  0.00     0.026 A 
ATOM      9  C   UNL d   1     -50.297  12.093  23.073  0.00  0.00     0.002 A 
ATOM     10  C   UNL d   1     -50.951  12.475  22.732  0.00  0.00     0.002 A 
ATOM     11  C   UNL d   1     -50.415  11.544  23.698  0.00  0.00     0.000 C 
ENDROOT
BRANCH   1  12
ATOM     12  C   UNL d   1     -47.950  12.808  21.976  0.00  0.00     0.087 C 
BRANCH  12  13
ATOM     13  C   UNL d   1     -47.446  13.296  22.410  0.00  0.00     0.041 A 
ATOM     14  C   UNL d   1     -46.753  12.983  22.727  0.00  0.00     0.101 A 
ATOM     15  C   UNL d   1     -46.252  13.473  23.160  0.00  0.00     0.025 A 
ATOM     16  C   UNL d   1     -46.438  14.267  23.276  0.00  0.00     0.002 A 
ATOM     17  C   UNL d   1     -47.138  14.577  22.954  0.00  0.00     0.000 A 
ATOM     18  C   UNL d   1     -47.639  14.087  22.522  0.00  0.00     0.004 A 
BRANCH  14  19
ATOM     19  O   UNL d   1     -46.594  12.187  22.595  0.00  0.00    -0.307 OA
BRANCH  19  20
ATOM     20  C   UNL d   1     -45.952  11.822  22.979  0.00  0.00     0.100 C 
ATOM     21  C   UNL d   1     -45.198  11.850  22.638  0.00  0.00     0.027 C 
ATOM     22  C   UNL d   1     -46.068  11.435  23.698  0.00  0.00     0.027 C 
ENDBRANCH  19  20
ENDBRANCH  14  19
ENDBRANCH  12  13
ENDBRANCH   1  12
TORSDOF 4
ENDMDL
