MODEL 1
REMARK VINA RESULT:       5.8      0.000      0.000
REMARK  6 active torsions:
REMARK  status: ('A' for Active; 'I' for Inactive)
REMARK    1  A    between atoms: C_3  and  N_1 
REMARK       I    between atoms: C_2  and  N_6 
REMARK       I    between atoms: N_7  and  C_2 
REMARK    2  A    between atoms: C_5  and  C_3 
REMARK    3  A    between atoms: C_8  and  C_3 
REMARK    4  A    between atoms: N_6  and  C_5 
REMARK    5  A    between atoms: C_20  and  N_7 
REMARK    6  A    between atoms: N_12  and  C_9 
ROOT
ATOM      1  C   UNL d   1     -41.537-121.804 -52.283  0.00  0.00     0.084 C 
ENDROOT
BRANCH   1   2
ATOM      2  N   UNL d   1     -41.434-120.997 -52.147  0.00  0.00    -0.300 N 
ATOM      3  C   UNL d   1     -41.533-120.449 -52.760  0.00  0.00     0.100 A 
ATOM      4  C   UNL d   1     -41.429-119.642 -52.620  0.00  0.00     0.100 A 
ATOM      5  N   UNL d   1     -41.226-119.385 -51.863  0.00  0.00    -0.299 N 
ATOM      6  C   UNL d   1     -41.126-119.925 -51.248  0.00  0.00     0.100 A 
ATOM      7  C   UNL d   1     -41.123-118.564 -51.732  0.00  0.00     0.100 C 
ATOM      8  C   UNL d   1     -41.229-120.732 -51.384  0.00  0.00     0.100 A 
ENDBRANCH   1   2
BRANCH   1   9
ATOM      9  C   UNL d   1     -41.515-122.321 -51.642  0.00  0.00     0.121 C 
BRANCH   9  10
ATOM     10  N   UNL d   1     -42.150-122.349 -51.110  0.00  0.00    -0.188 NA
ATOM     11  C   UNL d   1     -42.037-122.636 -50.347  0.00  0.00     0.369 C 
ATOM     12  N   UNL d   1     -42.672-122.664 -49.814  0.00  0.00    -0.191 NA
ATOM     13  O   UNL d   1     -41.297-122.894 -50.108  0.00  0.00    -0.242 OA
BRANCH  12  14
ATOM     14  C   UNL d   1     -42.558-122.951 -49.052  0.00  0.00     0.086 A 
ATOM     15  C   UNL d   1     -41.805-122.932 -48.710  0.00  0.00     0.022 A 
ATOM     16  C   UNL d   1     -41.691-123.219 -47.948  0.00  0.00     0.031 A 
ATOM     17  C   UNL d   1     -42.334-123.528 -47.518  0.00  0.00     0.140 A 
ATOM     18  C   UNL d   1     -43.073-123.546 -47.854  0.00  0.00     0.031 A 
ATOM     19  F   UNL d   1     -42.221-123.817 -46.749  0.00  0.00    -0.204 F 
ATOM     20  C   UNL d   1     -43.195-123.257 -48.626  0.00  0.00     0.022 A 
ENDBRANCH  12  14
ENDBRANCH   9  10
ENDBRANCH   1   9
BRANCH   1  21
ATOM     21  C   UNL d   1     -41.660-122.083 -53.053  0.00  0.00     0.018 A 
ATOM     22  C   UNL d   1     -42.317-121.826 -53.481  0.00  0.00     0.003 A 
ATOM     23  C   UNL d   1     -42.433-122.106 -54.243  0.00  0.00     0.018 A 
ATOM     24  C   UNL d   1     -41.907-122.638 -54.589  0.00  0.00     0.064 A 
ATOM     25  C   UNL d   1     -41.252-122.889 -54.154  0.00  0.00     0.018 A 
ATOM     26  C   UNL d   1     -41.127-122.616 -53.391  0.00  0.00     0.003 A 
BRANCH  24  27
ATOM     27  N   UNL d   1     -42.026-122.918 -55.356  0.00  0.00    -0.301 N 
ATOM     28  C   UNL d   1     -42.417-122.437 -55.900  0.00  0.00     0.100 C 
ATOM     29  C   UNL d   1     -41.767-123.653 -55.579  0.00  0.00     0.100 C 
ENDBRANCH  24  27
ENDBRANCH   1  21
TORSDOF 6
ENDMDL
MODEL 2
REMARK VINA RESULT:       8.3      2.397      5.581
REMARK  6 active torsions:
REMARK  status: ('A' for Active; 'I' for Inactive)
REMARK    1  A    between atoms: C_3  and  N_1 
REMARK       I    between atoms: C_2  and  N_6 
REMARK       I    between atoms: N_7  and  C_2 
REMARK    2  A    between atoms: C_5  and  C_3 
REMARK    3  A    between atoms: C_8  and  C_3 
REMARK    4  A    between atoms: N_6  and  C_5 
REMARK    5  A    between atoms: C_20  and  N_7 
REMARK    6  A    between atoms: N_12  and  C_9 
ROOT
ATOM      1  C   UNL d   1     -42.633-123.128 -50.090  0.00  0.00     0.084 C 
ENDROOT
BRANCH   1   2
ATOM      2  N   UNL d   1     -43.406-122.862 -50.201  0.00  0.00    -0.300 N 
ATOM      3  C   UNL d   1     -44.038-123.398 -50.225  0.00  0.00     0.100 A 
ATOM      4  C   UNL d   1     -44.810-123.127 -50.336  0.00  0.00     0.100 A 
ATOM      5  N   UNL d   1     -44.948-122.318 -50.423  0.00  0.00    -0.299 N 
ATOM      6  C   UNL d   1     -44.324-121.780 -50.399  0.00  0.00     0.100 A 
ATOM      7  C   UNL d   1     -45.736-122.056 -50.535  0.00  0.00     0.100 C 
ATOM      8  C   UNL d   1     -43.551-122.046 -50.289  0.00  0.00     0.100 A 
ENDBRANCH   1   2
BRANCH   1   9
ATOM      9  C   UNL d   1     -42.206-123.392 -50.743  0.00  0.00     0.121 C 
BRANCH   9  10
ATOM     10  N   UNL d   1     -41.821-122.847 -51.235  0.00  0.00    -0.188 NA
ATOM     11  C   UNL d   1     -41.779-122.980 -52.046  0.00  0.00     0.369 C 
ATOM     12  N   UNL d   1     -41.393-122.434 -52.537  0.00  0.00    -0.191 NA
ATOM     13  O   UNL d   1     -42.116-123.650 -52.373  0.00  0.00    -0.242 OA
BRANCH  12  14
ATOM     14  C   UNL d   1     -41.352-122.568 -53.348  0.00  0.00     0.086 A 
ATOM     15  C   UNL d   1     -41.496-121.950 -53.877  0.00  0.00     0.022 A 
ATOM     16  C   UNL d   1     -41.454-122.083 -54.688  0.00  0.00     0.031 A 
ATOM     17  C   UNL d   1     -41.266-122.842 -54.977  0.00  0.00     0.140 A 
ATOM     18  C   UNL d   1     -41.125-123.448 -54.456  0.00  0.00     0.031 A 
ATOM     19  F   UNL d   1     -41.224-122.978 -55.794  0.00  0.00    -0.204 F 
ATOM     20  C   UNL d   1     -41.166-123.319 -53.634  0.00  0.00     0.022 A 
ENDBRANCH  12  14
ENDBRANCH   9  10
ENDBRANCH   1   9
BRANCH   1  21
ATOM     21  C   UNL d   1     -42.299-123.127 -49.333  0.00  0.00     0.018 A 
ATOM     22  C   UNL d   1     -41.516-123.367 -49.231  0.00  0.00     0.003 A 
ATOM     23  C   UNL d   1     -41.189-123.364 -48.479  0.00  0.00     0.018 A 
ATOM     24  C   UNL d   1     -41.629-123.125 -47.823  0.00  0.00     0.064 A 
ATOM     25  C   UNL d   1     -42.411-122.886 -47.934  0.00  0.00     0.018 A 
ATOM     26  C   UNL d   1     -42.746-122.886 -48.682  0.00  0.00     0.003 A 
BRANCH  24  27
ATOM     27  N   UNL d   1     -41.298-123.123 -47.066  0.00  0.00    -0.301 N 
ATOM     28  C   UNL d   1     -41.130-122.400 -46.707  0.00  0.00     0.100 C 
ATOM     29  C   UNL d   1     -41.138-123.816 -46.677  0.00  0.00     0.100 C 
ENDBRANCH  24  27
ENDBRANCH   1  21
TORSDOF 6
ENDMDL
