MODEL 1
REMARK VINA RESULT:      -8.9      0.000      0.000
REMARK  5 active torsions:
REMARK  status: ('A' for Active; 'I' for Inactive)
REMARK    1  A    between atoms: C_4  and  S_1 
REMARK    2  A    between atoms: N_12  and  S_1 
REMARK    3  A    between atoms: N_2  and  C_17 
REMARK    4  A    between atoms: C_16  and  N_12 
REMARK    5  A    between atoms: C_17  and  C_16 
ROOT
ATOM      1  N   UNL d   1      52.428  31.554  53.249  0.00  0.00    -0.155 NA
ENDROOT
BRANCH   1   2
ATOM      2  S   UNL d   1      52.761  30.971  52.773  0.00  0.00     0.285 S 
ATOM      3  O   UNL d   1      53.050  30.534  52.136  0.00  0.00    -0.198 OA
ATOM      4  O   UNL d   1      52.554  31.588  52.261  0.00  0.00    -0.198 OA
BRANCH   2   5
ATOM      5  C   UNL d   1      52.961  30.362  53.303  0.00  0.00     0.105 A 
ATOM      6  C   UNL d   1      53.735  30.300  53.581  0.00  0.00     0.012 A 
ATOM      7  C   UNL d   1      53.937  29.702  54.103  0.00  0.00     0.001 A 
ATOM      8  C   UNL d   1      54.313  30.841  53.334  0.00  0.00     0.001 C 
ATOM      9  C   UNL d   1      53.363  29.157  54.355  0.00  0.00     0.000 A 
ATOM     10  C   UNL d   1      52.586  29.227  54.070  0.00  0.00     0.001 A 
ATOM     11  C   UNL d   1      53.553  28.552  54.879  0.00  0.00     0.000 C 
ATOM     12  C   UNL d   1      52.393  29.833  53.543  0.00  0.00     0.012 A 
ATOM     13  C   UNL d   1      51.621  29.899  53.263  0.00  0.00     0.001 C 
ENDBRANCH   2   5
ENDBRANCH   1   2
BRANCH   1  14
ATOM     14  C   UNL d   1      52.380  32.333  52.982  0.00  0.00     0.131 C 
BRANCH  14  15
ATOM     15  C   UNL d   1      51.918  32.881  53.390  0.00  0.00     0.102 C 
BRANCH  15  16
ATOM     16  N   UNL d   1      52.115  33.682  53.369  0.00  0.00    -0.304 N 
ATOM     17  C   UNL d   1      51.864  34.228  52.800  0.00  0.00     0.064 A 
ATOM     18  C   UNL d   1      52.189  34.960  52.988  0.00  0.00     0.019 A 
ATOM     19  C   UNL d   1      51.375  34.066  52.156  0.00  0.00     0.019 C 
ATOM     20  C   UNL d   1      52.641  34.875  53.672  0.00  0.00     0.018 A 
ATOM     21  C   UNL d   1      52.597  34.085  53.910  0.00  0.00     0.064 A 
ATOM     22  C   UNL d   1      53.090  35.404  54.116  0.00  0.00     0.002 A 
ATOM     23  C   UNL d   1      52.994  33.826  54.580  0.00  0.00     0.018 A 
ATOM     24  C   UNL d   1      53.442  34.353  55.024  0.00  0.00     0.002 A 
ATOM     25  C   UNL d   1      53.496  35.155  54.796  0.00  0.00     0.000 A 
ENDBRANCH  15  16
ENDBRANCH  14  15
ENDBRANCH   1  14
TORSDOF 5
ENDMDL
MODEL 2
REMARK VINA RESULT:      -7.9      2.479      4.053
REMARK  5 active torsions:
REMARK  status: ('A' for Active; 'I' for Inactive)
REMARK    1  A    between atoms: C_4  and  S_1 
REMARK    2  A    between atoms: N_12  and  S_1 
REMARK    3  A    between atoms: N_2  and  C_17 
REMARK    4  A    between atoms: C_16  and  N_12 
REMARK    5  A    between atoms: C_17  and  C_16 
ROOT
ATOM      1  N   UNL d   1      51.436  34.214  53.086  0.00  0.00    -0.155 NA
ENDROOT
BRANCH   1   2
ATOM      2  S   UNL d   1      52.214  34.387  52.878  0.00  0.00     0.285 S 
ATOM      3  O   UNL d   1      52.893  34.666  52.503  0.00  0.00    -0.198 OA
ATOM      4  O   UNL d   1      51.742  34.745  52.300  0.00  0.00    -0.198 OA
BRANCH   2   5
ATOM      5  C   UNL d   1      52.670  34.020  53.468  0.00  0.00     0.105 A 
ATOM      6  C   UNL d   1      52.850  33.218  53.407  0.00  0.00     0.012 A 
ATOM      7  C   UNL d   1      53.300  32.851  53.986  0.00  0.00     0.001 A 
ATOM      8  C   UNL d   1      52.579  32.776  52.760  0.00  0.00     0.001 C 
ATOM      9  C   UNL d   1      53.575  33.288  54.638  0.00  0.00     0.000 A 
ATOM     10  C   UNL d   1      53.389  34.095  54.691  0.00  0.00     0.001 A 
ATOM     11  C   UNL d   1      54.027  32.932  55.226  0.00  0.00     0.000 C 
ATOM     12  C   UNL d   1      52.936  34.455  54.102  0.00  0.00     0.012 A 
ATOM     13  C   UNL d   1      52.754  35.256  54.160  0.00  0.00     0.001 C 
ENDBRANCH   2   5
ENDBRANCH   1   2
BRANCH   1  14
ATOM     14  C   UNL d   1      50.809  34.522  52.646  0.00  0.00     0.131 C 
BRANCH  14  15
ATOM     15  C   UNL d   1      50.035  34.307  52.828  0.00  0.00     0.102 C 
BRANCH  15  16
ATOM     16  N   UNL d   1      49.404  34.696  52.465  0.00  0.00    -0.304 N 
ATOM     17  C   UNL d   1      49.158  34.596  51.682  0.00  0.00     0.064 A 
ATOM     18  C   UNL d   1      48.512  35.090  51.551  0.00  0.00     0.019 A 
ATOM     19  C   UNL d   1      49.499  34.090  51.128  0.00  0.00     0.019 C 
ATOM     20  C   UNL d   1      48.354  35.499  52.250  0.00  0.00     0.018 A 
ATOM     21  C   UNL d   1      48.904  35.257  52.817  0.00  0.00     0.064 A 
ATOM     22  C   UNL d   1      47.785  36.059  52.454  0.00  0.00     0.002 A 
ATOM     23  C   UNL d   1      48.889  35.569  53.577  0.00  0.00     0.018 A 
ATOM     24  C   UNL d   1      48.322  36.128  53.782  0.00  0.00     0.002 A 
ATOM     25  C   UNL d   1      47.759  36.382  53.219  0.00  0.00     0.000 A 
ENDBRANCH  15  16
ENDBRANCH  14  15
ENDBRANCH   1  14
TORSDOF 5
ENDMDL
MODEL 3
REMARK VINA RESULT:      -7.6      1.695      4.620
REMARK  5 active torsions:
REMARK  status: ('A' for Active; 'I' for Inactive)
REMARK    1  A    between atoms: C_4  and  S_1 
REMARK    2  A    between atoms: N_12  and  S_1 
REMARK    3  A    between atoms: N_2  and  C_17 
REMARK    4  A    between atoms: C_16  and  N_12 
REMARK    5  A    between atoms: C_17  and  C_16 
ROOT
ATOM      1  N   UNL d   1      52.406  33.623  52.955  0.00  0.00    -0.155 NA
ENDROOT
BRANCH   1   2
ATOM      2  S   UNL d   1      52.047  34.348  53.108  0.00  0.00     0.285 S 
ATOM      3  O   UNL d   1      51.868  35.103  53.387  0.00  0.00    -0.198 OA
ATOM      4  O   UNL d   1      52.755  34.352  53.537  0.00  0.00    -0.198 OA
BRANCH   2   5
ATOM      5  C   UNL d   1      51.341  34.324  52.670  0.00  0.00     0.105 A 
ATOM      6  C   UNL d   1      50.624  34.190  53.055  0.00  0.00     0.012 A 
ATOM      7  C   UNL d   1      49.925  34.165  52.628  0.00  0.00     0.001 A 
ATOM      8  C   UNL d   1      50.605  34.080  53.877  0.00  0.00     0.001 C 
ATOM      9  C   UNL d   1      49.937  34.275  51.804  0.00  0.00     0.000 A 
ATOM     10  C   UNL d   1      50.664  34.409  51.424  0.00  0.00     0.001 A 
ATOM     11  C   UNL d   1      49.243  34.253  51.363  0.00  0.00     0.000 C 
ATOM     12  C   UNL d   1      51.362  34.432  51.864  0.00  0.00     0.012 A 
ATOM     13  C   UNL d   1      52.080  34.565  51.483  0.00  0.00     0.001 C 
ENDBRANCH   2   5
ENDBRANCH   1   2
BRANCH   1  14
ATOM     14  C   UNL d   1      52.913  33.283  53.510  0.00  0.00     0.131 C 
BRANCH  14  15
ATOM     15  C   UNL d   1      53.445  32.698  53.278  0.00  0.00     0.102 C 
BRANCH  15  16
ATOM     16  N   UNL d   1      53.529  32.014  53.732  0.00  0.00    -0.304 N 
ATOM     17  C   UNL d   1      53.866  31.971  54.486  0.00  0.00     0.064 A 
ATOM     18  C   UNL d   1      53.837  31.187  54.735  0.00  0.00     0.019 A 
ATOM     19  C   UNL d   1      54.176  32.603  54.915  0.00  0.00     0.019 C 
ATOM     20  C   UNL d   1      53.484  30.739  54.139  0.00  0.00     0.018 A 
ATOM     21  C   UNL d   1      53.292  31.248  53.518  0.00  0.00     0.064 A 
ATOM     22  C   UNL d   1      53.307  29.938  54.071  0.00  0.00     0.002 A 
ATOM     23  C   UNL d   1      52.930  30.964  52.837  0.00  0.00     0.018 A 
ATOM     24  C   UNL d   1      52.753  30.164  52.769  0.00  0.00     0.002 A 
ATOM     25  C   UNL d   1      52.941  29.637  53.389  0.00  0.00     0.000 A 
ENDBRANCH  15  16
ENDBRANCH  14  15
ENDBRANCH   1  14
TORSDOF 5
ENDMDL
MODEL 4
REMARK VINA RESULT:      -7.3      1.292      4.663
REMARK  5 active torsions:
REMARK  status: ('A' for Active; 'I' for Inactive)
REMARK    1  A    between atoms: C_4  and  S_1 
REMARK    2  A    between atoms: N_12  and  S_1 
REMARK    3  A    between atoms: N_2  and  C_17 
REMARK    4  A    between atoms: C_16  and  N_12 
REMARK    5  A    between atoms: C_17  and  C_16 
ROOT
ATOM      1  N   UNL d   1      53.400  32.474  53.918  0.00  0.00    -0.155 NA
ENDROOT
BRANCH   1   2
ATOM      2  S   UNL d   1      53.973  33.027  53.707  0.00  0.00     0.285 S 
ATOM      3  O   UNL d   1      54.647  33.399  53.413  0.00  0.00    -0.198 OA
ATOM      4  O   UNL d   1      54.254  32.297  53.437  0.00  0.00    -0.198 OA
BRANCH   2   5
ATOM      5  C   UNL d   1      53.673  33.750  53.986  0.00  0.00     0.105 A 
ATOM      6  C   UNL d   1      53.157  34.188  53.514  0.00  0.00     0.012 A 
ATOM      7  C   UNL d   1      52.859  34.902  53.784  0.00  0.00     0.001 A 
ATOM      8  C   UNL d   1      52.936  33.910  52.765  0.00  0.00     0.001 C 
ATOM      9  C   UNL d   1      53.076  35.187  54.535  0.00  0.00     0.000 A 
ATOM     10  C   UNL d   1      53.596  34.739  55.002  0.00  0.00     0.001 A 
ATOM     11  C   UNL d   1      52.784  35.902  54.818  0.00  0.00     0.000 C 
ATOM     12  C   UNL d   1      53.891  34.021  54.721  0.00  0.00     0.012 A 
ATOM     13  C   UNL d   1      54.406  33.581  55.188  0.00  0.00     0.001 C 
ENDBRANCH   2   5
ENDBRANCH   1   2
BRANCH   1  14
ATOM     14  C   UNL d   1      53.489  31.681  53.711  0.00  0.00     0.131 C 
BRANCH  14  15
ATOM     15  C   UNL d   1      52.878  31.146  53.855  0.00  0.00     0.102 C 
BRANCH  15  16
ATOM     16  N   UNL d   1      53.013  30.337  53.773  0.00  0.00    -0.304 N 
ATOM     17  C   UNL d   1      53.024  29.916  53.061  0.00  0.00     0.064 A 
ATOM     18  C   UNL d   1      53.178  29.126  53.233  0.00  0.00     0.019 A 
ATOM     19  C   UNL d   1      52.903  30.233  52.310  0.00  0.00     0.019 C 
ATOM     20  C   UNL d   1      53.263  29.050  54.050  0.00  0.00     0.018 A 
ATOM     21  C   UNL d   1      53.162  29.797  54.387  0.00  0.00     0.064 A 
ATOM     22  C   UNL d   1      53.419  28.406  54.539  0.00  0.00     0.002 A 
ATOM     23  C   UNL d   1      53.215  29.903  55.200  0.00  0.00     0.018 A 
ATOM     24  C   UNL d   1      53.370  29.260  55.689  0.00  0.00     0.002 A 
ATOM     25  C   UNL d   1      53.475  28.498  55.362  0.00  0.00     0.000 A 
ENDBRANCH  15  16
ENDBRANCH  14  15
ENDBRANCH   1  14
TORSDOF 5
ENDMDL
MODEL 5
REMARK VINA RESULT:      -7.1      0.699      1.833
REMARK  5 active torsions:
REMARK  status: ('A' for Active; 'I' for Inactive)
REMARK    1  A    between atoms: C_4  and  S_1 
REMARK    2  A    between atoms: N_12  and  S_1 
REMARK    3  A    between atoms: N_2  and  C_17 
REMARK    4  A    between atoms: C_16  and  N_12 
REMARK    5  A    between atoms: C_17  and  C_16 
ROOT
ATOM      1  N   UNL d   1      52.945  31.535  53.406  0.00  0.00    -0.155 NA
ENDROOT
BRANCH   1   2
ATOM      2  S   UNL d   1      52.953  30.885  52.901  0.00  0.00     0.285 S 
ATOM      3  O   UNL d   1      52.922  30.391  52.242  0.00  0.00    -0.198 OA
ATOM      4  O   UNL d   1      52.810  31.543  52.419  0.00  0.00    -0.198 OA
BRANCH   2   5
ATOM      5  C   UNL d   1      53.096  30.238  53.402  0.00  0.00     0.105 A 
ATOM      6  C   UNL d   1      52.465  29.779  53.669  0.00  0.00     0.012 A 
ATOM      7  C   UNL d   1      52.601  29.140  54.163  0.00  0.00     0.001 A 
ATOM      8  C   UNL d   1      51.689  29.961  53.441  0.00  0.00     0.001 C 
ATOM      9  C   UNL d   1      53.377  28.951  54.397  0.00  0.00     0.000 A 
ATOM     10  C   UNL d   1      54.006  29.419  54.123  0.00  0.00     0.001 A 
ATOM     11  C   UNL d   1      53.528  28.312  54.892  0.00  0.00     0.000 C 
ATOM     12  C   UNL d   1      53.858  30.061  53.625  0.00  0.00     0.012 A 
ATOM     13  C   UNL d   1      54.485  30.521  53.356  0.00  0.00     0.001 C 
ENDBRANCH   2   5
ENDBRANCH   1   2
BRANCH   1  14
ATOM     14  C   UNL d   1      52.660  32.264  53.143  0.00  0.00     0.131 C 
BRANCH  14  15
ATOM     15  C   UNL d   1      52.481  32.856  53.688  0.00  0.00     0.102 C 
BRANCH  15  16
ATOM     16  N   UNL d   1      52.238  33.599  53.422  0.00  0.00    -0.304 N 
ATOM     17  C   UNL d   1      52.724  34.262  53.326  0.00  0.00     0.064 A 
ATOM     18  C   UNL d   1      52.258  34.882  53.051  0.00  0.00     0.019 A 
ATOM     19  C   UNL d   1      53.533  34.296  53.478  0.00  0.00     0.019 C 
ATOM     20  C   UNL d   1      51.483  34.610  52.975  0.00  0.00     0.018 A 
ATOM     21  C   UNL d   1      51.468  33.817  53.204  0.00  0.00     0.064 A 
ATOM     22  C   UNL d   1      50.785  34.972  52.730  0.00  0.00     0.002 A 
ATOM     23  C   UNL d   1      50.767  33.388  53.189  0.00  0.00     0.018 A 
ATOM     24  C   UNL d   1      50.070  33.748  52.944  0.00  0.00     0.002 A 
ATOM     25  C   UNL d   1      50.069  34.550  52.710  0.00  0.00     0.000 A 
ENDBRANCH  15  16
ENDBRANCH  14  15
ENDBRANCH   1  14
TORSDOF 5
ENDMDL
