MODEL 1
REMARK VINA RESULT:      -2.3      0.000      0.000
REMARK  7 active torsions:
REMARK  status: ('A' for Active; 'I' for Inactive)
REMARK    1  A    between atoms: N_6  and  C_1 
REMARK    2  A    between atoms: C_10  and  C_2 
REMARK       I    between atoms: C_8  and  N_6 
REMARK       I    between atoms: C_9  and  N_7 
REMARK    3  A    between atoms: C_12  and  C_8 
REMARK    4  A    between atoms: O_22  and  C_9 
REMARK    5  A    between atoms: O_23  and  C_10 
REMARK    6  A    between atoms: C_24  and  O_22 
REMARK    7  A    between atoms: C_25  and  O_23 
ROOT
ATOM      1  C   UNL d   1      32.717  21.384 -21.387  0.00  0.00     0.119 A 
ATOM      2  C   UNL d   1      32.535  22.189 -21.387  0.00  0.00     0.088 A 
ATOM      3  C   UNL d   1      32.843  21.836 -20.142  0.00  0.00     0.049 A 
ATOM      4  C   UNL d   1      32.616  22.462 -20.606  0.00  0.00     0.016 A 
ATOM      5  S   UNL d   1      32.910  21.163 -20.609  0.00  0.00    -0.066 SA
ATOM      6  N   UNL d   1      32.860  22.694 -18.995  0.00  0.00    -0.251 N 
ATOM      7  C   UNL d   1      32.982  22.813 -18.186  0.00  0.00     0.378 C 
ATOM      8  C   UNL d   1      32.969  21.950 -19.319  0.00  0.00     0.091 A 
ATOM      9  C   UNL d   1      32.504  23.222 -20.283  0.00  0.00     0.020 A 
ATOM     10  C   UNL d   1      32.629  23.326 -19.473  0.00  0.00     0.085 A 
ATOM     11  O   UNL d   1      33.212  22.183 -17.708  0.00  0.00    -0.237 OA
ENDROOT
BRANCH   1  12
ATOM     12  N   UNL d   1      32.709  20.879 -22.050  0.00  0.00    -0.201 NA
ATOM     13  C   UNL d   1      32.966  20.105 -21.971  0.00  0.00     0.286 C 
ATOM     14  O   UNL d   1      33.234  19.816 -21.246  0.00  0.00    -0.265 OA
BRANCH  13  15
ATOM     15  C   UNL d   1      32.959  19.605 -22.628  0.00  0.00     0.087 A 
ATOM     16  S   UNL d   1      32.904  18.780 -22.621  0.00  0.00    -0.082 SA
ATOM     17  C   UNL d   1      32.917  18.511 -23.405  0.00  0.00     0.036 A 
ATOM     18  C   UNL d   1      32.979  19.167 -23.880  0.00  0.00     0.008 A 
ATOM     19  C   UNL d   1      33.005  19.841 -23.415  0.00  0.00     0.012 A 
ENDBRANCH  13  15
ENDBRANCH   1  12
BRANCH   2  20
ATOM     20  C   UNL d   1      32.313  22.632 -22.046  0.00  0.00     0.302 C 
ATOM     21  O   UNL d   1      31.507  22.749 -22.185  0.00  0.00    -0.259 OA
BRANCH  20  22
ATOM     22  O   UNL d   1      32.894  22.949 -22.554  0.00  0.00    -0.271 OA
BRANCH  22  23
ATOM     23  C   UNL d   1      32.672  23.295 -23.267  0.00  0.00     0.126 C 
ATOM     24  C   UNL d   1      33.183  23.277 -23.919  0.00  0.00     0.029 C 
ENDBRANCH  22  23
ENDBRANCH  20  22
ENDBRANCH   2  20
BRANCH   7  25
ATOM     25  O   UNL d   1      32.873  23.560 -17.859  0.00  0.00    -0.257 OA
BRANCH  25  26
ATOM     26  C   UNL d   1      33.010  23.691 -17.056  0.00  0.00     0.128 C 
ATOM     27  C   UNL d   1      32.837  23.110 -16.496  0.00  0.00     0.029 C 
ENDBRANCH  25  26
ENDBRANCH   7  25
TORSDOF 7
ENDMDL
MODEL 2
REMARK VINA RESULT:      -0.4      1.825      5.172
REMARK  7 active torsions:
REMARK  status: ('A' for Active; 'I' for Inactive)
REMARK    1  A    between atoms: N_6  and  C_1 
REMARK    2  A    between atoms: C_10  and  C_2 
REMARK       I    between atoms: C_8  and  N_6 
REMARK       I    between atoms: C_9  and  N_7 
REMARK    3  A    between atoms: C_12  and  C_8 
REMARK    4  A    between atoms: O_22  and  C_9 
REMARK    5  A    between atoms: O_23  and  C_10 
REMARK    6  A    between atoms: C_24  and  O_22 
REMARK    7  A    between atoms: C_25  and  O_23 
ROOT
ATOM      1  C   UNL d   1      32.819  20.652 -22.433  0.00  0.00     0.119 A 
ATOM      2  C   UNL d   1      32.757  20.503 -23.243  0.00  0.00     0.088 A 
ATOM      3  C   UNL d   1      32.947  19.341 -22.623  0.00  0.00     0.049 A 
ATOM      4  C   UNL d   1      32.838  19.683 -23.351  0.00  0.00     0.016 A 
ATOM      5  S   UNL d   1      32.938  19.926 -22.046  0.00  0.00    -0.066 SA
ATOM      6  N   UNL d   1      33.031  18.051 -23.243  0.00  0.00    -0.251 N 
ATOM      7  C   UNL d   1      33.128  17.233 -23.191  0.00  0.00     0.378 C 
ATOM      8  C   UNL d   1      33.046  18.508 -22.563  0.00  0.00     0.091 A 
ATOM      9  C   UNL d   1      32.821  19.223 -24.047  0.00  0.00     0.020 A 
ATOM     10  C   UNL d   1      32.919  18.406 -23.979  0.00  0.00     0.085 A 
ATOM     11  O   UNL d   1      33.239  16.878 -22.455  0.00  0.00    -0.237 OA
ENDROOT
BRANCH   1  12
ATOM     12  N   UNL d   1      32.771  21.399 -22.066  0.00  0.00    -0.201 NA
ATOM     13  C   UNL d   1      32.631  21.445 -21.261  0.00  0.00     0.286 C 
ATOM     14  O   UNL d   1      32.536  20.763 -20.805  0.00  0.00    -0.265 OA
BRANCH  13  15
ATOM     15  C   UNL d   1      32.584  22.184 -20.897  0.00  0.00     0.087 A 
ATOM     16  S   UNL d   1      32.620  22.340 -20.087  0.00  0.00    -0.082 SA
ATOM     17  C   UNL d   1      32.549  23.159 -19.974  0.00  0.00     0.036 A 
ATOM     18  C   UNL d   1      32.472  23.493 -20.710  0.00  0.00     0.008 A 
ATOM     19  C   UNL d   1      32.491  22.906 -21.282  0.00  0.00     0.012 A 
ENDBRANCH  13  15
ENDBRANCH   1  12
BRANCH   2  20
ATOM     20  C   UNL d   1      32.636  21.071 -23.828  0.00  0.00     0.302 C 
ATOM     21  O   UNL d   1      31.906  21.082 -24.217  0.00  0.00    -0.259 OA
BRANCH  20  22
ATOM     22  O   UNL d   1      33.240  21.615 -24.017  0.00  0.00    -0.271 OA
BRANCH  22  23
ATOM     23  C   UNL d   1      33.237  21.994 -24.747  0.00  0.00     0.126 C 
ATOM     24  C   UNL d   1      33.230  22.822 -24.790  0.00  0.00     0.029 C 
ENDBRANCH  22  23
ENDBRANCH  20  22
ENDBRANCH   2  20
BRANCH   7  25
ATOM     25  O   UNL d   1      33.113  16.772 -23.872  0.00  0.00    -0.257 OA
BRANCH  25  26
ATOM     26  C   UNL d   1      32.510  16.222 -23.994  0.00  0.00     0.128 C 
ATOM     27  C   UNL d   1      32.615  15.585 -24.508  0.00  0.00     0.029 C 
ENDBRANCH  25  26
ENDBRANCH   7  25
TORSDOF 7
ENDMDL
MODEL 3
REMARK VINA RESULT:       0.0      1.474      2.150
REMARK  7 active torsions:
REMARK  status: ('A' for Active; 'I' for Inactive)
REMARK    1  A    between atoms: N_6  and  C_1 
REMARK    2  A    between atoms: C_10  and  C_2 
REMARK       I    between atoms: C_8  and  N_6 
REMARK       I    between atoms: C_9  and  N_7 
REMARK    3  A    between atoms: C_12  and  C_8 
REMARK    4  A    between atoms: O_22  and  C_9 
REMARK    5  A    between atoms: O_23  and  C_10 
REMARK    6  A    between atoms: C_24  and  O_22 
REMARK    7  A    between atoms: C_25  and  O_23 
ROOT
ATOM      1  C   UNL d   1      32.991  19.985 -22.957  0.00  0.00     0.119 A 
ATOM      2  C   UNL d   1      33.007  20.798 -23.100  0.00  0.00     0.088 A 
ATOM      3  C   UNL d   1      33.072  20.611 -21.784  0.00  0.00     0.049 A 
ATOM      4  C   UNL d   1      33.058  21.179 -22.364  0.00  0.00     0.016 A 
ATOM      5  S   UNL d   1      33.032  19.868 -22.134  0.00  0.00    -0.066 SA
ATOM      6  N   UNL d   1      33.157  21.634 -20.784  0.00  0.00    -0.251 N 
ATOM      7  C   UNL d   1      33.206  21.863 -19.992  0.00  0.00     0.378 C 
ATOM      8  C   UNL d   1      33.123  20.838 -20.977  0.00  0.00     0.091 A 
ATOM      9  C   UNL d   1      33.092  21.990 -22.174  0.00  0.00     0.020 A 
ATOM     10  C   UNL d   1      33.141  22.205 -21.379  0.00  0.00     0.085 A 
ATOM     11  O   UNL d   1      33.221  21.292 -19.399  0.00  0.00    -0.237 OA
ENDROOT
BRANCH   1  12
ATOM     12  N   UNL d   1      32.942  19.385 -23.532  0.00  0.00    -0.201 NA
ATOM     13  C   UNL d   1      32.699  18.634 -23.314  0.00  0.00     0.286 C 
ATOM     14  O   UNL d   1      32.501  18.460 -22.532  0.00  0.00    -0.265 OA
BRANCH  13  15
ATOM     15  C   UNL d   1      32.651  18.040 -23.885  0.00  0.00     0.087 A 
ATOM     16  S   UNL d   1      32.297  17.298 -23.798  0.00  0.00    -0.082 SA
ATOM     17  C   UNL d   1      32.380  16.884 -24.512  0.00  0.00     0.036 A 
ATOM     18  C   UNL d   1      32.779  17.371 -25.024  0.00  0.00     0.008 A 
ATOM     19  C   UNL d   1      32.950  18.081 -24.651  0.00  0.00     0.012 A 
ENDBRANCH  13  15
ENDBRANCH   1  12
BRANCH   2  20
ATOM     20  C   UNL d   1      32.977  21.155 -23.843  0.00  0.00     0.302 C 
ATOM     21  O   UNL d   1      33.241  20.721 -24.496  0.00  0.00    -0.259 OA
BRANCH  20  22
ATOM     22  O   UNL d   1      32.688  21.933 -23.924  0.00  0.00    -0.271 OA
BRANCH  22  23
ATOM     23  C   UNL d   1      32.363  22.177 -24.639  0.00  0.00     0.126 C 
ATOM     24  C   UNL d   1      32.471  22.955 -24.904  0.00  0.00     0.029 C 
ENDBRANCH  22  23
ENDBRANCH  20  22
ENDBRANCH   2  20
BRANCH   7  25
ATOM     25  O   UNL d   1      33.240  22.662 -19.797  0.00  0.00    -0.257 OA
BRANCH  25  26
ATOM     26  C   UNL d   1      32.962  22.928 -19.067  0.00  0.00     0.128 C 
ATOM     27  C   UNL d   1      33.115  23.697 -18.810  0.00  0.00     0.029 C 
ENDBRANCH  25  26
ENDBRANCH   7  25
TORSDOF 7
ENDMDL
