MODEL 1
REMARK VINA RESULT:      65.6      0.000      0.000
REMARK  8 active torsions:
REMARK  status: ('A' for Active; 'I' for Inactive)
REMARK    1  A    between atoms: C_2  and  C_1 
REMARK    2  A    between atoms: C_5  and  C_1 
REMARK    3  A    between atoms: O_11  and  C_2 
REMARK    4  A    between atoms: C_13  and  C_3 
REMARK    5  A    between atoms: C_6  and  C_5 
REMARK    6  A    between atoms: C_23  and  O_11 
REMARK    7  A    between atoms: C_12  and  S_14 
REMARK    8  A    between atoms: S_14  and  C_18 
ROOT
ATOM      1  C   UNL d   1      59.826  49.476  50.800  0.00  0.00     0.134 C 
ATOM      2  C   UNL d   1      59.891  49.591  51.614  0.00  0.00     0.106 C 
ATOM      3  N   UNL d   1      59.960  49.704  52.428  0.00  0.00    -0.191 NA
ENDROOT
BRANCH   1   4
ATOM      4  C   UNL d   1      59.106  49.626  50.424  0.00  0.00     0.310 C 
ATOM      5  O   UNL d   1      59.076  49.703  49.602  0.00  0.00    -0.258 OA
BRANCH   4   6
ATOM      6  O   UNL d   1      58.411  49.698  50.868  0.00  0.00    -0.273 OA
BRANCH   6   7
ATOM      7  C   UNL d   1      57.722  49.342  50.608  0.00  0.00     0.103 C 
ATOM      8  C   UNL d   1      57.480  48.621  50.927  0.00  0.00     0.027 C 
ATOM      9  C   UNL d   1      57.264  49.707  50.024  0.00  0.00     0.027 C 
ENDBRANCH   6   7
ENDBRANCH   4   6
ENDBRANCH   1   4
BRANCH   1  10
ATOM     10  C   UNL d   1      60.469  49.215  50.362  0.00  0.00     0.040 C 
BRANCH  10  11
ATOM     11  C   UNL d   1      60.857  48.529  50.584  0.00  0.00     0.101 A 
ATOM     12  O   UNL d   1      60.879  47.924  50.029  0.00  0.00    -0.307 OA
ATOM     13  C   UNL d   1      61.290  47.291  50.355  0.00  0.00     0.100 A 
ATOM     14  C   UNL d   1      61.524  47.505  51.116  0.00  0.00     0.027 A 
ATOM     15  C   UNL d   1      61.263  48.260  51.263  0.00  0.00     0.027 A 
BRANCH  13  16
ATOM     16  C   UNL d   1      61.443  46.573  49.993  0.00  0.00     0.023 A 
ATOM     17  C   UNL d   1      61.000  45.988  50.385  0.00  0.00     0.003 A 
ATOM     18  C   UNL d   1      61.047  45.199  50.133  0.00  0.00     0.007 A 
ATOM     19  C   UNL d   1      61.530  44.995  49.499  0.00  0.00     0.034 A 
ATOM     20  C   UNL d   1      61.968  45.575  49.111  0.00  0.00     0.007 A 
ATOM     21  C   UNL d   1      61.928  46.365  49.354  0.00  0.00     0.003 A 
BRANCH  19  22
ATOM     22  S   UNL d   1      61.574  44.212  49.253  0.00  0.00    -0.028 SA
BRANCH  22  23
ATOM     23  C   UNL d   1      62.197  43.738  49.505  0.00  0.00     0.309 C 
ATOM     24  F   UNL d   1      62.118  43.280  50.186  0.00  0.00    -0.165 F 
ATOM     25  F   UNL d   1      62.901  43.721  49.077  0.00  0.00    -0.165 F 
ENDBRANCH  22  23
ENDBRANCH  19  22
ENDBRANCH  13  16
ENDBRANCH  10  11
ENDBRANCH   1  10
TORSDOF 8
ENDMDL
