MODEL 1
REMARK VINA RESULT:       0.2      0.000      0.000
REMARK  4 active torsions:
REMARK  status: ('A' for Active; 'I' for Inactive)
REMARK    1  A    between atoms: S_5  and  C_2 
REMARK    2  A    between atoms: C_15  and  S_5 
REMARK    3  A    between atoms: N_11  and  C_8 
REMARK    4  A    between atoms: C_12  and  N_11 
ROOT
ATOM      1  C   UNL d   1      58.753  -0.208  30.520  0.00  0.00     0.197 A 
ATOM      2  C   UNL d   1      58.388  -0.022  31.241  0.00  0.00     0.227 A 
ATOM      3  N   UNL d   1      59.455   0.226  30.473  0.00  0.00    -0.192 N 
ATOM      4  N   UNL d   1      58.540  -0.713  29.904  0.00  0.00    -0.206 NA
ATOM      5  N   UNL d   1      58.864   0.525  31.637  0.00  0.00    -0.115 NA
ATOM      6  N   UNL d   1      59.526   0.682  31.163  0.00  0.00    -0.058 NA
ATOM      7  C   UNL d   1      59.028  -0.786  29.237  0.00  0.00     0.166 A 
ATOM      8  C   UNL d   1      59.727  -0.350  29.196  0.00  0.00     0.054 A 
ATOM      9  C   UNL d   1      59.947   0.157  29.808  0.00  0.00     0.089 A 
ATOM     10  C   UNL d   1      60.219  -0.420  28.530  0.00  0.00     0.005 A 
ATOM     11  C   UNL d   1      60.645   0.591  29.763  0.00  0.00     0.019 A 
ATOM     12  C   UNL d   1      60.917   0.014  28.486  0.00  0.00     0.000 A 
ATOM     13  C   UNL d   1      61.130   0.519  29.103  0.00  0.00     0.002 A 
ENDROOT
BRANCH   2  14
ATOM     14  S   UNL d   1      57.673  -0.332  31.514  0.00  0.00     0.231 S 
ATOM     15  O   UNL d   1      58.091  -0.688  32.128  0.00  0.00    -0.215 OA
ATOM     16  O   UNL d   1      57.258   0.024  30.899  0.00  0.00    -0.215 OA
BRANCH  14  17
ATOM     17  C   UNL d   1      56.984  -0.659  31.817  0.00  0.00     0.090 A 
ATOM     18  C   UNL d   1      56.821  -1.458  31.716  0.00  0.00     0.011 A 
ATOM     19  C   UNL d   1      56.135  -1.781  32.018  0.00  0.00     0.001 A 
ATOM     20  C   UNL d   1      55.599  -1.303  32.430  0.00  0.00     0.000 A 
ATOM     21  C   UNL d   1      55.764  -0.499  32.531  0.00  0.00     0.001 A 
ATOM     22  C   UNL d   1      56.451  -0.178  32.227  0.00  0.00     0.011 A 
ENDBRANCH  14  17
ENDBRANCH   2  14
BRANCH   7  23
ATOM     23  N   UNL d   1      58.815  -1.292  28.621  0.00  0.00    -0.227 NA
BRANCH  23  24
ATOM     24  C   UNL d   1      58.897  -2.106  28.708  0.00  0.00     0.083 A 
ATOM     25  C   UNL d   1      59.617  -2.424  28.957  0.00  0.00     0.019 A 
ATOM     26  C   UNL d   1      59.699  -3.239  29.044  0.00  0.00     0.002 A 
ATOM     27  C   UNL d   1      60.418  -3.557  29.293  0.00  0.00     0.000 C 
ATOM     28  C   UNL d   1      59.060  -3.742  28.882  0.00  0.00     0.000 A 
ATOM     29  C   UNL d   1      58.339  -3.415  28.633  0.00  0.00     0.002 A 
ATOM     30  C   UNL d   1      58.260  -2.602  28.547  0.00  0.00     0.019 A 
ATOM     31  C   UNL d   1      57.703  -3.911  28.471  0.00  0.00     0.000 C 
ENDBRANCH  23  24
ENDBRANCH   7  23
TORSDOF 4
ENDMDL
