MODEL 1
REMARK VINA RESULT:      17.8      0.000      0.000
REMARK  2 active torsions:
REMARK  status: ('A' for Active; 'I' for Inactive)
REMARK    1  A    between atoms: C_7  and  C_1 
REMARK    2  A    between atoms: O_19  and  C_15 
ROOT
ATOM      1  C   UNL d   1      45.902 -16.888  44.323  0.00  0.00     0.064 A 
ATOM      2  C   UNL d   1      45.920 -17.169  43.538  0.00  0.00     0.199 A 
ATOM      3  C   UNL d   1      46.102 -17.961  43.381  0.00  0.00     0.062 A 
ATOM      4  C   UNL d   1      46.068 -17.411  44.955  0.00  0.00     0.126 A 
ATOM      5  C   UNL d   1      46.268 -18.481  44.016  0.00  0.00     0.106 A 
ATOM      6  O   UNL d   1      46.252 -18.211  44.796  0.00  0.00    -0.305 OA
ATOM      7  C   UNL d   1      46.120 -18.236  42.608  0.00  0.00     0.009 A 
ATOM      8  C   UNL d   1      46.450 -19.272  43.859  0.00  0.00     0.067 A 
ATOM      9  O   UNL d   1      45.756 -16.654  42.915  0.00  0.00    -0.286 OA
ATOM     10  C   UNL d   1      46.465 -19.539  43.077  0.00  0.00     0.198 A 
ATOM     11  C   UNL d   1      46.301 -19.024  42.454  0.00  0.00     0.042 A 
ATOM     12  O   UNL d   1      46.646 -20.328  42.922  0.00  0.00    -0.286 OA
ENDROOT
BRANCH   1  13
ATOM     13  C   UNL d   1      45.721 -16.103  44.474  0.00  0.00     0.005 A 
ATOM     14  C   UNL d   1      44.967 -15.902  44.741  0.00  0.00     0.002 A 
ATOM     15  C   UNL d   1      44.788 -15.112  44.891  0.00  0.00     0.024 A 
ATOM     16  C   UNL d   1      45.355 -14.523  44.778  0.00  0.00     0.094 A 
ATOM     17  C   UNL d   1      46.114 -14.734  44.508  0.00  0.00     0.024 A 
ATOM     18  C   UNL d   1      46.294 -15.523  44.357  0.00  0.00     0.002 A 
BRANCH  16  19
ATOM     19  O   UNL d   1      45.177 -13.734  44.928  0.00  0.00    -0.328 OA
ATOM     20  C   UNL d   1      45.578 -13.134  44.525  0.00  0.00     0.181 C 
ENDBRANCH  16  19
ENDBRANCH   1  13
TORSDOF 2
ENDMDL
