MODEL 1
REMARK VINA RESULT:       8.8      0.000      0.000
REMARK  2 active torsions:
REMARK  status: ('A' for Active; 'I' for Inactive)
REMARK       I    between atoms: N_2  and  C_1 
REMARK    1  A    between atoms: C_6  and  C_1 
REMARK    2  A    between atoms: C_4  and  N_2 
ROOT
ATOM      1  C   UNL d   1      57.564  49.697  50.376  0.00  0.00     0.085 A 
ATOM      2  C   UNL d   1      57.559  49.681  49.545  0.00  0.00     0.019 A 
ATOM      3  C   UNL d   1      56.857  49.708  50.804  0.00  0.00     0.019 A 
ATOM      4  C   UNL d   1      56.134  49.701  50.407  0.00  0.00     0.002 A 
ATOM      5  C   UNL d   1      56.836  49.675  49.148  0.00  0.00     0.002 A 
ATOM      6  C   UNL d   1      56.118  49.685  49.582  0.00  0.00     0.000 A 
ENDROOT
BRANCH   1   7
ATOM      7  N   UNL d   1      58.287  49.704  50.773  0.00  0.00    -0.207 NA
ATOM      8  C   UNL d   1      58.992  49.699  50.345  0.00  0.00     0.300 C 
ATOM      9  O   UNL d   1      58.973  49.688  49.519  0.00  0.00    -0.263 OA
BRANCH   8  10
ATOM     10  C   UNL d   1      59.715  49.705  50.742  0.00  0.00     0.184 C 
ATOM     11  N   UNL d   1      60.418  49.642  50.316  0.00  0.00    -0.141 N 
ENDBRANCH   8  10
ENDBRANCH   1   7
TORSDOF 2
ENDMDL
MODEL 2
REMARK VINA RESULT:      10.9      1.002      3.102
REMARK  2 active torsions:
REMARK  status: ('A' for Active; 'I' for Inactive)
REMARK       I    between atoms: N_2  and  C_1 
REMARK    1  A    between atoms: C_6  and  C_1 
REMARK    2  A    between atoms: C_4  and  N_2 
ROOT
ATOM      1  C   UNL d   1      59.247  49.692  50.995  0.00  0.00     0.085 A 
ATOM      2  C   UNL d   1      59.667  49.682  51.712  0.00  0.00     0.019 A 
ATOM      3  C   UNL d   1      59.645  49.692  50.271  0.00  0.00     0.019 A 
ATOM      4  C   UNL d   1      60.470  49.681  50.253  0.00  0.00     0.002 A 
ATOM      5  C   UNL d   1      60.492  49.671  51.695  0.00  0.00     0.002 A 
ATOM      6  C   UNL d   1      60.896  49.670  50.959  0.00  0.00     0.000 A 
ENDROOT
BRANCH   1   7
ATOM      7  N   UNL d   1      58.422  49.703  51.013  0.00  0.00    -0.207 NA
ATOM      8  C   UNL d   1      57.995  49.672  50.308  0.00  0.00     0.300 C 
ATOM      9  O   UNL d   1      58.393  49.630  49.585  0.00  0.00    -0.263 OA
BRANCH   8  10
ATOM     10  C   UNL d   1      57.171  49.683  50.325  0.00  0.00     0.184 C 
ATOM     11  N   UNL d   1      56.741  49.282  49.746  0.00  0.00    -0.141 N 
ENDBRANCH   8  10
ENDBRANCH   1   7
TORSDOF 2
ENDMDL
