MODEL 1
REMARK VINA RESULT:      51.5      0.000      0.000
REMARK  7 active torsions:
REMARK  status: ('A' for Active; 'I' for Inactive)
REMARK    1  A    between atoms: C_2  and  S_1 
REMARK    2  A    between atoms: N_3  and  S_1 
REMARK    3  A    between atoms: C_15  and  N_3 
REMARK    4  A    between atoms: C_6  and  C_16 
REMARK       I    between atoms: N_7  and  C_6 
REMARK    5  A    between atoms: C_8  and  N_7 
REMARK    6  A    between atoms: C_17  and  C_15 
REMARK    7  A    between atoms: C_16  and  C_17 
ROOT
ATOM      1  N   UNL d   1      60.208  48.710  51.216  0.00  0.00    -0.228 N 
ATOM      2  C   UNL d   1      59.910  48.133  51.734  0.00  0.00     0.111 C 
ENDROOT
BRANCH   1   3
ATOM      3  S   UNL d   1      60.910  48.570  50.804  0.00  0.00     0.271 S 
ATOM      4  O   UNL d   1      61.414  49.197  50.634  0.00  0.00    -0.200 OA
ATOM      5  O   UNL d   1      60.407  47.933  50.972  0.00  0.00    -0.200 OA
BRANCH   3   6
ATOM      6  C   UNL d   1      61.101  47.795  50.565  0.00  0.00     0.104 A 
ATOM      7  C   UNL d   1      61.466  47.684  49.833  0.00  0.00     0.013 A 
ATOM      8  C   UNL d   1      61.656  46.916  49.595  0.00  0.00     0.001 A 
ATOM      9  C   UNL d   1      61.482  46.272  50.084  0.00  0.00     0.000 A 
ATOM     10  C   UNL d   1      61.117  46.397  50.813  0.00  0.00     0.001 A 
ATOM     11  C   UNL d   1      61.675  45.508  49.840  0.00  0.00     0.000 C 
ATOM     12  C   UNL d   1      60.926  47.163  51.054  0.00  0.00     0.013 A 
ENDBRANCH   3   6
ENDBRANCH   1   3
BRANCH   1  13
ATOM     13  C   UNL d   1      59.801  49.421  51.117  0.00  0.00     0.092 C 
BRANCH  13  14
ATOM     14  C   UNL d   1      58.979  49.432  51.139  0.00  0.00     0.025 C 
BRANCH  14  15
ATOM     15  C   UNL d   1      58.549  49.585  50.452  0.00  0.00     0.064 C 
BRANCH  15  16
ATOM     16  C   UNL d   1      57.726  49.608  50.476  0.00  0.00     0.275 C 
ATOM     17  N   UNL d   1      57.290  49.548  49.779  0.00  0.00    -0.238 NA
ATOM     18  O   UNL d   1      57.335  49.691  51.191  0.00  0.00    -0.266 OA
BRANCH  17  19
ATOM     19  C   UNL d   1      56.463  49.570  49.797  0.00  0.00     0.088 C 
ATOM     20  C   UNL d   1      56.059  49.459  50.509  0.00  0.00     0.025 C 
ATOM     21  C   UNL d   1      56.047  49.704  49.099  0.00  0.00     0.025 C 
ATOM     22  C   UNL d   1      57.058  49.454  50.358  0.00  0.00     0.025 C 
ENDBRANCH  17  19
ENDBRANCH  15  16
ENDBRANCH  14  15
ENDBRANCH  13  14
ENDBRANCH   1  13
TORSDOF 7
ENDMDL
MODEL 2
REMARK VINA RESULT:      53.0      1.326      4.475
REMARK  7 active torsions:
REMARK  status: ('A' for Active; 'I' for Inactive)
REMARK    1  A    between atoms: C_2  and  S_1 
REMARK    2  A    between atoms: N_3  and  S_1 
REMARK    3  A    between atoms: C_15  and  N_3 
REMARK    4  A    between atoms: C_6  and  C_16 
REMARK       I    between atoms: N_7  and  C_6 
REMARK    5  A    between atoms: C_8  and  N_7 
REMARK    6  A    between atoms: C_17  and  C_15 
REMARK    7  A    between atoms: C_16  and  C_17 
ROOT
ATOM      1  N   UNL d   1      60.751  49.191  50.664  0.00  0.00    -0.228 N 
ATOM      2  C   UNL d   1      61.042  49.676  50.057  0.00  0.00     0.111 C 
ENDROOT
BRANCH   1   3
ATOM      3  S   UNL d   1      60.164  49.474  51.171  0.00  0.00     0.271 S 
ATOM      4  O   UNL d   1      60.361  49.698  51.938  0.00  0.00    -0.200 OA
ATOM      5  O   UNL d   1      59.958  49.251  50.401  0.00  0.00    -0.200 OA
BRANCH   3   6
ATOM      6  C   UNL d   1      59.377  49.531  50.902  0.00  0.00     0.104 A 
ATOM      7  C   UNL d   1      59.241  49.650  50.097  0.00  0.00     0.013 A 
ATOM      8  C   UNL d   1      58.461  49.706  49.830  0.00  0.00     0.001 A 
ATOM      9  C   UNL d   1      57.831  49.644  50.362  0.00  0.00     0.000 A 
ATOM     10  C   UNL d   1      57.982  49.525  51.164  0.00  0.00     0.001 A 
ATOM     11  C   UNL d   1      57.055  49.701  50.088  0.00  0.00     0.000 C 
ATOM     12  C   UNL d   1      58.760  49.468  51.434  0.00  0.00     0.013 A 
ENDBRANCH   3   6
ENDBRANCH   1   3
BRANCH   1  13
ATOM     13  C   UNL d   1      61.050  48.428  50.759  0.00  0.00     0.092 C 
BRANCH  13  14
ATOM     14  C   UNL d   1      61.096  47.920  50.112  0.00  0.00     0.025 C 
BRANCH  14  15
ATOM     15  C   UNL d   1      61.809  47.548  49.930  0.00  0.00     0.064 C 
BRANCH  15  16
ATOM     16  C   UNL d   1      61.845  46.726  49.881  0.00  0.00     0.275 C 
ATOM     17  N   UNL d   1      61.557  46.339  49.212  0.00  0.00    -0.238 NA
ATOM     18  O   UNL d   1      62.165  46.289  50.494  0.00  0.00    -0.266 OA
BRANCH  17  19
ATOM     19  C   UNL d   1      61.590  45.514  49.157  0.00  0.00     0.088 C 
ATOM     20  C   UNL d   1      62.255  45.106  49.426  0.00  0.00     0.025 C 
ATOM     21  C   UNL d   1      60.954  45.105  48.832  0.00  0.00     0.025 C 
ATOM     22  C   UNL d   1      62.096  46.103  49.438  0.00  0.00     0.025 C 
ENDBRANCH  17  19
ENDBRANCH  15  16
ENDBRANCH  14  15
ENDBRANCH  13  14
ENDBRANCH   1  13
TORSDOF 7
ENDMDL
