MODEL 1
REMARK VINA RESULT:      93.8      0.000      0.000
REMARK  8 active torsions:
REMARK  status: ('A' for Active; 'I' for Inactive)
REMARK    1  A    between atoms: C_6  and  C_1 
REMARK    2  A    between atoms: S_11  and  C_3 
REMARK    3  A    between atoms: C_8  and  C_4 
REMARK       I    between atoms: N_10  and  C_6 
REMARK    4  A    between atoms: C_22  and  N_10 
REMARK    5  A    between atoms: C_21  and  S_11 
REMARK    6  A    between atoms: C_13  and  C_21 
REMARK    7  A    between atoms: O_20  and  C_13 
REMARK    8  A    between atoms: C_24  and  O_20 
ROOT
ATOM      1  C   UNL d   1     -50.634  25.811  33.889  0.00  0.00     0.078 A 
ATOM      2  C   UNL d   1     -50.397  27.196  33.952  0.00  0.00     0.094 A 
ATOM      3  C   UNL d   1     -49.584  27.057  33.944  0.00  0.00     0.120 A 
ATOM      4  C   UNL d   1     -50.929  26.574  33.924  0.00  0.00     0.041 A 
ATOM      5  C   UNL d   1     -49.821  25.672  33.882  0.00  0.00     0.087 A 
ATOM      6  N   UNL d   1     -49.290  26.295  33.909  0.00  0.00    -0.238 NA
ATOM      7  C   UNL d   1     -50.685  28.001  33.988  0.00  0.00     0.103 C 
ATOM      8  N   UNL d   1     -50.979  28.786  34.024  0.00  0.00    -0.191 NA
ATOM      9  C   UNL d   1     -49.506  24.884  33.846  0.00  0.00     0.021 C 
ENDROOT
BRANCH   4  10
ATOM     10  C   UNL d   1     -51.721  26.710  33.932  0.00  0.00     0.101 A 
ATOM     11  O   UNL d   1     -52.153  26.908  34.607  0.00  0.00    -0.305 OA
ATOM     12  C   UNL d   1     -52.937  27.002  34.401  0.00  0.00     0.123 A 
ATOM     13  C   UNL d   1     -52.985  26.864  33.610  0.00  0.00     0.029 A 
ATOM     14  C   UNL d   1     -52.263  26.685  33.306  0.00  0.00     0.027 A 
ENDBRANCH   4  10
BRANCH   3  15
ATOM     15  S   UNL d   1     -49.025  27.693  33.972  0.00  0.00    -0.061 SA
BRANCH  15  16
ATOM     16  C   UNL d   1     -48.907  28.104  34.686  0.00  0.00     0.105 C 
BRANCH  16  17
ATOM     17  C   UNL d   1     -48.151  28.330  34.910  0.00  0.00     0.307 C 
ATOM     18  O   UNL d   1     -47.579  27.753  35.033  0.00  0.00    -0.258 OA
BRANCH  17  19
ATOM     19  O   UNL d   1     -47.972  29.133  35.012  0.00  0.00    -0.273 OA
BRANCH  19  20
ATOM     20  C   UNL d   1     -47.336  29.358  35.474  0.00  0.00     0.103 C 
ATOM     21  C   UNL d   1     -46.567  29.171  35.239  0.00  0.00     0.027 C 
ATOM     22  C   UNL d   1     -47.472  29.772  36.174  0.00  0.00     0.027 C 
ENDBRANCH  19  20
ENDBRANCH  17  19
ENDBRANCH  16  17
ENDBRANCH  15  16
ENDBRANCH   3  15
BRANCH   1  23
ATOM     23  C   UNL d   1     -51.172  25.151  33.860  0.00  0.00     0.281 C 
ATOM     24  N   UNL d   1     -51.803  25.119  34.382  0.00  0.00    -0.208 NA
ATOM     25  O   UNL d   1     -51.051  24.552  33.306  0.00  0.00    -0.265 OA
BRANCH  24  26
ATOM     26  C   UNL d   1     -52.328  24.468  34.347  0.00  0.00     0.085 A 
ATOM     27  C   UNL d   1     -52.397  24.030  33.651  0.00  0.00     0.019 A 
ATOM     28  C   UNL d   1     -52.923  23.385  33.633  0.00  0.00     0.002 A 
ATOM     29  C   UNL d   1     -53.363  23.192  34.300  0.00  0.00     0.000 A 
ATOM     30  C   UNL d   1     -53.276  23.643  34.981  0.00  0.00     0.002 A 
ATOM     31  C   UNL d   1     -52.767  24.273  35.010  0.00  0.00     0.019 A 
ENDBRANCH  24  26
ENDBRANCH   1  23
TORSDOF 8
ENDMDL
