MODEL 1
REMARK VINA RESULT:      -2.1      0.000      0.000
REMARK  4 active torsions:
REMARK  status: ('A' for Active; 'I' for Inactive)
REMARK    1  A    between atoms: S_3  and  C_1 
REMARK    2  A    between atoms: C_7  and  S_3 
REMARK    3  A    between atoms: S_11  and  C_4 
REMARK    4  A    between atoms: C_10  and  C_5 
ROOT
ATOM      1  C   UNL d   1      30.913  17.018 -24.247  0.00  0.00     0.199 A 
ATOM      2  N   UNL d   1      31.130  17.808 -24.157  0.00  0.00    -0.208 NA
ATOM      3  C   UNL d   1      31.570  16.605 -24.529  0.00  0.00     0.156 A 
ATOM      4  C   UNL d   1      31.922  17.884 -24.384  0.00  0.00     0.184 A 
ATOM      5  O   UNL d   1      32.186  17.138 -24.612  0.00  0.00    -0.281 OA
ENDROOT
BRANCH   1   6
ATOM      6  S   UNL d   1      30.170  16.705 -24.082  0.00  0.00     0.229 S 
ATOM      7  O   UNL d   1      30.009  16.775 -24.882  0.00  0.00    -0.215 OA
ATOM      8  O   UNL d   1      30.326  16.632 -23.279  0.00  0.00    -0.215 OA
BRANCH   6   9
ATOM      9  C   UNL d   1      29.428  16.391 -23.906  0.00  0.00     0.089 A 
ATOM     10  C   UNL d   1      28.775  16.606 -24.363  0.00  0.00     0.011 A 
ATOM     11  C   UNL d   1      28.036  16.292 -24.186  0.00  0.00     0.001 A 
ATOM     12  C   UNL d   1      27.940  15.766 -23.560  0.00  0.00     0.000 A 
ATOM     13  C   UNL d   1      28.597  15.552 -23.103  0.00  0.00     0.001 A 
ATOM     14  C   UNL d   1      27.197  15.453 -23.385  0.00  0.00     0.000 C 
ATOM     15  C   UNL d   1      29.330  15.862 -23.277  0.00  0.00     0.011 A 
ENDBRANCH   6   9
ENDBRANCH   1   6
BRANCH   3  16
ATOM     16  S   UNL d   1      31.597  15.800 -24.696  0.00  0.00    -0.086 SA
ATOM     17  C   UNL d   1      32.306  15.458 -24.939  0.00  0.00     0.076 C 
ENDBRANCH   3  16
BRANCH   4  18
ATOM     18  C   UNL d   1      32.364  18.583 -24.381  0.00  0.00     0.041 A 
ATOM     19  C   UNL d   1      32.417  19.044 -25.070  0.00  0.00     0.004 A 
ATOM     20  C   UNL d   1      32.858  19.740 -25.063  0.00  0.00     0.000 A 
ATOM     21  C   UNL d   1      33.241  19.976 -24.382  0.00  0.00     0.000 A 
ATOM     22  C   UNL d   1      33.192  19.521 -23.691  0.00  0.00     0.000 A 
ATOM     23  C   UNL d   1      32.758  18.832 -23.691  0.00  0.00     0.004 A 
ENDBRANCH   4  18
TORSDOF 4
ENDMDL
MODEL 2
REMARK VINA RESULT:      -0.4      0.802      4.429
REMARK  4 active torsions:
REMARK  status: ('A' for Active; 'I' for Inactive)
REMARK    1  A    between atoms: S_3  and  C_1 
REMARK    2  A    between atoms: C_7  and  S_3 
REMARK    3  A    between atoms: S_11  and  C_4 
REMARK    4  A    between atoms: C_10  and  C_5 
ROOT
ATOM      1  C   UNL d   1      31.096  17.187 -24.121  0.00  0.00     0.199 A 
ATOM      2  N   UNL d   1      30.279  17.139 -24.024  0.00  0.00    -0.208 NA
ATOM      3  C   UNL d   1      31.401  16.421 -24.081  0.00  0.00     0.156 A 
ATOM      4  C   UNL d   1      30.077  16.343 -23.924  0.00  0.00     0.184 A 
ATOM      5  O   UNL d   1      30.775  15.906 -23.960  0.00  0.00    -0.281 OA
ENDROOT
BRANCH   1   6
ATOM      6  S   UNL d   1      31.524  17.881 -24.236  0.00  0.00     0.229 S 
ATOM      7  O   UNL d   1      31.554  17.679 -25.030  0.00  0.00    -0.215 OA
ATOM      8  O   UNL d   1      31.497  18.087 -23.442  0.00  0.00    -0.215 OA
BRANCH   6   9
ATOM      9  C   UNL d   1      31.952  18.577 -24.342  0.00  0.00     0.089 A 
ATOM     10  C   UNL d   1      32.534  18.786 -23.796  0.00  0.00     0.011 A 
ATOM     11  C   UNL d   1      32.959  19.481 -23.903  0.00  0.00     0.001 A 
ATOM     12  C   UNL d   1      32.812  19.970 -24.548  0.00  0.00     0.000 A 
ATOM     13  C   UNL d   1      32.227  19.759 -25.096  0.00  0.00     0.001 A 
ATOM     14  C   UNL d   1      33.241  20.668 -24.653  0.00  0.00     0.000 C 
ATOM     15  C   UNL d   1      31.804  19.070 -24.991  0.00  0.00     0.011 A 
ENDBRANCH   6   9
ENDBRANCH   1   6
BRANCH   3  16
ATOM     16  S   UNL d   1      32.194  16.214 -24.150  0.00  0.00    -0.086 SA
ATOM     17  C   UNL d   1      32.398  15.483 -24.472  0.00  0.00     0.076 C 
ENDBRANCH   3  16
BRANCH   4  18
ATOM     18  C   UNL d   1      29.315  16.045 -23.809  0.00  0.00     0.041 A 
ATOM     19  C   UNL d   1      29.009  15.974 -23.040  0.00  0.00     0.004 A 
ATOM     20  C   UNL d   1      28.248  15.676 -22.930  0.00  0.00     0.000 A 
ATOM     21  C   UNL d   1      27.797  15.453 -23.573  0.00  0.00     0.000 A 
ATOM     22  C   UNL d   1      28.097  15.522 -24.342  0.00  0.00     0.000 A 
ATOM     23  C   UNL d   1      28.848  15.815 -24.459  0.00  0.00     0.004 A 
ENDBRANCH   4  18
TORSDOF 4
ENDMDL
MODEL 3
REMARK VINA RESULT:      -0.1      2.603      3.978
REMARK  4 active torsions:
REMARK  status: ('A' for Active; 'I' for Inactive)
REMARK    1  A    between atoms: S_3  and  C_1 
REMARK    2  A    between atoms: C_7  and  S_3 
REMARK    3  A    between atoms: S_11  and  C_4 
REMARK    4  A    between atoms: C_10  and  C_5 
ROOT
ATOM      1  C   UNL d   1      32.917  19.679 -23.436  0.00  0.00     0.199 A 
ATOM      2  N   UNL d   1      32.892  20.332 -23.937  0.00  0.00    -0.208 NA
ATOM      3  C   UNL d   1      33.133  19.945 -22.684  0.00  0.00     0.156 A 
ATOM      4  C   UNL d   1      33.092  21.003 -23.497  0.00  0.00     0.184 A 
ATOM      5  O   UNL d   1      33.239  20.756 -22.725  0.00  0.00    -0.281 OA
ENDROOT
BRANCH   1   6
ATOM      6  S   UNL d   1      32.755  18.902 -23.654  0.00  0.00     0.229 S 
ATOM      7  O   UNL d   1      32.298  18.852 -22.975  0.00  0.00    -0.215 OA
ATOM      8  O   UNL d   1      33.210  18.947 -24.335  0.00  0.00    -0.215 OA
BRANCH   6   9
ATOM      9  C   UNL d   1      32.597  18.125 -23.881  0.00  0.00     0.089 A 
ATOM     10  C   UNL d   1      31.827  17.834 -23.835  0.00  0.00     0.011 A 
ATOM     11  C   UNL d   1      31.672  17.060 -24.062  0.00  0.00     0.001 A 
ATOM     12  C   UNL d   1      32.276  16.571 -24.334  0.00  0.00     0.000 A 
ATOM     13  C   UNL d   1      33.049  16.865 -24.380  0.00  0.00     0.001 A 
ATOM     14  C   UNL d   1      32.118  15.794 -24.561  0.00  0.00     0.000 C 
ATOM     15  C   UNL d   1      33.204  17.634 -24.155  0.00  0.00     0.011 A 
ENDBRANCH   6   9
ENDBRANCH   1   6
BRANCH   3  16
ATOM     16  S   UNL d   1      33.224  19.475 -22.016  0.00  0.00    -0.086 SA
ATOM     17  C   UNL d   1      33.238  19.826 -21.270  0.00  0.00     0.076 C 
ENDBRANCH   3  16
BRANCH   4  18
ATOM     18  C   UNL d   1      33.135  21.778 -23.783  0.00  0.00     0.041 A 
ATOM     19  C   UNL d   1      33.131  22.417 -23.252  0.00  0.00     0.004 A 
ATOM     20  C   UNL d   1      33.174  23.188 -23.541  0.00  0.00     0.000 A 
ATOM     21  C   UNL d   1      33.220  23.322 -24.345  0.00  0.00     0.000 A 
ATOM     22  C   UNL d   1      33.224  22.689 -24.879  0.00  0.00     0.000 A 
ATOM     23  C   UNL d   1      33.182  21.925 -24.601  0.00  0.00     0.004 A 
ENDBRANCH   4  18
TORSDOF 4
ENDMDL
MODEL 4
REMARK VINA RESULT:       0.0      4.806      6.514
REMARK  4 active torsions:
REMARK  status: ('A' for Active; 'I' for Inactive)
REMARK    1  A    between atoms: S_3  and  C_1 
REMARK    2  A    between atoms: C_7  and  S_3 
REMARK    3  A    between atoms: S_11  and  C_4 
REMARK    4  A    between atoms: C_10  and  C_5 
ROOT
ATOM      1  C   UNL d   1      32.773  21.693 -21.098  0.00  0.00     0.199 A 
ATOM      2  N   UNL d   1      32.845  21.700 -20.278  0.00  0.00    -0.208 NA
ATOM      3  C   UNL d   1      32.647  22.470 -21.348  0.00  0.00     0.156 A 
ATOM      4  C   UNL d   1      32.764  22.482 -20.019  0.00  0.00     0.184 A 
ATOM      5  O   UNL d   1      32.642  22.951 -20.685  0.00  0.00    -0.281 OA
ENDROOT
BRANCH   1   6
ATOM      6  S   UNL d   1      32.819  21.024 -21.576  0.00  0.00     0.229 S 
ATOM      7  O   UNL d   1      32.497  20.606 -20.949  0.00  0.00    -0.215 OA
ATOM      8  O   UNL d   1      33.142  21.439 -22.207  0.00  0.00    -0.215 OA
BRANCH   6   9
ATOM      9  C   UNL d   1      32.870  20.361 -22.062  0.00  0.00     0.089 A 
ATOM     10  C   UNL d   1      33.191  20.432 -22.819  0.00  0.00     0.011 A 
ATOM     11  C   UNL d   1      33.241  19.769 -23.302  0.00  0.00     0.001 A 
ATOM     12  C   UNL d   1      32.974  19.036 -23.041  0.00  0.00     0.000 A 
ATOM     13  C   UNL d   1      32.651  18.966 -22.281  0.00  0.00     0.001 A 
ATOM     14  C   UNL d   1      33.025  18.372 -23.528  0.00  0.00     0.000 C 
ATOM     15  C   UNL d   1      32.601  19.623 -21.800  0.00  0.00     0.011 A 
ENDBRANCH   6   9
ENDBRANCH   1   6
BRANCH   3  16
ATOM     16  S   UNL d   1      32.545  22.714 -22.127  0.00  0.00    -0.086 SA
ATOM     17  C   UNL d   1      32.188  23.441 -22.283  0.00  0.00     0.076 C 
ENDBRANCH   3  16
BRANCH   4  18
ATOM     18  C   UNL d   1      32.800  22.741 -19.234  0.00  0.00     0.041 A 
ATOM     19  C   UNL d   1      33.208  22.292 -18.667  0.00  0.00     0.004 A 
ATOM     20  C   UNL d   1      33.241  22.553 -17.886  0.00  0.00     0.000 A 
ATOM     21  C   UNL d   1      32.874  23.250 -17.671  0.00  0.00     0.000 A 
ATOM     22  C   UNL d   1      32.465  23.702 -18.232  0.00  0.00     0.000 A 
ATOM     23  C   UNL d   1      32.428  23.450 -19.006  0.00  0.00     0.004 A 
ENDBRANCH   4  18
TORSDOF 4
ENDMDL
MODEL 5
REMARK VINA RESULT:       0.1      5.780      7.470
REMARK  4 active torsions:
REMARK  status: ('A' for Active; 'I' for Inactive)
REMARK    1  A    between atoms: S_3  and  C_1 
REMARK    2  A    between atoms: C_7  and  S_3 
REMARK    3  A    between atoms: S_11  and  C_4 
REMARK    4  A    between atoms: C_10  and  C_5 
ROOT
ATOM      1  C   UNL d   1      32.870  22.368 -20.851  0.00  0.00     0.199 A 
ATOM      2  N   UNL d   1      32.848  22.873 -20.201  0.00  0.00    -0.208 NA
ATOM      3  C   UNL d   1      32.923  21.594 -20.569  0.00  0.00     0.156 A 
ATOM      4  C   UNL d   1      32.888  22.412 -19.515  0.00  0.00     0.184 A 
ATOM      5  O   UNL d   1      32.934  21.624 -19.750  0.00  0.00    -0.281 OA
ENDROOT
BRANCH   1   6
ATOM      6  S   UNL d   1      32.842  22.603 -21.640  0.00  0.00     0.229 S 
ATOM      7  O   UNL d   1      32.997  23.363 -21.374  0.00  0.00    -0.215 OA
ATOM      8  O   UNL d   1      32.687  21.844 -21.911  0.00  0.00    -0.215 OA
BRANCH   6   9
ATOM      9  C   UNL d   1      32.813  22.829 -22.432  0.00  0.00     0.089 A 
ATOM     10  C   UNL d   1      32.354  23.476 -22.656  0.00  0.00     0.011 A 
ATOM     11  C   UNL d   1      32.326  23.700 -23.446  0.00  0.00     0.001 A 
ATOM     12  C   UNL d   1      32.750  23.286 -24.016  0.00  0.00     0.000 A 
ATOM     13  C   UNL d   1      33.212  22.636 -23.790  0.00  0.00     0.001 A 
ATOM     14  C   UNL d   1      32.721  23.512 -24.809  0.00  0.00     0.000 C 
ATOM     15  C   UNL d   1      33.241  22.413 -23.006  0.00  0.00     0.011 A 
ENDBRANCH   6   9
ENDBRANCH   1   6
BRANCH   3  16
ATOM     16  S   UNL d   1      32.958  20.915 -21.031  0.00  0.00    -0.086 SA
ATOM     17  C   UNL d   1      33.228  20.210 -20.700  0.00  0.00     0.076 C 
ENDBRANCH   3  16
BRANCH   4  18
ATOM     18  C   UNL d   1      32.883  22.694 -18.738  0.00  0.00     0.041 A 
ATOM     19  C   UNL d   1      32.523  23.422 -18.563  0.00  0.00     0.004 A 
ATOM     20  C   UNL d   1      32.519  23.700 -17.786  0.00  0.00     0.000 A 
ATOM     21  C   UNL d   1      32.868  23.262 -17.193  0.00  0.00     0.000 A 
ATOM     22  C   UNL d   1      33.229  22.535 -17.361  0.00  0.00     0.000 A 
ATOM     23  C   UNL d   1      33.236  22.254 -18.125  0.00  0.00     0.004 A 
ENDBRANCH   4  18
TORSDOF 4
ENDMDL
