MODEL 1
REMARK VINA RESULT:      -9.0      0.000      0.000
REMARK  4 active torsions:
REMARK  status: ('A' for Active; 'I' for Inactive)
REMARK    1  A    between atoms: N_6  and  C_1 
REMARK    2  A    between atoms: C_7  and  N_2 
REMARK       I    between atoms: C_8  and  N_6 
REMARK    3  A    between atoms: C_19  and  C_8 
REMARK    4  A    between atoms: O_20  and  C_15 
ROOT
ATOM      1  C   UNL d   1      53.241  33.139  53.614  0.00  0.00     0.169 A 
ATOM      2  N   UNL d   1      52.701  33.763  53.712  0.00  0.00    -0.212 N 
ATOM      3  N   UNL d   1      53.003  34.244  54.309  0.00  0.00    -0.163 NA
ATOM      4  C   UNL d   1      53.849  33.251  54.145  0.00  0.00     0.062 A 
ATOM      5  C   UNL d   1      53.720  33.936  54.589  0.00  0.00     0.111 A 
ATOM      6  S   UNL d   1      54.851  33.430  55.015  0.00  0.00    -0.084 SA
ATOM      7  C   UNL d   1      54.582  32.922  54.419  0.00  0.00     0.040 A 
ATOM      8  C   UNL d   1      54.353  34.036  55.129  0.00  0.00     0.056 A 
ENDROOT
BRANCH   2   9
ATOM      9  C   UNL d   1      52.025  33.877  53.310  0.00  0.00     0.085 A 
ATOM     10  C   UNL d   1      51.317  33.660  53.627  0.00  0.00     0.021 A 
ATOM     11  C   UNL d   1      50.609  33.774  53.214  0.00  0.00     0.026 A 
ATOM     12  C   UNL d   1      50.613  34.108  52.482  0.00  0.00     0.094 A 
ATOM     13  C   UNL d   1      51.331  34.333  52.150  0.00  0.00     0.026 A 
ATOM     14  C   UNL d   1      52.039  34.218  52.562  0.00  0.00     0.021 A 
BRANCH  12  15
ATOM     15  O   UNL d   1      49.984  34.227  52.077  0.00  0.00    -0.328 OA
ATOM     16  C   UNL d   1      49.319  34.800  52.394  0.00  0.00     0.181 C 
ENDBRANCH  12  15
ENDBRANCH   2   9
BRANCH   1  17
ATOM     17  N   UNL d   1      53.154  32.564  53.099  0.00  0.00    -0.188 NA
ATOM     18  C   UNL d   1      53.134  31.781  53.341  0.00  0.00     0.292 C 
ATOM     19  O   UNL d   1      53.208  31.617  54.160  0.00  0.00    -0.264 OA
BRANCH  18  20
ATOM     20  C   UNL d   1      53.041  31.185  52.776  0.00  0.00     0.131 C 
ATOM     21 CL   UNL d   1      52.894  30.406  52.980  0.00  0.00    -0.076 Cl
ENDBRANCH  18  20
ENDBRANCH   1  17
TORSDOF 4
ENDMDL
MODEL 2
REMARK VINA RESULT:      -8.7      1.499      2.297
REMARK  4 active torsions:
REMARK  status: ('A' for Active; 'I' for Inactive)
REMARK    1  A    between atoms: N_6  and  C_1 
REMARK    2  A    between atoms: C_7  and  N_2 
REMARK       I    between atoms: C_8  and  N_6 
REMARK    3  A    between atoms: C_19  and  C_8 
REMARK    4  A    between atoms: O_20  and  C_15 
ROOT
ATOM      1  C   UNL d   1      53.144  32.150  53.395  0.00  0.00     0.169 A 
ATOM      2  N   UNL d   1      52.359  32.201  53.124  0.00  0.00    -0.212 N 
ATOM      3  N   UNL d   1      52.119  31.431  52.955  0.00  0.00    -0.163 NA
ATOM      4  C   UNL d   1      53.360  31.365  53.385  0.00  0.00     0.062 A 
ATOM      5  C   UNL d   1      52.734  30.898  53.113  0.00  0.00     0.111 A 
ATOM      6  S   UNL d   1      53.721  30.074  53.371  0.00  0.00    -0.084 SA
ATOM      7  C   UNL d   1      54.001  30.833  53.552  0.00  0.00     0.040 A 
ATOM      8  C   UNL d   1      52.973  30.094  53.109  0.00  0.00     0.056 A 
ENDROOT
BRANCH   2   9
ATOM      9  C   UNL d   1      51.925  32.860  53.043  0.00  0.00     0.085 A 
ATOM     10  C   UNL d   1      51.301  33.003  53.533  0.00  0.00     0.021 A 
ATOM     11  C   UNL d   1      50.843  33.687  53.456  0.00  0.00     0.026 A 
ATOM     12  C   UNL d   1      51.012  34.230  52.885  0.00  0.00     0.094 A 
ATOM     13  C   UNL d   1      51.647  34.092  52.381  0.00  0.00     0.026 A 
ATOM     14  C   UNL d   1      52.105  33.408  52.458  0.00  0.00     0.021 A 
BRANCH  12  15
ATOM     15  O   UNL d   1      50.614  34.866  52.787  0.00  0.00    -0.328 OA
ATOM     16  C   UNL d   1      49.687  34.834  52.686  0.00  0.00     0.181 C 
ENDBRANCH  12  15
ENDBRANCH   2   9
BRANCH   1  17
ATOM     17  N   UNL d   1      53.570  32.762  53.612  0.00  0.00    -0.188 NA
ATOM     18  C   UNL d   1      53.886  32.809  54.368  0.00  0.00     0.292 C 
ATOM     19  O   UNL d   1      53.735  32.179  54.900  0.00  0.00    -0.264 OA
BRANCH  18  20
ATOM     20  C   UNL d   1      54.336  33.468  54.577  0.00  0.00     0.131 C 
ATOM     21 CL   UNL d   1      54.666  33.556  55.322  0.00  0.00    -0.076 Cl
ENDBRANCH  18  20
ENDBRANCH   1  17
TORSDOF 4
ENDMDL
MODEL 3
REMARK VINA RESULT:      -8.1      1.929      3.715
REMARK  4 active torsions:
REMARK  status: ('A' for Active; 'I' for Inactive)
REMARK    1  A    between atoms: N_6  and  C_1 
REMARK    2  A    between atoms: C_7  and  N_2 
REMARK       I    between atoms: C_8  and  N_6 
REMARK    3  A    between atoms: C_19  and  C_8 
REMARK    4  A    between atoms: O_20  and  C_15 
ROOT
ATOM      1  C   UNL d   1      53.179  32.911  53.427  0.00  0.00     0.169 A 
ATOM      2  N   UNL d   1      52.721  32.228  53.305  0.00  0.00    -0.212 N 
ATOM      3  N   UNL d   1      51.994  32.482  53.011  0.00  0.00    -0.163 NA
ATOM      4  C   UNL d   1      52.731  33.554  53.207  0.00  0.00     0.062 A 
ATOM      5  C   UNL d   1      51.987  33.309  52.944  0.00  0.00     0.111 A 
ATOM      6  S   UNL d   1      51.997  34.616  52.848  0.00  0.00    -0.084 SA
ATOM      7  C   UNL d   1      52.739  34.401  53.146  0.00  0.00     0.040 A 
ATOM      8  C   UNL d   1      51.538  33.981  52.723  0.00  0.00     0.056 A 
ENDROOT
BRANCH   2   9
ATOM      9  C   UNL d   1      52.938  31.477  53.445  0.00  0.00     0.085 A 
ATOM     10  C   UNL d   1      52.783  31.130  54.156  0.00  0.00     0.021 A 
ATOM     11  C   UNL d   1      53.006  30.349  54.309  0.00  0.00     0.026 A 
ATOM     12  C   UNL d   1      53.384  29.914  53.747  0.00  0.00     0.094 A 
ATOM     13  C   UNL d   1      53.546  30.259  53.019  0.00  0.00     0.026 A 
ATOM     14  C   UNL d   1      53.324  31.041  52.865  0.00  0.00     0.021 A 
BRANCH  12  15
ATOM     15  O   UNL d   1      53.602  29.197  53.855  0.00  0.00    -0.328 OA
ATOM     16  C   UNL d   1      53.420  28.762  54.660  0.00  0.00     0.181 C 
ENDBRANCH  12  15
ENDBRANCH   2   9
BRANCH   1  17
ATOM     17  N   UNL d   1      53.906  32.905  53.702  0.00  0.00    -0.188 NA
ATOM     18  C   UNL d   1      54.102  33.318  54.383  0.00  0.00     0.292 C 
ATOM     19  O   UNL d   1      53.497  33.748  54.774  0.00  0.00    -0.264 OA
BRANCH  18  20
ATOM     20  C   UNL d   1      54.880  33.298  54.658  0.00  0.00     0.131 C 
ATOM     21 CL   UNL d   1      55.107  33.654  55.360  0.00  0.00    -0.076 Cl
ENDBRANCH  18  20
ENDBRANCH   1  17
TORSDOF 4
ENDMDL
MODEL 4
REMARK VINA RESULT:      -8.0      1.648      2.311
REMARK  4 active torsions:
REMARK  status: ('A' for Active; 'I' for Inactive)
REMARK    1  A    between atoms: N_6  and  C_1 
REMARK    2  A    between atoms: C_7  and  N_2 
REMARK       I    between atoms: C_8  and  N_6 
REMARK    3  A    between atoms: C_19  and  C_8 
REMARK    4  A    between atoms: O_20  and  C_15 
ROOT
ATOM      1  C   UNL d   1      52.855  33.595  53.343  0.00  0.00     0.169 A 
ATOM      2  N   UNL d   1      52.164  33.238  53.049  0.00  0.00    -0.212 N 
ATOM      3  N   UNL d   1      52.299  32.425  53.057  0.00  0.00    -0.163 NA
ATOM      4  C   UNL d   1      53.385  33.003  53.520  0.00  0.00     0.062 A 
ATOM      5  C   UNL d   1      53.058  32.264  53.349  0.00  0.00     0.111 A 
ATOM      6  S   UNL d   1      54.262  32.033  53.813  0.00  0.00    -0.084 SA
ATOM      7  C   UNL d   1      54.166  32.856  53.820  0.00  0.00     0.040 A 
ATOM      8  C   UNL d   1      53.615  31.666  53.536  0.00  0.00     0.056 A 
ENDROOT
BRANCH   2   9
ATOM      9  C   UNL d   1      51.503  33.606  52.808  0.00  0.00     0.085 A 
ATOM     10  C   UNL d   1      51.484  33.995  52.103  0.00  0.00     0.021 A 
ATOM     11  C   UNL d   1      50.799  34.381  51.844  0.00  0.00     0.026 A 
ATOM     12  C   UNL d   1      50.132  34.375  52.295  0.00  0.00     0.094 A 
ATOM     13  C   UNL d   1      50.142  33.980  53.016  0.00  0.00     0.026 A 
ATOM     14  C   UNL d   1      50.827  33.594  53.275  0.00  0.00     0.021 A 
BRANCH  12  15
ATOM     15  O   UNL d   1      49.489  34.717  52.089  0.00  0.00    -0.328 OA
ATOM     16  C   UNL d   1      49.083  34.510  51.275  0.00  0.00     0.181 C 
ENDBRANCH  12  15
ENDBRANCH   2   9
BRANCH   1  17
ATOM     17  N   UNL d   1      52.949  34.362  53.423  0.00  0.00    -0.188 NA
ATOM     18  C   UNL d   1      53.073  34.698  54.161  0.00  0.00     0.292 C 
ATOM     19  O   UNL d   1      53.095  34.189  54.828  0.00  0.00    -0.264 OA
BRANCH  18  20
ATOM     20  C   UNL d   1      53.170  35.515  54.223  0.00  0.00     0.131 C 
ATOM     21 CL   UNL d   1      52.953  35.934  54.892  0.00  0.00    -0.076 Cl
ENDBRANCH  18  20
ENDBRANCH   1  17
TORSDOF 4
ENDMDL
MODEL 5
REMARK VINA RESULT:      -7.9      1.966      3.720
REMARK  4 active torsions:
REMARK  status: ('A' for Active; 'I' for Inactive)
REMARK    1  A    between atoms: N_6  and  C_1 
REMARK    2  A    between atoms: C_7  and  N_2 
REMARK       I    between atoms: C_8  and  N_6 
REMARK    3  A    between atoms: C_19  and  C_8 
REMARK    4  A    between atoms: O_20  and  C_15 
ROOT
ATOM      1  C   UNL d   1      53.214  31.769  53.282  0.00  0.00     0.169 A 
ATOM      2  N   UNL d   1      53.755  31.747  53.912  0.00  0.00    -0.212 N 
ATOM      3  N   UNL d   1      53.834  30.955  54.127  0.00  0.00    -0.163 NA
ATOM      4  C   UNL d   1      52.979  31.004  53.129  0.00  0.00     0.062 A 
ATOM      5  C   UNL d   1      53.355  30.479  53.645  0.00  0.00     0.111 A 
ATOM      6  S   UNL d   1      52.590  29.748  52.872  0.00  0.00    -0.084 SA
ATOM      7  C   UNL d   1      52.483  30.532  52.627  0.00  0.00     0.040 A 
ATOM      8  C   UNL d   1      53.103  29.698  53.474  0.00  0.00     0.056 A 
ENDROOT
BRANCH   2   9
ATOM      9  C   UNL d   1      54.125  32.366  54.245  0.00  0.00     0.085 A 
ATOM     10  C   UNL d   1      53.929  32.610  54.987  0.00  0.00     0.021 A 
ATOM     11  C   UNL d   1      54.310  33.254  55.341  0.00  0.00     0.026 A 
ATOM     12  C   UNL d   1      54.888  33.653  54.948  0.00  0.00     0.094 A 
ATOM     13  C   UNL d   1      55.095  33.410  54.190  0.00  0.00     0.026 A 
ATOM     14  C   UNL d   1      54.714  32.766  53.836  0.00  0.00     0.021 A 
BRANCH  12  15
ATOM     15  O   UNL d   1      55.256  34.245  55.242  0.00  0.00    -0.328 OA
ATOM     16  C   UNL d   1      54.851  35.085  55.276  0.00  0.00     0.181 C 
ENDBRANCH  12  15
ENDBRANCH   2   9
BRANCH   1  17
ATOM     17  N   UNL d   1      52.990  32.420  52.922  0.00  0.00    -0.188 NA
ATOM     18  C   UNL d   1      52.208  32.664  52.939  0.00  0.00     0.292 C 
ATOM     19  O   UNL d   1      51.654  32.192  53.357  0.00  0.00    -0.264 OA
BRANCH  18  20
ATOM     20  C   UNL d   1      51.992  33.359  52.550  0.00  0.00     0.131 C 
ATOM     21 CL   UNL d   1      51.339  33.802  52.771  0.00  0.00    -0.076 Cl
ENDBRANCH  18  20
ENDBRANCH   1  17
TORSDOF 4
ENDMDL
MODEL 6
REMARK VINA RESULT:      -7.2      1.640      3.116
REMARK  4 active torsions:
REMARK  status: ('A' for Active; 'I' for Inactive)
REMARK    1  A    between atoms: N_6  and  C_1 
REMARK    2  A    between atoms: C_7  and  N_2 
REMARK       I    between atoms: C_8  and  N_6 
REMARK    3  A    between atoms: C_19  and  C_8 
REMARK    4  A    between atoms: O_20  and  C_15 
ROOT
ATOM      1  C   UNL d   1      52.753  33.889  53.440  0.00  0.00     0.169 A 
ATOM      2  N   UNL d   1      53.020  33.209  53.837  0.00  0.00    -0.212 N 
ATOM      3  N   UNL d   1      53.319  33.462  54.562  0.00  0.00    -0.163 NA
ATOM      4  C   UNL d   1      52.893  34.529  53.923  0.00  0.00     0.062 A 
ATOM      5  C   UNL d   1      53.246  34.285  54.629  0.00  0.00     0.111 A 
ATOM      6  S   UNL d   1      53.120  35.587  54.713  0.00  0.00    -0.084 SA
ATOM      7  C   UNL d   1      52.810  35.373  53.976  0.00  0.00     0.040 A 
ATOM      8  C   UNL d   1      53.383  34.955  55.114  0.00  0.00     0.056 A 
ENDROOT
BRANCH   2   9
ATOM      9  C   UNL d   1      52.993  32.461  53.572  0.00  0.00     0.085 A 
ATOM     10  C   UNL d   1      52.338  32.007  53.689  0.00  0.00     0.021 A 
ATOM     11  C   UNL d   1      52.302  31.227  53.416  0.00  0.00     0.026 A 
ATOM     12  C   UNL d   1      52.926  30.902  53.025  0.00  0.00     0.094 A 
ATOM     13  C   UNL d   1      53.599  31.358  52.901  0.00  0.00     0.026 A 
ATOM     14  C   UNL d   1      53.635  32.138  53.174  0.00  0.00     0.021 A 
BRANCH  12  15
ATOM     15  O   UNL d   1      52.926  30.192  52.762  0.00  0.00    -0.328 OA
ATOM     16  C   UNL d   1      52.949  29.469  53.352  0.00  0.00     0.181 C 
ENDBRANCH  12  15
ENDBRANCH   2   9
BRANCH   1  17
ATOM     17  N   UNL d   1      52.431  33.883  52.734  0.00  0.00    -0.188 NA
ATOM     18  C   UNL d   1      51.676  34.179  52.611  0.00  0.00     0.292 C 
ATOM     19  O   UNL d   1      51.261  34.490  53.271  0.00  0.00    -0.264 OA
BRANCH  18  20
ATOM     20  C   UNL d   1      51.353  34.163  51.852  0.00  0.00     0.131 C 
ATOM     21 CL   UNL d   1      50.551  34.264  51.713  0.00  0.00    -0.076 Cl
ENDBRANCH  18  20
ENDBRANCH   1  17
TORSDOF 4
ENDMDL
MODEL 7
REMARK VINA RESULT:      -6.8      1.571      3.441
REMARK  4 active torsions:
REMARK  status: ('A' for Active; 'I' for Inactive)
REMARK    1  A    between atoms: N_6  and  C_1 
REMARK    2  A    between atoms: C_7  and  N_2 
REMARK       I    between atoms: C_8  and  N_6 
REMARK    3  A    between atoms: C_19  and  C_8 
REMARK    4  A    between atoms: O_20  and  C_15 
ROOT
ATOM      1  C   UNL d   1      52.128  33.079  53.466  0.00  0.00     0.169 A 
ATOM      2  N   UNL d   1      52.640  33.698  53.679  0.00  0.00    -0.212 N 
ATOM      3  N   UNL d   1      52.283  34.396  53.428  0.00  0.00    -0.163 NA
ATOM      4  C   UNL d   1      51.481  33.408  53.097  0.00  0.00     0.062 A 
ATOM      5  C   UNL d   1      51.557  34.230  53.062  0.00  0.00     0.111 A 
ATOM      6  S   UNL d   1      50.414  33.944  52.488  0.00  0.00    -0.084 SA
ATOM      7  C   UNL d   1      50.740  33.221  52.726  0.00  0.00     0.040 A 
ATOM      8  C   UNL d   1      50.885  34.553  52.680  0.00  0.00     0.056 A 
ENDROOT
BRANCH   2   9
ATOM      9  C   UNL d   1      53.339  33.631  54.052  0.00  0.00     0.085 A 
ATOM     10  C   UNL d   1      53.371  33.561  54.854  0.00  0.00     0.021 A 
ATOM     11  C   UNL d   1      54.094  33.491  55.249  0.00  0.00     0.026 A 
ATOM     12  C   UNL d   1      54.786  33.493  54.838  0.00  0.00     0.094 A 
ATOM     13  C   UNL d   1      54.763  33.564  54.020  0.00  0.00     0.026 A 
ATOM     14  C   UNL d   1      54.040  33.634  53.624  0.00  0.00     0.021 A 
BRANCH  12  15
ATOM     15  O   UNL d   1      55.465  33.431  55.169  0.00  0.00    -0.328 OA
ATOM     16  C   UNL d   1      55.907  34.188  55.487  0.00  0.00     0.181 C 
ENDBRANCH  12  15
ENDBRANCH   2   9
BRANCH   1  17
ATOM     17  N   UNL d   1      52.268  32.328  53.608  0.00  0.00    -0.188 NA
ATOM     18  C   UNL d   1      52.383  31.797  52.994  0.00  0.00     0.292 C 
ATOM     19  O   UNL d   1      52.346  32.087  52.208  0.00  0.00    -0.264 OA
BRANCH  18  20
ATOM     20  C   UNL d   1      52.531  31.003  53.168  0.00  0.00     0.131 C 
ATOM     21 CL   UNL d   1      52.870  30.491  52.626  0.00  0.00    -0.076 Cl
ENDBRANCH  18  20
ENDBRANCH   1  17
TORSDOF 4
ENDMDL
