MODEL 1
REMARK VINA RESULT:      24.6      0.000      0.000
REMARK  2 active torsions:
REMARK  status: ('A' for Active; 'I' for Inactive)
REMARK    1  A    between atoms: C_2  and  C_1 
REMARK    2  A    between atoms: N_6  and  C_2 
ROOT
ATOM      1  C   UNL d   1      14.715  12.274  -1.625  0.00  0.00     0.047 A 
ATOM      2  C   UNL d   1      15.412  12.241  -2.070  0.00  0.00     0.101 A 
ATOM      3  C   UNL d   1      14.085  12.120  -2.135  0.00  0.00     0.021 A 
ATOM      4  N   UNL d   1      15.211  12.067  -2.851  0.00  0.00    -0.244 NA
ATOM      5  C   UNL d   1      14.388  11.992  -2.889  0.00  0.00     0.082 A 
ATOM      6  C   UNL d   1      13.277  12.080  -2.009  0.00  0.00     0.002 A 
ATOM      7  C   UNL d   1      13.886  11.825  -3.515  0.00  0.00     0.019 A 
ATOM      8  C   UNL d   1      12.770  11.913  -2.636  0.00  0.00     0.000 A 
ATOM      9  C   UNL d   1      13.077  11.784  -3.393  0.00  0.00     0.002 A 
ENDROOT
BRANCH   1  10
ATOM     10  C   UNL d   1      14.653  12.432  -0.817  0.00  0.00     0.122 C 
ATOM     11  S   UNL d   1      14.522  11.819  -0.283  0.00  0.00    -0.059 SA
BRANCH  10  12
ATOM     12  N   UNL d   1      14.725  13.212  -0.549  0.00  0.00    -0.292 N 
ATOM     13  C   UNL d   1      14.046  13.643  -0.347  0.00  0.00     0.108 A 
ATOM     14  C   UNL d   1      14.118  14.422  -0.079  0.00  0.00     0.142 A 
ATOM     15  O   UNL d   1      14.866  14.767  -0.014  0.00  0.00    -0.300 OA
ATOM     16  C   UNL d   1      15.542  14.334  -0.217  0.00  0.00     0.142 A 
ATOM     17  C   UNL d   1      15.470  13.556  -0.484  0.00  0.00     0.108 A 
ENDBRANCH  10  12
ENDBRANCH   1  10
TORSDOF 2
ENDMDL
MODEL 2
REMARK VINA RESULT:      26.2      1.396      1.873
REMARK  2 active torsions:
REMARK  status: ('A' for Active; 'I' for Inactive)
REMARK    1  A    between atoms: C_2  and  C_1 
REMARK    2  A    between atoms: N_6  and  C_2 
ROOT
ATOM      1  C   UNL d   1      13.652  12.701  -2.558  0.00  0.00     0.047 A 
ATOM      2  C   UNL d   1      13.986  13.458  -2.590  0.00  0.00     0.101 A 
ATOM      3  C   UNL d   1      13.414  12.499  -3.322  0.00  0.00     0.021 A 
ATOM      4  N   UNL d   1      13.953  13.720  -3.372  0.00  0.00    -0.244 NA
ATOM      5  C   UNL d   1      13.598  13.125  -3.823  0.00  0.00     0.082 A 
ATOM      6  C   UNL d   1      13.055  11.828  -3.622  0.00  0.00     0.002 A 
ATOM      7  C   UNL d   1      13.424  13.079  -4.623  0.00  0.00     0.019 A 
ATOM      8  C   UNL d   1      12.878  11.780  -4.425  0.00  0.00     0.000 A 
ATOM      9  C   UNL d   1      13.064  12.410  -4.928  0.00  0.00     0.002 A 
ENDROOT
BRANCH   1  10
ATOM     10  C   UNL d   1      13.569  12.228  -1.887  0.00  0.00     0.122 C 
ATOM     11  S   UNL d   1      12.887  11.780  -1.776  0.00  0.00    -0.059 SA
BRANCH  10  12
ATOM     12  N   UNL d   1      14.177  12.208  -1.326  0.00  0.00    -0.292 N 
ATOM     13  C   UNL d   1      14.084  12.601  -0.601  0.00  0.00     0.108 A 
ATOM     14  C   UNL d   1      14.691  12.581  -0.041  0.00  0.00     0.142 A 
ATOM     15  O   UNL d   1      15.389  12.170  -0.205  0.00  0.00    -0.300 OA
ATOM     16  C   UNL d   1      15.479  11.779  -0.929  0.00  0.00     0.142 A 
ATOM     17  C   UNL d   1      14.872  11.799  -1.489  0.00  0.00     0.108 A 
ENDBRANCH  10  12
ENDBRANCH   1  10
TORSDOF 2
ENDMDL
