MODEL 1
REMARK VINA RESULT:      62.5      0.000      0.000
REMARK  5 active torsions:
REMARK  status: ('A' for Active; 'I' for Inactive)
REMARK    1  A    between atoms: C_11  and  C_3 
REMARK    2  A    between atoms: C_13  and  N_5 
REMARK    3  A    between atoms: C_12  and  C_7 
REMARK    4  A    between atoms: O_21  and  C_11 
REMARK    5  A    between atoms: C_20  and  C_13 
ROOT
ATOM      1  C   UNL d   1      45.437 -14.770  44.553  0.00  0.00     0.080 A 
ATOM      2  C   UNL d   1      45.039 -15.488  44.440  0.00  0.00     0.267 A 
ATOM      3  C   UNL d   1      45.442 -13.348  44.538  0.00  0.00     0.106 A 
ATOM      4  C   UNL d   1      46.225 -14.773  44.794  0.00  0.00     0.108 A 
ATOM      5  N   UNL d   1      45.441 -16.208  44.571  0.00  0.00    -0.271 N 
ATOM      6  C   UNL d   1      46.237 -13.349  44.781  0.00  0.00     0.208 A 
ATOM      7  C   UNL d   1      45.048 -14.059  44.426  0.00  0.00     0.015 A 
ATOM      8  O   UNL d   1      46.628 -14.062  44.909  0.00  0.00    -0.288 OA
ATOM      9  C   UNL d   1      46.630 -15.480  44.927  0.00  0.00     0.043 A 
ATOM     10  C   UNL d   1      46.234 -16.195  44.814  0.00  0.00     0.069 A 
ATOM     11  O   UNL d   1      44.248 -15.498  44.198  0.00  0.00    -0.267 OA
ATOM     12  N   UNL d   1      46.633 -12.634  44.894  0.00  0.00    -0.121 N 
ATOM     13  C   UNL d   1      46.636 -16.922  44.945  0.00  0.00     0.019 C 
ENDROOT
BRANCH   7  14
ATOM     14  C   UNL d   1      44.262 -14.062  44.185  0.00  0.00     0.001 A 
ATOM     15  C   UNL d   1      44.012 -13.523  43.608  0.00  0.00     0.001 A 
ATOM     16  C   UNL d   1      43.225 -13.526  43.367  0.00  0.00     0.011 A 
ATOM     17  C   UNL d   1      42.689 -14.059  43.698  0.00  0.00     0.058 A 
ATOM     18  C   UNL d   1      42.942 -14.598  44.277  0.00  0.00     0.011 A 
ATOM     19 CL   UNL d   1      41.902 -14.061  43.457  0.00  0.00    -0.082 Cl
ATOM     20  C   UNL d   1      43.729 -14.596  44.518  0.00  0.00     0.001 A 
ENDBRANCH   7  14
BRANCH   3  21
ATOM     21  C   UNL d   1      45.051 -12.635  44.410  0.00  0.00     0.299 C 
ATOM     22  O   UNL d   1      44.483 -12.371  44.947  0.00  0.00    -0.259 OA
BRANCH  21  23
ATOM     23  O   UNL d   1      45.226 -12.181  43.744  0.00  0.00    -0.296 OA
ATOM     24  C   UNL d   1      45.984 -12.196  43.418  0.00  0.00     0.185 C 
ENDBRANCH  21  23
ENDBRANCH   3  21
BRANCH   5  25
ATOM     25  C   UNL d   1      45.045 -16.923  44.458  0.00  0.00     0.108 C 
BRANCH  25  26
ATOM     26  C   UNL d   1      45.358 -17.492  43.954  0.00  0.00     0.118 A 
ATOM     27  O   UNL d   1      45.136 -18.290  43.919  0.00  0.00    -0.304 OA
ATOM     28  C   UNL d   1      45.590 -18.661  43.336  0.00  0.00     0.123 A 
ATOM     29  C   UNL d   1      46.095 -18.098  43.006  0.00  0.00     0.029 A 
ATOM     30  C   UNL d   1      45.953 -17.377  43.386  0.00  0.00     0.028 A 
ENDBRANCH  25  26
ENDBRANCH   5  25
TORSDOF 5
ENDMDL
