MODEL 1
REMARK VINA RESULT:      42.9      0.000      0.000
REMARK  5 active torsions:
REMARK  status: ('A' for Active; 'I' for Inactive)
REMARK    1  A    between atoms: C_6  and  C_1 
REMARK    2  A    between atoms: C_3  and  C_5 
REMARK    3  A    between atoms: C_5  and  C_6 
REMARK    4  A    between atoms: C_17  and  C_13 
REMARK    5  A    between atoms: C_20  and  C_17 
ROOT
ATOM      1  C   UNL d   1      14.270  15.160  -2.970  0.00  0.00     0.201 C 
ATOM      2  O   UNL d   1      14.686  15.291  -3.674  0.00  0.00    -0.286 OA
ENDROOT
BRANCH   1   3
ATOM      3  C   UNL d   1      14.595  15.430  -2.261  0.00  0.00     0.078 A 
ATOM      4  C   UNL d   1      14.888  16.208  -2.209  0.00  0.00     0.202 A 
ATOM      5  C   UNL d   1      15.212  16.476  -1.500  0.00  0.00     0.084 A 
ATOM      6  O   UNL d   1      14.852  16.703  -2.867  0.00  0.00    -0.286 OA
ATOM      7  C   UNL d   1      15.246  15.982  -0.850  0.00  0.00     0.199 A 
ATOM      8  C   UNL d   1      14.952  15.204  -0.902  0.00  0.00     0.039 A 
ATOM      9  O   UNL d   1      15.575  16.265  -0.140  0.00  0.00    -0.286 OA
ATOM     10  C   UNL d   1      14.637  14.947  -1.597  0.00  0.00     0.010 A 
BRANCH   8  11
ATOM     11  C   UNL d   1      14.996  14.720  -0.233  0.00  0.00     0.003 C 
BRANCH  11  12
ATOM     12  C   UNL d   1      15.341  13.972  -0.261  0.00  0.00     0.000 C 
ATOM     13  C   UNL d   1      14.936  13.301  -0.014  0.00  0.00     0.000 C 
ENDBRANCH  11  12
ENDBRANCH   8  11
ENDBRANCH   1   3
BRANCH   1  14
ATOM     14  C   UNL d   1      13.542  14.764  -2.988  0.00  0.00     0.068 C 
BRANCH  14  15
ATOM     15  C   UNL d   1      13.421  14.127  -3.485  0.00  0.00     0.114 A 
ATOM     16  N   UNL d   1      13.239  13.356  -3.250  0.00  0.00    -0.238 NA
ATOM     17  C   UNL d   1      13.166  12.900  -3.934  0.00  0.00     0.088 A 
ATOM     18  C   UNL d   1      12.993  12.107  -4.040  0.00  0.00     0.020 A 
ATOM     19  C   UNL d   1      13.301  13.380  -4.586  0.00  0.00     0.049 A 
ATOM     20  C   UNL d   1      12.952  11.780  -4.800  0.00  0.00     0.002 A 
ATOM     21  C   UNL d   1      13.090  12.275  -5.455  0.00  0.00     0.001 A 
ATOM     22  C   UNL d   1      13.263  13.068  -5.349  0.00  0.00     0.008 A 
ATOM     23  S   UNL d   1      13.462  14.155  -4.320  0.00  0.00    -0.066 SA
ENDBRANCH  14  15
ENDBRANCH   1  14
TORSDOF 5
ENDMDL
MODEL 2
REMARK VINA RESULT:      43.3      2.077      3.228
REMARK  5 active torsions:
REMARK  status: ('A' for Active; 'I' for Inactive)
REMARK    1  A    between atoms: C_6  and  C_1 
REMARK    2  A    between atoms: C_3  and  C_5 
REMARK    3  A    between atoms: C_5  and  C_6 
REMARK    4  A    between atoms: C_17  and  C_13 
REMARK    5  A    between atoms: C_20  and  C_17 
ROOT
ATOM      1  C   UNL d   1      13.703  13.041  -3.376  0.00  0.00     0.201 C 
ATOM      2  O   UNL d   1      14.033  12.647  -4.025  0.00  0.00    -0.286 OA
ENDROOT
BRANCH   1   3
ATOM      3  C   UNL d   1      13.823  12.732  -2.620  0.00  0.00     0.078 A 
ATOM      4  C   UNL d   1      13.353  12.099  -2.352  0.00  0.00     0.202 A 
ATOM      5  C   UNL d   1      13.474  11.791  -1.596  0.00  0.00     0.084 A 
ATOM      6  O   UNL d   1      12.770  11.785  -2.844  0.00  0.00    -0.286 OA
ATOM      7  C   UNL d   1      14.052  12.105  -1.112  0.00  0.00     0.199 A 
ATOM      8  C   UNL d   1      14.522  12.738  -1.381  0.00  0.00     0.039 A 
ATOM      9  O   UNL d   1      14.164  11.786  -0.352  0.00  0.00    -0.286 OA
ATOM     10  C   UNL d   1      14.400  13.036  -2.119  0.00  0.00     0.010 A 
BRANCH   8  11
ATOM     11  C   UNL d   1      15.102  13.042  -0.876  0.00  0.00     0.003 C 
BRANCH  11  12
ATOM     12  C   UNL d   1      14.928  13.620  -0.314  0.00  0.00     0.000 C 
ATOM     13  C   UNL d   1      15.427  14.259  -0.184  0.00  0.00     0.000 C 
ENDBRANCH  11  12
ENDBRANCH   8  11
ENDBRANCH   1   3
BRANCH   1  14
ATOM     14  C   UNL d   1      13.261  13.732  -3.494  0.00  0.00     0.068 C 
BRANCH  14  15
ATOM     15  C   UNL d   1      13.595  14.392  -3.840  0.00  0.00     0.114 A 
ATOM     16  N   UNL d   1      13.997  14.996  -3.445  0.00  0.00    -0.238 NA
ATOM     17  C   UNL d   1      14.237  15.546  -4.012  0.00  0.00     0.088 A 
ATOM     18  C   UNL d   1      14.651  16.249  -3.944  0.00  0.00     0.020 A 
ATOM     19  C   UNL d   1      13.989  15.287  -4.750  0.00  0.00     0.049 A 
ATOM     20  C   UNL d   1      14.825  16.705  -4.612  0.00  0.00     0.002 A 
ATOM     21  C   UNL d   1      14.568  16.435  -5.357  0.00  0.00     0.001 A 
ATOM     22  C   UNL d   1      14.154  15.732  -5.425  0.00  0.00     0.008 A 
ATOM     23  S   UNL d   1      13.583  14.563  -4.659  0.00  0.00    -0.066 SA
ENDBRANCH  14  15
ENDBRANCH   1  14
TORSDOF 5
ENDMDL
