MODEL 1
REMARK VINA RESULT:      28.1      0.000      0.000
REMARK  7 active torsions:
REMARK  status: ('A' for Active; 'I' for Inactive)
REMARK       I    between atoms: C_2  and  N_1 
REMARK    1  A    between atoms: C_3  and  N_1 
REMARK    2  A    between atoms: C_4  and  C_2 
REMARK    3  A    between atoms: N_9  and  C_3 
REMARK    4  A    between atoms: O_19  and  C_6 
REMARK    5  A    between atoms: C_7  and  C_18 
REMARK    6  A    between atoms: C_18  and  N_9 
REMARK    7  A    between atoms: O_20  and  C_12 
ROOT
ATOM      1  N   UNL d   1      15.770  13.215  -0.016  0.00  0.00    -0.179 NA
ATOM      2  C   UNL d   1      15.597  12.441  -0.253  0.00  0.00     0.281 C 
ATOM      3  O   UNL d   1      16.123  11.825  -0.080  0.00  0.00    -0.265 OA
ENDROOT
BRANCH   2   4
ATOM      4  C   UNL d   1      14.900  12.276  -0.663  0.00  0.00     0.060 A 
ATOM      5  C   UNL d   1      14.915  12.156  -1.482  0.00  0.00     0.031 A 
ATOM      6  C   UNL d   1      14.216  11.991  -1.890  0.00  0.00     0.116 A 
ATOM      7  C   UNL d   1      13.501  11.946  -1.475  0.00  0.00     0.116 A 
ATOM      8  C   UNL d   1      13.486  12.065  -0.656  0.00  0.00     0.026 A 
ATOM      9  C   UNL d   1      14.193  12.230  -0.258  0.00  0.00     0.007 A 
BRANCH   6  10
ATOM     10  O   UNL d   1      14.231  11.872  -2.709  0.00  0.00    -0.326 OA
ATOM     11  C   UNL d   1      14.949  11.795  -3.106  0.00  0.00     0.181 C 
ENDBRANCH   6  10
BRANCH   7  12
ATOM     12  O   UNL d   1      12.801  11.779  -1.888  0.00  0.00    -0.326 OA
ATOM     13  C   UNL d   1      12.769  11.877  -2.706  0.00  0.00     0.181 C 
ENDBRANCH   7  12
ENDBRANCH   2   4
BRANCH   1  14
ATOM     14  C   UNL d   1      15.244  13.823  -0.191  0.00  0.00     0.224 C 
ATOM     15  S   UNL d   1      14.422  13.824  -0.049  0.00  0.00    -0.037 SA
BRANCH  14  16
ATOM     16  N   UNL d   1      15.436  14.553  -0.543  0.00  0.00    -0.214 NA
BRANCH  16  17
ATOM     17  C   UNL d   1      15.315  15.299  -0.205  0.00  0.00     0.126 C 
BRANCH  17  18
ATOM     18  C   UNL d   1      15.207  15.954  -0.693  0.00  0.00     0.119 A 
ATOM     19  O   UNL d   1      14.902  16.704  -0.549  0.00  0.00    -0.304 OA
ATOM     20  C   UNL d   1      14.933  17.128  -1.254  0.00  0.00     0.123 A 
ATOM     21  C   UNL d   1      15.255  16.638  -1.831  0.00  0.00     0.029 A 
ATOM     22  C   UNL d   1      15.425  15.912  -1.486  0.00  0.00     0.028 A 
ENDBRANCH  17  18
ENDBRANCH  16  17
ENDBRANCH  14  16
ENDBRANCH   1  14
TORSDOF 7
ENDMDL
MODEL 2
REMARK VINA RESULT:      29.3      2.752      4.387
REMARK  7 active torsions:
REMARK  status: ('A' for Active; 'I' for Inactive)
REMARK       I    between atoms: C_2  and  N_1 
REMARK    1  A    between atoms: C_3  and  N_1 
REMARK    2  A    between atoms: C_4  and  C_2 
REMARK    3  A    between atoms: N_9  and  C_3 
REMARK    4  A    between atoms: O_19  and  C_6 
REMARK    5  A    between atoms: C_7  and  C_18 
REMARK    6  A    between atoms: C_18  and  N_9 
REMARK    7  A    between atoms: O_20  and  C_12 
ROOT
ATOM      1  N   UNL d   1      12.956  11.785  -3.890  0.00  0.00    -0.179 NA
ATOM      2  C   UNL d   1      12.943  12.272  -4.559  0.00  0.00     0.281 C 
ATOM      3  O   UNL d   1      12.769  11.953  -5.304  0.00  0.00    -0.265 OA
ENDROOT
BRANCH   2   4
ATOM      4  C   UNL d   1      13.104  13.079  -4.492  0.00  0.00     0.060 A 
ATOM      5  C   UNL d   1      13.602  13.453  -5.036  0.00  0.00     0.031 A 
ATOM      6  C   UNL d   1      13.761  14.261  -4.967  0.00  0.00     0.116 A 
ATOM      7  C   UNL d   1      13.419  14.694  -4.349  0.00  0.00     0.116 A 
ATOM      8  C   UNL d   1      12.921  14.319  -3.804  0.00  0.00     0.026 A 
ATOM      9  C   UNL d   1      12.769  13.509  -3.884  0.00  0.00     0.007 A 
BRANCH   6  10
ATOM     10  O   UNL d   1      14.260  14.635  -5.511  0.00  0.00    -0.326 OA
ATOM     11  C   UNL d   1      14.323  14.351  -6.283  0.00  0.00     0.181 C 
ENDBRANCH   6  10
BRANCH   7  12
ATOM     12  O   UNL d   1      13.581  15.504  -4.282  0.00  0.00    -0.326 OA
ATOM     13  C   UNL d   1      14.238  15.763  -3.855  0.00  0.00     0.181 C 
ENDBRANCH   7  12
ENDBRANCH   2   4
BRANCH   1  14
ATOM     14  C   UNL d   1      13.129  12.109  -3.154  0.00  0.00     0.224 C 
ATOM     15  S   UNL d   1      12.808  12.806  -2.830  0.00  0.00    -0.037 SA
BRANCH  14  16
ATOM     16  N   UNL d   1      13.662  11.796  -2.593  0.00  0.00    -0.214 NA
BRANCH  16  17
ATOM     17  C   UNL d   1      13.547  11.785  -1.774  0.00  0.00     0.126 C 
BRANCH  17  18
ATOM     18  C   UNL d   1      14.178  11.956  -1.272  0.00  0.00     0.119 A 
ATOM     19  O   UNL d   1      14.957  12.173  -1.419  0.00  0.00    -0.304 OA
ATOM     20  C   UNL d   1      15.333  12.272  -0.694  0.00  0.00     0.123 A 
ATOM     21  C   UNL d   1      14.785  12.116  -0.101  0.00  0.00     0.029 A 
ATOM     22  C   UNL d   1      14.070  11.920  -0.455  0.00  0.00     0.028 A 
ENDBRANCH  17  18
ENDBRANCH  16  17
ENDBRANCH  14  16
ENDBRANCH   1  14
TORSDOF 7
ENDMDL
