MODEL 1
REMARK VINA RESULT:      -3.0      0.000      0.000
REMARK  3 active torsions:
REMARK  status: ('A' for Active; 'I' for Inactive)
REMARK    1  A    between atoms: N_2  and  C_1 
REMARK    2  A    between atoms: N_4  and  C_1 
REMARK       I    between atoms: C_3  and  N_2 
REMARK    3  A    between atoms: C_5  and  C_3 
ROOT
ATOM      1  C   UNL d   1      31.365  16.409 -23.859  0.00  0.00     0.209 C 
ATOM      2  S   UNL d   1      31.880  15.807 -24.119  0.00  0.00    -0.038 SA
ENDROOT
BRANCH   1   3
ATOM      3  N   UNL d   1      31.651  17.155 -23.697  0.00  0.00    -0.179 NA
ATOM      4  C   UNL d   1      32.460  17.283 -23.623  0.00  0.00     0.287 C 
ATOM      5  O   UNL d   1      32.984  16.649 -23.713  0.00  0.00    -0.265 OA
BRANCH   4   6
ATOM      6  C   UNL d   1      32.751  18.037 -23.460  0.00  0.00     0.087 A 
ATOM      7  S   UNL d   1      32.880  18.701 -23.944  0.00  0.00    -0.082 SA
ATOM      8  C   UNL d   1      33.183  19.307 -23.471  0.00  0.00     0.036 A 
ATOM      9  C   UNL d   1      33.240  19.022 -22.703  0.00  0.00     0.008 A 
ATOM     10  C   UNL d   1      32.974  18.236 -22.691  0.00  0.00     0.012 A 
ENDBRANCH   4   6
ENDBRANCH   1   3
BRANCH   1  11
ATOM     11  N   UNL d   1      30.555  16.247 -23.763  0.00  0.00    -0.281 N 
ATOM     12  C   UNL d   1      30.297  15.739 -23.162  0.00  0.00     0.082 A 
ATOM     13  C   UNL d   1      29.500  15.579 -23.068  0.00  0.00     0.019 A 
ATOM     14  C   UNL d   1      28.943  15.926 -23.577  0.00  0.00     0.003 A 
ATOM     15  C   UNL d   1      29.206  16.431 -24.174  0.00  0.00     0.019 A 
ATOM     16  C   UNL d   1      28.129  15.769 -23.488  0.00  0.00     0.000 C 
ATOM     17  C   UNL d   1      30.006  16.591 -24.267  0.00  0.00     0.082 A 
ENDBRANCH   1  11
TORSDOF 3
ENDMDL
MODEL 2
REMARK VINA RESULT:      -2.7      1.075      3.879
REMARK  3 active torsions:
REMARK  status: ('A' for Active; 'I' for Inactive)
REMARK    1  A    between atoms: N_2  and  C_1 
REMARK    2  A    between atoms: N_4  and  C_1 
REMARK       I    between atoms: C_3  and  N_2 
REMARK    3  A    between atoms: C_5  and  C_3 
ROOT
ATOM      1  C   UNL d   1      31.934  16.860 -23.770  0.00  0.00     0.209 C 
ATOM      2  S   UNL d   1      32.431  16.213 -23.598  0.00  0.00    -0.038 SA
ENDROOT
BRANCH   1   3
ATOM      3  N   UNL d   1      31.128  16.754 -23.840  0.00  0.00    -0.179 NA
ATOM      4  C   UNL d   1      30.779  16.054 -23.587  0.00  0.00     0.287 C 
ATOM      5  O   UNL d   1      31.248  15.456 -23.261  0.00  0.00    -0.265 OA
BRANCH   4   6
ATOM      6  C   UNL d   1      29.964  15.945 -23.657  0.00  0.00     0.087 A 
ATOM      7  S   UNL d   1      29.460  15.923 -24.317  0.00  0.00    -0.082 SA
ATOM      8  C   UNL d   1      28.689  15.795 -24.048  0.00  0.00     0.036 A 
ATOM      9  C   UNL d   1      28.716  15.738 -23.229  0.00  0.00     0.008 A 
ATOM     10  C   UNL d   1      29.504  15.830 -22.982  0.00  0.00     0.012 A 
ENDBRANCH   4   6
ENDBRANCH   1   3
BRANCH   1  11
ATOM     11  N   UNL d   1      32.261  17.617 -23.872  0.00  0.00    -0.281 N 
ATOM     12  C   UNL d   1      32.527  18.050 -23.217  0.00  0.00     0.082 A 
ATOM     13  C   UNL d   1      32.849  18.795 -23.317  0.00  0.00     0.019 A 
ATOM     14  C   UNL d   1      32.913  19.124 -24.077  0.00  0.00     0.003 A 
ATOM     15  C   UNL d   1      32.647  18.688 -24.725  0.00  0.00     0.019 A 
ATOM     16  C   UNL d   1      33.240  19.882 -24.187  0.00  0.00     0.000 C 
ATOM     17  C   UNL d   1      32.323  17.940 -24.624  0.00  0.00     0.082 A 
ENDBRANCH   1  11
TORSDOF 3
ENDMDL
MODEL 3
REMARK VINA RESULT:      -2.7      2.879      5.156
REMARK  3 active torsions:
REMARK  status: ('A' for Active; 'I' for Inactive)
REMARK    1  A    between atoms: N_2  and  C_1 
REMARK    2  A    between atoms: N_4  and  C_1 
REMARK       I    between atoms: C_3  and  N_2 
REMARK    3  A    between atoms: C_5  and  C_3 
ROOT
ATOM      1  C   UNL d   1      32.915  20.379 -21.745  0.00  0.00     0.209 C 
ATOM      2  S   UNL d   1      33.241  19.949 -21.108  0.00  0.00    -0.038 SA
ENDROOT
BRANCH   1   3
ATOM      3  N   UNL d   1      32.782  20.017 -22.463  0.00  0.00    -0.179 NA
ATOM      4  C   UNL d   1      32.943  19.216 -22.560  0.00  0.00     0.287 C 
ATOM      5  O   UNL d   1      33.241  18.778 -21.924  0.00  0.00    -0.265 OA
BRANCH   4   6
ATOM      6  C   UNL d   1      32.810  18.848 -23.285  0.00  0.00     0.087 A 
ATOM      7  S   UNL d   1      33.005  19.065 -24.064  0.00  0.00    -0.082 SA
ATOM      8  C   UNL d   1      32.728  18.475 -24.572  0.00  0.00     0.036 A 
ATOM      9  C   UNL d   1      32.366  17.898 -24.112  0.00  0.00     0.008 A 
ATOM     10  C   UNL d   1      32.414  18.125 -23.315  0.00  0.00     0.012 A 
ENDBRANCH   4   6
ENDBRANCH   1   3
BRANCH   1  11
ATOM     11  N   UNL d   1      32.724  21.182 -21.645  0.00  0.00    -0.281 N 
ATOM     12  C   UNL d   1      32.124  21.408 -21.120  0.00  0.00     0.082 A 
ATOM     13  C   UNL d   1      31.936  22.198 -21.022  0.00  0.00     0.019 A 
ATOM     14  C   UNL d   1      32.346  22.780 -21.449  0.00  0.00     0.003 A 
ATOM     15  C   UNL d   1      32.942  22.549 -21.971  0.00  0.00     0.019 A 
ATOM     16  C   UNL d   1      32.160  23.588 -21.355  0.00  0.00     0.000 C 
ATOM     17  C   UNL d   1      33.130  21.756 -22.069  0.00  0.00     0.082 A 
ENDBRANCH   1  11
TORSDOF 3
ENDMDL
MODEL 4
REMARK VINA RESULT:      -2.4      1.280      1.665
REMARK  3 active torsions:
REMARK  status: ('A' for Active; 'I' for Inactive)
REMARK    1  A    between atoms: N_2  and  C_1 
REMARK    2  A    between atoms: N_4  and  C_1 
REMARK       I    between atoms: C_3  and  N_2 
REMARK    3  A    between atoms: C_5  and  C_3 
ROOT
ATOM      1  C   UNL d   1      29.933  17.271 -24.425  0.00  0.00     0.209 C 
ATOM      2  S   UNL d   1      29.843  17.822 -25.044  0.00  0.00    -0.038 SA
ENDROOT
BRANCH   1   3
ATOM      3  N   UNL d   1      30.655  17.177 -24.057  0.00  0.00    -0.179 NA
ATOM      4  C   UNL d   1      31.299  17.634 -24.286  0.00  0.00     0.287 C 
ATOM      5  O   UNL d   1      31.212  18.190 -24.893  0.00  0.00    -0.265 OA
BRANCH   4   6
ATOM      6  C   UNL d   1      32.030  17.541 -23.916  0.00  0.00     0.087 A 
ATOM      7  S   UNL d   1      32.559  16.900 -23.880  0.00  0.00    -0.082 SA
ATOM      8  C   UNL d   1      33.209  17.129 -23.424  0.00  0.00     0.036 A 
ATOM      9  C   UNL d   1      33.083  17.904 -23.180  0.00  0.00     0.008 A 
ATOM     10  C   UNL d   1      32.355  18.162 -23.482  0.00  0.00     0.012 A 
ENDBRANCH   4   6
ENDBRANCH   1   3
BRANCH   1  11
ATOM     11  N   UNL d   1      29.283  16.813 -24.182  0.00  0.00    -0.281 N 
ATOM     12  C   UNL d   1      29.164  16.054 -24.494  0.00  0.00     0.082 A 
ATOM     13  C   UNL d   1      28.524  15.605 -24.254  0.00  0.00     0.019 A 
ATOM     14  C   UNL d   1      27.988  15.905 -23.696  0.00  0.00     0.003 A 
ATOM     15  C   UNL d   1      28.112  16.661 -23.389  0.00  0.00     0.019 A 
ATOM     16  C   UNL d   1      27.334  15.453 -23.447  0.00  0.00     0.000 C 
ATOM     17  C   UNL d   1      28.754  17.113 -23.630  0.00  0.00     0.082 A 
ENDBRANCH   1  11
TORSDOF 3
ENDMDL
MODEL 5
REMARK VINA RESULT:      -2.2      1.026      4.098
REMARK  3 active torsions:
REMARK  status: ('A' for Active; 'I' for Inactive)
REMARK    1  A    between atoms: N_2  and  C_1 
REMARK    2  A    between atoms: N_4  and  C_1 
REMARK       I    between atoms: C_3  and  N_2 
REMARK    3  A    between atoms: C_5  and  C_3 
ROOT
ATOM      1  C   UNL d   1      32.719  18.146 -23.838  0.00  0.00     0.209 C 
ATOM      2  S   UNL d   1      33.241  17.999 -24.472  0.00  0.00    -0.038 SA
ENDROOT
BRANCH   1   3
ATOM      3  N   UNL d   1      32.082  17.655 -23.704  0.00  0.00    -0.179 NA
ATOM      4  C   UNL d   1      31.891  17.067 -24.246  0.00  0.00     0.287 C 
ATOM      5  O   UNL d   1      32.348  16.976 -24.930  0.00  0.00    -0.265 OA
BRANCH   4   6
ATOM      6  C   UNL d   1      31.247  16.569 -24.113  0.00  0.00     0.087 A 
ATOM      7  S   UNL d   1      31.189  15.817 -23.763  0.00  0.00    -0.082 SA
ATOM      8  C   UNL d   1      30.395  15.587 -23.782  0.00  0.00     0.036 A 
ATOM      9  C   UNL d   1      29.968  16.190 -24.139  0.00  0.00     0.008 A 
ATOM     10  C   UNL d   1      30.491  16.800 -24.346  0.00  0.00     0.012 A 
ENDBRANCH   4   6
ENDBRANCH   1   3
BRANCH   1  11
ATOM     11  N   UNL d   1      32.850  18.799 -23.340  0.00  0.00    -0.281 N 
ATOM     12  C   UNL d   1      32.875  19.566 -23.652  0.00  0.00     0.082 A 
ATOM     13  C   UNL d   1      33.003  20.208 -23.161  0.00  0.00     0.019 A 
ATOM     14  C   UNL d   1      33.110  20.095 -22.346  0.00  0.00     0.003 A 
ATOM     15  C   UNL d   1      33.084  19.329 -22.041  0.00  0.00     0.019 A 
ATOM     16  C   UNL d   1      33.241  20.745 -21.839  0.00  0.00     0.000 C 
ATOM     17  C   UNL d   1      32.955  18.685 -22.534  0.00  0.00     0.082 A 
ENDBRANCH   1  11
TORSDOF 3
ENDMDL
MODEL 6
REMARK VINA RESULT:      -2.1      3.703      4.955
REMARK  3 active torsions:
REMARK  status: ('A' for Active; 'I' for Inactive)
REMARK    1  A    between atoms: N_2  and  C_1 
REMARK    2  A    between atoms: N_4  and  C_1 
REMARK       I    between atoms: C_3  and  N_2 
REMARK    3  A    between atoms: C_5  and  C_3 
ROOT
ATOM      1  C   UNL d   1      33.078  20.321 -21.934  0.00  0.00     0.209 C 
ATOM      2  S   UNL d   1      33.236  20.005 -21.178  0.00  0.00    -0.038 SA
ENDROOT
BRANCH   1   3
ATOM      3  N   UNL d   1      32.907  21.113 -22.023  0.00  0.00    -0.179 NA
ATOM      4  C   UNL d   1      32.790  21.589 -21.363  0.00  0.00     0.287 C 
ATOM      5  O   UNL d   1      32.846  21.260 -20.606  0.00  0.00    -0.265 OA
BRANCH   4   6
ATOM      6  C   UNL d   1      32.617  22.390 -21.451  0.00  0.00     0.087 A 
ATOM      7  S   UNL d   1      32.956  22.984 -21.924  0.00  0.00    -0.082 SA
ATOM      8  C   UNL d   1      32.550  23.690 -21.780  0.00  0.00     0.036 A 
ATOM      9  C   UNL d   1      31.965  23.533 -21.224  0.00  0.00     0.008 A 
ATOM     10  C   UNL d   1      32.003  22.730 -21.018  0.00  0.00     0.012 A 
ENDBRANCH   4   6
ENDBRANCH   1   3
BRANCH   1  11
ATOM     11  N   UNL d   1      33.095  19.824 -22.600  0.00  0.00    -0.281 N 
ATOM     12  C   UNL d   1      33.224  20.139 -23.356  0.00  0.00     0.082 A 
ATOM     13  C   UNL d   1      33.241  19.651 -24.011  0.00  0.00     0.019 A 
ATOM     14  C   UNL d   1      33.128  18.833 -23.924  0.00  0.00     0.003 A 
ATOM     15  C   UNL d   1      32.999  18.524 -23.170  0.00  0.00     0.019 A 
ATOM     16  C   UNL d   1      33.143  18.328 -24.588  0.00  0.00     0.000 C 
ATOM     17  C   UNL d   1      32.983  19.015 -22.512  0.00  0.00     0.082 A 
ENDBRANCH   1  11
TORSDOF 3
ENDMDL
MODEL 7
REMARK VINA RESULT:      -1.5      2.739      3.824
REMARK  3 active torsions:
REMARK  status: ('A' for Active; 'I' for Inactive)
REMARK    1  A    between atoms: N_2  and  C_1 
REMARK    2  A    between atoms: N_4  and  C_1 
REMARK       I    between atoms: C_3  and  N_2 
REMARK    3  A    between atoms: C_5  and  C_3 
ROOT
ATOM      1  C   UNL d   1      32.971  19.362 -22.511  0.00  0.00     0.209 C 
ATOM      2  S   UNL d   1      33.230  19.028 -21.793  0.00  0.00    -0.038 SA
ENDROOT
BRANCH   1   3
ATOM      3  N   UNL d   1      32.951  20.172 -22.607  0.00  0.00    -0.179 NA
ATOM      4  C   UNL d   1      32.928  20.666 -21.950  0.00  0.00     0.287 C 
ATOM      5  O   UNL d   1      32.926  20.338 -21.190  0.00  0.00    -0.265 OA
BRANCH   4   6
ATOM      6  C   UNL d   1      32.907  21.485 -22.044  0.00  0.00     0.087 A 
ATOM      7  S   UNL d   1      33.241  21.989 -22.616  0.00  0.00    -0.082 SA
ATOM      8  C   UNL d   1      33.033  22.766 -22.426  0.00  0.00     0.036 A 
ATOM      9  C   UNL d   1      32.576  22.743 -21.744  0.00  0.00     0.008 A 
ATOM     10  C   UNL d   1      32.495  21.953 -21.504  0.00  0.00     0.012 A 
ENDBRANCH   4   6
ENDBRANCH   1   3
BRANCH   1  11
ATOM     11  N   UNL d   1      32.733  18.867 -23.135  0.00  0.00    -0.281 N 
ATOM     12  C   UNL d   1      32.156  18.284 -23.011  0.00  0.00     0.082 A 
ATOM     13  C   UNL d   1      31.922  17.797 -23.624  0.00  0.00     0.019 A 
ATOM     14  C   UNL d   1      32.260  17.882 -24.377  0.00  0.00     0.003 A 
ATOM     15  C   UNL d   1      32.834  18.463 -24.495  0.00  0.00     0.019 A 
ATOM     16  C   UNL d   1      32.026  17.389 -25.008  0.00  0.00     0.000 C 
ATOM     17  C   UNL d   1      33.069  18.953 -23.879  0.00  0.00     0.082 A 
ENDBRANCH   1  11
TORSDOF 3
ENDMDL
MODEL 8
REMARK VINA RESULT:      -0.7      2.129      4.227
REMARK  3 active torsions:
REMARK  status: ('A' for Active; 'I' for Inactive)
REMARK    1  A    between atoms: N_2  and  C_1 
REMARK    2  A    between atoms: N_4  and  C_1 
REMARK       I    between atoms: C_3  and  N_2 
REMARK    3  A    between atoms: C_5  and  C_3 
ROOT
ATOM      1  C   UNL d   1      30.035  17.369 -24.664  0.00  0.00     0.209 C 
ATOM      2  S   UNL d   1      29.775  18.129 -24.890  0.00  0.00    -0.038 SA
ENDROOT
BRANCH   1   3
ATOM      3  N   UNL d   1      29.506  16.822 -24.371  0.00  0.00    -0.179 NA
ATOM      4  C   UNL d   1      28.793  17.068 -24.045  0.00  0.00     0.287 C 
ATOM      5  O   UNL d   1      28.612  17.875 -24.016  0.00  0.00    -0.265 OA
BRANCH   4   6
ATOM      6  C   UNL d   1      28.256  16.516 -23.748  0.00  0.00     0.087 A 
ATOM      7  S   UNL d   1      28.028  15.762 -24.015  0.00  0.00    -0.082 SA
ATOM      8  C   UNL d   1      27.464  15.464 -23.489  0.00  0.00     0.036 A 
ATOM      9  C   UNL d   1      27.345  16.028 -22.904  0.00  0.00     0.008 A 
ATOM     10  C   UNL d   1      27.833  16.681 -23.060  0.00  0.00     0.012 A 
ENDBRANCH   4   6
ENDBRANCH   1   3
BRANCH   1  11
ATOM     11  N   UNL d   1      30.839  17.169 -24.737  0.00  0.00    -0.281 N 
ATOM     12  C   UNL d   1      31.427  17.712 -24.522  0.00  0.00     0.082 A 
ATOM     13  C   UNL d   1      32.217  17.515 -24.594  0.00  0.00     0.019 A 
ATOM     14  C   UNL d   1      32.437  16.769 -24.884  0.00  0.00     0.003 A 
ATOM     15  C   UNL d   1      31.847  16.232 -25.095  0.00  0.00     0.019 A 
ATOM     16  C   UNL d   1      33.241  16.561 -24.960  0.00  0.00     0.000 C 
ATOM     17  C   UNL d   1      31.053  16.430 -25.023  0.00  0.00     0.082 A 
ENDBRANCH   1  11
TORSDOF 3
ENDMDL
