MODEL 1
REMARK VINA RESULT:      24.4      0.000      0.000
REMARK  2 active torsions:
REMARK  status: ('A' for Active; 'I' for Inactive)
REMARK    1  A    between atoms: C_4  and  C_1 
REMARK    2  A    between atoms: C_2  and  C_7 
ROOT
ATOM      1  C   UNL d   1     -56.339 -99.355 -44.324  0.00  0.00     0.003 A 
ATOM      2  C   UNL d   1     -55.321-100.356 -44.335  0.00  0.00     0.071 A 
ATOM      3  C   UNL d   1     -56.118-100.154 -44.329  0.00  0.00     0.004 A 
ATOM      4  C   UNL d   1     -55.770 -98.766 -44.325  0.00  0.00     0.000 A 
ATOM      5  C   UNL d   1     -54.740 -99.766 -44.336  0.00  0.00     0.004 A 
ATOM      6  C   UNL d   1     -54.970 -98.965 -44.331  0.00  0.00    -0.000 A 
ENDROOT
BRANCH   1   7
ATOM      7  C   UNL d   1     -57.140 -99.156 -44.317  0.00  0.00     0.042 A 
ATOM      8  C   UNL d   1     -57.549 -99.108 -43.600  0.00  0.00     0.045 A 
ATOM      9  C   UNL d   1     -58.349 -98.909 -43.594  0.00  0.00     0.196 A 
ATOM     10  O   UNL d   1     -58.759 -98.862 -42.877  0.00  0.00    -0.287 OA
ATOM     11  C   UNL d   1     -58.741 -98.757 -44.304  0.00  0.00     0.045 A 
ATOM     12  C   UNL d   1     -58.332 -98.805 -45.021  0.00  0.00     0.045 A 
ATOM     13  C   UNL d   1     -57.531 -99.004 -45.027  0.00  0.00     0.196 A 
ATOM     14  O   UNL d   1     -57.122 -99.052 -45.744  0.00  0.00    -0.287 OA
ENDBRANCH   1   7
BRANCH   2  15
ATOM     15  C   UNL d   1     -55.095-101.149 -44.341  0.00  0.00     0.419 C 
ATOM     16  F   UNL d   1     -54.890-101.872 -44.348  0.00  0.00    -0.166 F 
ATOM     17  F   UNL d   1     -54.843-101.650 -43.686  0.00  0.00    -0.166 F 
ATOM     18  F   UNL d   1     -55.048-101.704 -45.008  0.00  0.00    -0.166 F 
ENDBRANCH   2  15
TORSDOF 2
ENDMDL
MODEL 2
REMARK VINA RESULT:      25.8      2.506      3.544
REMARK  2 active torsions:
REMARK  status: ('A' for Active; 'I' for Inactive)
REMARK    1  A    between atoms: C_4  and  C_1 
REMARK    2  A    between atoms: C_2  and  C_7 
ROOT
ATOM      1  C   UNL d   1     -57.168 -98.768 -44.438  0.00  0.00     0.003 A 
ATOM      2  C   UNL d   1     -58.480 -98.777 -43.875  0.00  0.00     0.071 A 
ATOM      3  C   UNL d   1     -57.664 -98.778 -43.774  0.00  0.00     0.004 A 
ATOM      4  C   UNL d   1     -57.485 -98.757 -45.193  0.00  0.00     0.000 A 
ATOM      5  C   UNL d   1     -58.807 -98.765 -44.634  0.00  0.00     0.004 A 
ATOM      6  C   UNL d   1     -58.303 -98.755 -45.298  0.00  0.00    -0.000 A 
ENDROOT
BRANCH   1   7
ATOM      7  C   UNL d   1     -56.350 -98.770 -44.333  0.00  0.00     0.042 A 
ATOM      8  C   UNL d   1     -56.030 -98.774 -43.570  0.00  0.00     0.045 A 
ATOM      9  C   UNL d   1     -55.212 -98.776 -43.465  0.00  0.00     0.196 A 
ATOM     10  O   UNL d   1     -54.893 -98.780 -42.702  0.00  0.00    -0.287 OA
ATOM     11  C   UNL d   1     -54.713 -98.773 -44.122  0.00  0.00     0.045 A 
ATOM     12  C   UNL d   1     -55.033 -98.768 -44.885  0.00  0.00     0.045 A 
ATOM     13  C   UNL d   1     -55.851 -98.767 -44.990  0.00  0.00     0.196 A 
ATOM     14  O   UNL d   1     -56.171 -98.762 -45.752  0.00  0.00    -0.287 OA
ENDBRANCH   1   7
BRANCH   2  15
ATOM     15  C   UNL d   1     -58.979 -98.786 -43.217  0.00  0.00     0.419 C 
ATOM     16  F   UNL d   1     -59.434 -98.796 -42.620  0.00  0.00    -0.166 F 
ATOM     17  F   UNL d   1     -58.779 -98.755 -42.379  0.00  0.00    -0.166 F 
ATOM     18  F   UNL d   1     -59.846 -98.831 -43.184  0.00  0.00    -0.166 F 
ENDBRANCH   2  15
TORSDOF 2
ENDMDL
MODEL 3
REMARK VINA RESULT:      27.3      2.256      3.688
REMARK  2 active torsions:
REMARK  status: ('A' for Active; 'I' for Inactive)
REMARK    1  A    between atoms: C_4  and  C_1 
REMARK    2  A    between atoms: C_2  and  C_7 
ROOT
ATOM      1  C   UNL d   1     -55.329-100.356 -44.400  0.00  0.00     0.003 A 
ATOM      2  C   UNL d   1     -56.319 -99.331 -44.502  0.00  0.00     0.071 A 
ATOM      3  C   UNL d   1     -56.118-100.129 -44.514  0.00  0.00     0.004 A 
ATOM      4  C   UNL d   1     -54.749 -99.792 -44.275  0.00  0.00     0.000 A 
ATOM      5  C   UNL d   1     -55.738 -98.756 -44.376  0.00  0.00     0.004 A 
ATOM      6  C   UNL d   1     -54.946 -98.991 -44.262  0.00  0.00    -0.000 A 
ENDROOT
BRANCH   1   7
ATOM      7  C   UNL d   1     -55.132-101.156 -44.413  0.00  0.00     0.042 A 
ATOM      8  C   UNL d   1     -55.155-101.577 -45.125  0.00  0.00     0.045 A 
ATOM      9  C   UNL d   1     -54.958-102.378 -45.138  0.00  0.00     0.196 A 
ATOM     10  O   UNL d   1     -54.981-102.798 -45.850  0.00  0.00    -0.287 OA
ATOM     11  C   UNL d   1     -54.736-102.758 -44.441  0.00  0.00     0.045 A 
ATOM     12  C   UNL d   1     -54.713-102.338 -43.729  0.00  0.00     0.045 A 
ATOM     13  C   UNL d   1     -54.910-101.537 -43.716  0.00  0.00     0.196 A 
ATOM     14  O   UNL d   1     -54.887-101.116 -43.004  0.00  0.00    -0.287 OA
ENDBRANCH   1   7
BRANCH   2  15
ATOM     15  C   UNL d   1     -57.103 -99.100 -44.615  0.00  0.00     0.419 C 
ATOM     16  F   UNL d   1     -57.817 -98.890 -44.716  0.00  0.00    -0.166 F 
ATOM     17  F   UNL d   1     -57.479 -98.769 -45.317  0.00  0.00    -0.166 F 
ATOM     18  F   UNL d   1     -57.771 -99.124 -44.059  0.00  0.00    -0.166 F 
ENDBRANCH   2  15
TORSDOF 2
ENDMDL
