MODEL 1
REMARK VINA RESULT:      -7.1      0.000      0.000
REMARK  6 active torsions:
REMARK  status: ('A' for Active; 'I' for Inactive)
REMARK    1  A    between atoms: C_3  and  S_1 
REMARK    2  A    between atoms: N_12  and  S_1 
REMARK    3  A    between atoms: C_6  and  C_16 
REMARK    4  A    between atoms: C_17  and  N_12 
REMARK    5  A    between atoms: O_18  and  C_13 
REMARK    6  A    between atoms: C_16  and  C_17 
ROOT
ATOM      1  S   UNL d   1      50.998  34.022  52.722  0.00  0.00     0.285 S 
ATOM      2  O   UNL d   1      51.338  34.477  52.115  0.00  0.00    -0.198 OA
ATOM      3  O   UNL d   1      50.661  33.567  53.327  0.00  0.00    -0.198 OA
ENDROOT
BRANCH   1   4
ATOM      4  C   UNL d   1      51.744  33.904  53.048  0.00  0.00     0.105 A 
ATOM      5  C   UNL d   1      52.117  34.514  53.451  0.00  0.00     0.015 A 
ATOM      6  C   UNL d   1      52.871  34.387  53.778  0.00  0.00     0.023 A 
ATOM      7  C   UNL d   1      53.251  35.002  54.185  0.00  0.00     0.002 C 
ATOM      8  C   UNL d   1      53.236  33.663  53.700  0.00  0.00     0.094 A 
ATOM      9  C   UNL d   1      52.859  33.052  53.295  0.00  0.00     0.025 A 
ATOM     10  C   UNL d   1      52.116  33.171  52.970  0.00  0.00     0.015 A 
BRANCH   8  11
ATOM     11  O   UNL d   1      53.981  33.540  54.024  0.00  0.00    -0.328 OA
ATOM     12  C   UNL d   1      54.369  32.826  53.910  0.00  0.00     0.181 C 
ENDBRANCH   8  11
ENDBRANCH   1   4
BRANCH   1  13
ATOM     13  N   UNL d   1      50.253  34.145  52.388  0.00  0.00    -0.157 NA
BRANCH  13  14
ATOM     14  C   UNL d   1      49.747  34.729  52.716  0.00  0.00     0.114 C 
BRANCH  14  15
ATOM     15  C   UNL d   1      49.004  34.852  52.391  0.00  0.00     0.041 C 
BRANCH  15  16
ATOM     16  C   UNL d   1      48.504  35.436  52.694  0.00  0.00     0.090 A 
ATOM     17  N   UNL d   1      48.496  35.699  53.479  0.00  0.00    -0.238 NA
ATOM     18  C   UNL d   1      47.913  36.284  53.538  0.00  0.00     0.111 A 
ATOM     19  C   UNL d   1      47.708  36.707  54.226  0.00  0.00     0.028 C 
ATOM     20  S   UNL d   1      47.564  36.382  52.797  0.00  0.00    -0.066 SA
ATOM     21  C   UNL d   1      47.932  35.854  52.272  0.00  0.00     0.056 A 
ENDBRANCH  15  16
ENDBRANCH  14  15
ENDBRANCH  13  14
ENDBRANCH   1  13
TORSDOF 6
ENDMDL
MODEL 2
REMARK VINA RESULT:      -6.8      1.753      4.950
REMARK  6 active torsions:
REMARK  status: ('A' for Active; 'I' for Inactive)
REMARK    1  A    between atoms: C_3  and  S_1 
REMARK    2  A    between atoms: N_12  and  S_1 
REMARK    3  A    between atoms: C_6  and  C_16 
REMARK    4  A    between atoms: C_17  and  N_12 
REMARK    5  A    between atoms: O_18  and  C_13 
REMARK    6  A    between atoms: C_16  and  C_17 
ROOT
ATOM      1  S   UNL d   1      51.162  33.769  52.651  0.00  0.00     0.285 S 
ATOM      2  O   UNL d   1      51.527  34.325  52.151  0.00  0.00    -0.198 OA
ATOM      3  O   UNL d   1      50.797  33.216  53.148  0.00  0.00    -0.198 OA
ENDROOT
BRANCH   1   4
ATOM      4  C   UNL d   1      50.472  34.216  52.640  0.00  0.00     0.105 A 
ATOM      5  C   UNL d   1      49.999  34.227  51.968  0.00  0.00     0.015 A 
ATOM      6  C   UNL d   1      49.302  34.681  51.965  0.00  0.00     0.023 A 
ATOM      7  C   UNL d   1      48.824  34.694  51.289  0.00  0.00     0.002 C 
ATOM      8  C   UNL d   1      49.091  35.111  52.623  0.00  0.00     0.094 A 
ATOM      9  C   UNL d   1      49.567  35.099  53.297  0.00  0.00     0.025 A 
ATOM     10  C   UNL d   1      50.254  34.653  53.306  0.00  0.00     0.015 A 
BRANCH   8  11
ATOM     11  O   UNL d   1      48.401  35.559  52.618  0.00  0.00    -0.328 OA
ATOM     12  C   UNL d   1      48.178  35.982  53.285  0.00  0.00     0.181 C 
ENDBRANCH   8  11
ENDBRANCH   1   4
BRANCH   1  13
ATOM     13  N   UNL d   1      51.859  33.326  52.656  0.00  0.00    -0.157 NA
BRANCH  13  14
ATOM     14  C   UNL d   1      52.373  33.378  53.318  0.00  0.00     0.114 C 
BRANCH  14  15
ATOM     15  C   UNL d   1      53.087  32.976  53.310  0.00  0.00     0.041 C 
BRANCH  15  16
ATOM     16  C   UNL d   1      53.595  33.005  53.961  0.00  0.00     0.090 A 
ATOM     17  N   UNL d   1      54.156  33.597  54.102  0.00  0.00    -0.238 NA
ATOM     18  C   UNL d   1      54.540  33.409  54.812  0.00  0.00     0.111 A 
ATOM     19  C   UNL d   1      55.148  33.849  55.174  0.00  0.00     0.028 C 
ATOM     20  S   UNL d   1      54.219  32.709  55.107  0.00  0.00    -0.066 SA
ATOM     21  C   UNL d   1      53.631  32.458  54.577  0.00  0.00     0.056 A 
ENDBRANCH  15  16
ENDBRANCH  14  15
ENDBRANCH  13  14
ENDBRANCH   1  13
TORSDOF 6
ENDMDL
MODEL 3
REMARK VINA RESULT:      -6.7      2.414      3.477
REMARK  6 active torsions:
REMARK  status: ('A' for Active; 'I' for Inactive)
REMARK    1  A    between atoms: C_3  and  S_1 
REMARK    2  A    between atoms: N_12  and  S_1 
REMARK    3  A    between atoms: C_6  and  C_16 
REMARK    4  A    between atoms: C_17  and  N_12 
REMARK    5  A    between atoms: O_18  and  C_13 
REMARK    6  A    between atoms: C_16  and  C_17 
ROOT
ATOM      1  S   UNL d   1      52.845  32.085  53.034  0.00  0.00     0.285 S 
ATOM      2  O   UNL d   1      52.847  32.359  53.819  0.00  0.00    -0.198 OA
ATOM      3  O   UNL d   1      52.843  31.811  52.252  0.00  0.00    -0.198 OA
ENDROOT
BRANCH   1   4
ATOM      4  C   UNL d   1      52.989  31.321  53.302  0.00  0.00     0.105 A 
ATOM      5  C   UNL d   1      52.566  30.689  52.992  0.00  0.00     0.015 A 
ATOM      6  C   UNL d   1      52.718  29.920  53.269  0.00  0.00     0.023 A 
ATOM      7  C   UNL d   1      52.292  29.281  52.957  0.00  0.00     0.002 C 
ATOM      8  C   UNL d   1      53.282  29.794  53.842  0.00  0.00     0.094 A 
ATOM      9  C   UNL d   1      53.706  30.430  54.152  0.00  0.00     0.025 A 
ATOM     10  C   UNL d   1      53.561  31.190  53.884  0.00  0.00     0.015 A 
BRANCH   8  11
ATOM     11  O   UNL d   1      53.431  29.033  54.114  0.00  0.00    -0.328 OA
ATOM     12  C   UNL d   1      53.539  28.893  54.915  0.00  0.00     0.181 C 
ENDBRANCH   8  11
ENDBRANCH   1   4
BRANCH   1  13
ATOM     13  N   UNL d   1      52.699  32.855  52.773  0.00  0.00    -0.157 NA
BRANCH  13  14
ATOM     14  C   UNL d   1      51.924  33.171  52.837  0.00  0.00     0.114 C 
BRANCH  14  15
ATOM     15  C   UNL d   1      51.763  33.916  52.535  0.00  0.00     0.041 C 
BRANCH  15  16
ATOM     16  C   UNL d   1      50.984  34.182  52.465  0.00  0.00     0.090 A 
ATOM     17  N   UNL d   1      50.547  34.205  51.762  0.00  0.00    -0.238 NA
ATOM     18  C   UNL d   1      49.799  34.509  51.945  0.00  0.00     0.111 A 
ATOM     19  C   UNL d   1      49.173  34.631  51.409  0.00  0.00     0.028 C 
ATOM     20  S   UNL d   1      49.773  34.673  52.753  0.00  0.00    -0.066 SA
ATOM     21  C   UNL d   1      50.510  34.469  53.076  0.00  0.00     0.056 A 
ENDBRANCH  15  16
ENDBRANCH  14  15
ENDBRANCH  13  14
ENDBRANCH   1  13
TORSDOF 6
ENDMDL
MODEL 4
REMARK VINA RESULT:      -6.6      3.242      5.114
REMARK  6 active torsions:
REMARK  status: ('A' for Active; 'I' for Inactive)
REMARK    1  A    between atoms: C_3  and  S_1 
REMARK    2  A    between atoms: N_12  and  S_1 
REMARK    3  A    between atoms: C_6  and  C_16 
REMARK    4  A    between atoms: C_17  and  N_12 
REMARK    5  A    between atoms: O_18  and  C_13 
REMARK    6  A    between atoms: C_16  and  C_17 
ROOT
ATOM      1  S   UNL d   1      53.000  32.960  53.167  0.00  0.00     0.285 S 
ATOM      2  O   UNL d   1      53.821  32.959  53.035  0.00  0.00    -0.198 OA
ATOM      3  O   UNL d   1      52.182  32.962  53.301  0.00  0.00    -0.198 OA
ENDROOT
BRANCH   1   4
ATOM      4  C   UNL d   1      53.067  33.676  53.566  0.00  0.00     0.105 A 
ATOM      5  C   UNL d   1      53.514  33.724  54.253  0.00  0.00     0.015 A 
ATOM      6  C   UNL d   1      53.577  34.452  54.650  0.00  0.00     0.023 A 
ATOM      7  C   UNL d   1      54.028  34.503  55.344  0.00  0.00     0.002 C 
ATOM      8  C   UNL d   1      53.198  35.112  54.360  0.00  0.00     0.094 A 
ATOM      9  C   UNL d   1      52.749  35.061  53.670  0.00  0.00     0.025 A 
ATOM     10  C   UNL d   1      52.683  34.347  53.275  0.00  0.00     0.015 A 
BRANCH   8  11
ATOM     11  O   UNL d   1      53.261  35.830  54.755  0.00  0.00    -0.328 OA
ATOM     12  C   UNL d   1      52.622  36.344  54.784  0.00  0.00     0.181 C 
ENDBRANCH   8  11
ENDBRANCH   1   4
BRANCH   1  13
ATOM     13  N   UNL d   1      52.941  32.241  52.766  0.00  0.00    -0.157 NA
BRANCH  13  14
ATOM     14  C   UNL d   1      52.844  31.532  53.206  0.00  0.00     0.114 C 
BRANCH  14  15
ATOM     15  C   UNL d   1      53.049  30.813  52.868  0.00  0.00     0.041 C 
BRANCH  15  16
ATOM     16  C   UNL d   1      52.981  30.111  53.298  0.00  0.00     0.090 A 
ATOM     17  N   UNL d   1      53.482  29.879  53.915  0.00  0.00    -0.238 NA
ATOM     18  C   UNL d   1      53.215  29.144  54.187  0.00  0.00     0.111 A 
ATOM     19  C   UNL d   1      53.550  28.696  54.805  0.00  0.00     0.028 C 
ATOM     20  S   UNL d   1      52.555  28.924  53.743  0.00  0.00    -0.066 SA
ATOM     21  C   UNL d   1      52.411  29.526  53.190  0.00  0.00     0.056 A 
ENDBRANCH  15  16
ENDBRANCH  14  15
ENDBRANCH  13  14
ENDBRANCH   1  13
TORSDOF 6
ENDMDL
MODEL 5
REMARK VINA RESULT:      -6.6      1.859      5.072
REMARK  6 active torsions:
REMARK  status: ('A' for Active; 'I' for Inactive)
REMARK    1  A    between atoms: C_3  and  S_1 
REMARK    2  A    between atoms: N_12  and  S_1 
REMARK    3  A    between atoms: C_6  and  C_16 
REMARK    4  A    between atoms: C_17  and  N_12 
REMARK    5  A    between atoms: O_18  and  C_13 
REMARK    6  A    between atoms: C_16  and  C_17 
ROOT
ATOM      1  S   UNL d   1      51.147  34.053  52.830  0.00  0.00     0.285 S 
ATOM      2  O   UNL d   1      51.537  34.456  52.216  0.00  0.00    -0.198 OA
ATOM      3  O   UNL d   1      50.755  33.652  53.440  0.00  0.00    -0.198 OA
ENDROOT
BRANCH   1   4
ATOM      4  C   UNL d   1      50.425  34.328  52.547  0.00  0.00     0.105 A 
ATOM      5  C   UNL d   1      49.947  34.795  53.024  0.00  0.00     0.015 A 
ATOM      6  C   UNL d   1      49.219  35.069  52.731  0.00  0.00     0.023 A 
ATOM      7  C   UNL d   1      48.735  35.541  53.211  0.00  0.00     0.002 C 
ATOM      8  C   UNL d   1      48.981  34.875  51.977  0.00  0.00     0.094 A 
ATOM      9  C   UNL d   1      49.462  34.405  51.500  0.00  0.00     0.025 A 
ATOM     10  C   UNL d   1      50.181  34.133  51.783  0.00  0.00     0.015 A 
BRANCH   8  11
ATOM     11  O   UNL d   1      48.260  35.147  51.690  0.00  0.00    -0.328 OA
ATOM     12  C   UNL d   1      48.011  34.940  50.935  0.00  0.00     0.181 C 
ENDBRANCH   8  11
ENDBRANCH   1   4
BRANCH   1  13
ATOM     13  N   UNL d   1      51.875  33.781  53.107  0.00  0.00    -0.157 NA
BRANCH  13  14
ATOM     14  C   UNL d   1      52.075  32.971  53.010  0.00  0.00     0.114 C 
BRANCH  14  15
ATOM     15  C   UNL d   1      52.854  32.732  53.104  0.00  0.00     0.041 C 
BRANCH  15  16
ATOM     16  C   UNL d   1      53.038  31.934  53.213  0.00  0.00     0.090 A 
ATOM     17  N   UNL d   1      52.677  31.301  52.820  0.00  0.00    -0.238 NA
ATOM     18  C   UNL d   1      53.029  30.604  53.095  0.00  0.00     0.111 A 
ATOM     19  C   UNL d   1      52.841  29.829  52.854  0.00  0.00     0.028 C 
ATOM     20  S   UNL d   1      53.603  30.804  53.654  0.00  0.00    -0.066 SA
ATOM     21  C   UNL d   1      53.608  31.631  53.727  0.00  0.00     0.056 A 
ENDBRANCH  15  16
ENDBRANCH  14  15
ENDBRANCH  13  14
ENDBRANCH   1  13
TORSDOF 6
ENDMDL
MODEL 6
REMARK VINA RESULT:      -5.1     10.531     11.396
REMARK  6 active torsions:
REMARK  status: ('A' for Active; 'I' for Inactive)
REMARK    1  A    between atoms: C_3  and  S_1 
REMARK    2  A    between atoms: N_12  and  S_1 
REMARK    3  A    between atoms: C_6  and  C_16 
REMARK    4  A    between atoms: C_17  and  N_12 
REMARK    5  A    between atoms: O_18  and  C_13 
REMARK    6  A    between atoms: C_16  and  C_17 
ROOT
ATOM      1  S   UNL d   1      45.082  27.282  56.954  0.00  0.00     0.285 S 
ATOM      2  O   UNL d   1      45.847  27.073  57.204  0.00  0.00    -0.198 OA
ATOM      3  O   UNL d   1      44.320  27.492  56.706  0.00  0.00    -0.198 OA
ENDROOT
BRANCH   1   4
ATOM      4  C   UNL d   1      45.037  27.836  57.560  0.00  0.00     0.105 A 
ATOM      5  C   UNL d   1      44.852  27.597  58.324  0.00  0.00     0.015 A 
ATOM      6  C   UNL d   1      44.809  28.163  58.931  0.00  0.00     0.023 A 
ATOM      7  C   UNL d   1      44.622  27.924  59.702  0.00  0.00     0.002 C 
ATOM      8  C   UNL d   1      44.950  28.949  58.770  0.00  0.00     0.094 A 
ATOM      9  C   UNL d   1      45.136  29.187  58.003  0.00  0.00     0.025 A 
ATOM     10  C   UNL d   1      45.180  28.634  57.400  0.00  0.00     0.015 A 
BRANCH   8  11
ATOM     11  O   UNL d   1      44.907  29.507  59.373  0.00  0.00    -0.328 OA
ATOM     12  C   UNL d   1      45.124  30.286  59.231  0.00  0.00     0.181 C 
ENDBRANCH   8  11
ENDBRANCH   1   4
BRANCH   1  13
ATOM     13  N   UNL d   1      45.134  26.724  56.348  0.00  0.00    -0.157 NA
BRANCH  13  14
ATOM     14  C   UNL d   1      44.901  25.931  56.498  0.00  0.00     0.114 C 
BRANCH  14  15
ATOM     15  C   UNL d   1      44.726  25.433  55.871  0.00  0.00     0.041 C 
BRANCH  15  16
ATOM     16  C   UNL d   1      44.748  24.613  55.966  0.00  0.00     0.090 A 
ATOM     17  N   UNL d   1      45.194  24.090  55.505  0.00  0.00    -0.238 NA
ATOM     18  C   UNL d   1      45.051  23.325  55.790  0.00  0.00     0.111 A 
ATOM     19  C   UNL d   1      45.382  22.620  55.494  0.00  0.00     0.028 C 
ATOM     20  S   UNL d   1      44.522  23.375  56.421  0.00  0.00    -0.066 SA
ATOM     21  C   UNL d   1      44.334  24.176  56.531  0.00  0.00     0.056 A 
ENDBRANCH  15  16
ENDBRANCH  14  15
ENDBRANCH  13  14
ENDBRANCH   1  13
TORSDOF 6
ENDMDL
MODEL 7
REMARK VINA RESULT:      -4.9     10.027     10.654
REMARK  6 active torsions:
REMARK  status: ('A' for Active; 'I' for Inactive)
REMARK    1  A    between atoms: C_3  and  S_1 
REMARK    2  A    between atoms: N_12  and  S_1 
REMARK    3  A    between atoms: C_6  and  C_16 
REMARK    4  A    between atoms: C_17  and  N_12 
REMARK    5  A    between atoms: O_18  and  C_13 
REMARK    6  A    between atoms: C_16  and  C_17 
ROOT
ATOM      1  S   UNL d   1      45.162  27.413  58.416  0.00  0.00     0.285 S 
ATOM      2  O   UNL d   1      44.522  27.443  58.946  0.00  0.00    -0.198 OA
ATOM      3  O   UNL d   1      45.799  27.381  57.887  0.00  0.00    -0.198 OA
ENDROOT
BRANCH   1   4
ATOM      4  C   UNL d   1      44.950  26.646  58.207  0.00  0.00     0.105 A 
ATOM      5  C   UNL d   1      44.772  26.466  57.426  0.00  0.00     0.015 A 
ATOM      6  C   UNL d   1      44.558  25.688  57.223  0.00  0.00     0.023 A 
ATOM      7  C   UNL d   1      44.377  25.505  56.435  0.00  0.00     0.002 C 
ATOM      8  C   UNL d   1      44.527  25.110  57.795  0.00  0.00     0.094 A 
ATOM      9  C   UNL d   1      44.707  25.292  58.579  0.00  0.00     0.025 A 
ATOM     10  C   UNL d   1      44.918  26.056  58.785  0.00  0.00     0.015 A 
BRANCH   8  11
ATOM     11  O   UNL d   1      44.316  24.341  57.592  0.00  0.00    -0.328 OA
ATOM     12  C   UNL d   1      44.381  23.736  58.142  0.00  0.00     0.181 C 
ENDBRANCH   8  11
ENDBRANCH   1   4
BRANCH   1  13
ATOM     13  N   UNL d   1      45.368  28.182  58.630  0.00  0.00    -0.157 NA
BRANCH  13  14
ATOM     14  C   UNL d   1      45.089  28.826  58.169  0.00  0.00     0.114 C 
BRANCH  14  15
ATOM     15  C   UNL d   1      45.198  29.594  58.435  0.00  0.00     0.041 C 
BRANCH  15  16
ATOM     16  C   UNL d   1      44.951  30.237  57.979  0.00  0.00     0.090 A 
ATOM     17  N   UNL d   1      44.766  30.208  57.172  0.00  0.00    -0.238 NA
ATOM     18  C   UNL d   1      44.546  30.972  56.941  0.00  0.00     0.111 A 
ATOM     19  C   UNL d   1      44.314  31.207  56.176  0.00  0.00     0.028 C 
ATOM     20  S   UNL d   1      44.593  31.469  57.598  0.00  0.00    -0.066 SA
ATOM     21  C   UNL d   1      44.845  31.011  58.243  0.00  0.00     0.056 A 
ENDBRANCH  15  16
ENDBRANCH  14  15
ENDBRANCH  13  14
ENDBRANCH   1  13
TORSDOF 6
ENDMDL
MODEL 8
REMARK VINA RESULT:      -4.5     10.142     10.858
REMARK  6 active torsions:
REMARK  status: ('A' for Active; 'I' for Inactive)
REMARK    1  A    between atoms: C_3  and  S_1 
REMARK    2  A    between atoms: N_12  and  S_1 
REMARK    3  A    between atoms: C_6  and  C_16 
REMARK    4  A    between atoms: C_17  and  N_12 
REMARK    5  A    between atoms: O_18  and  C_13 
REMARK    6  A    between atoms: C_16  and  C_17 
ROOT
ATOM      1  S   UNL d   1      45.086  28.471  58.267  0.00  0.00     0.285 S 
ATOM      2  O   UNL d   1      44.314  28.442  58.577  0.00  0.00    -0.198 OA
ATOM      3  O   UNL d   1      45.853  28.498  57.957  0.00  0.00    -0.198 OA
ENDROOT
BRANCH   1   4
ATOM      4  C   UNL d   1      44.988  27.714  57.960  0.00  0.00     0.105 A 
ATOM      5  C   UNL d   1      44.996  27.063  58.460  0.00  0.00     0.015 A 
ATOM      6  C   UNL d   1      44.897  26.301  58.142  0.00  0.00     0.023 A 
ATOM      7  C   UNL d   1      44.905  25.643  58.645  0.00  0.00     0.002 C 
ATOM      8  C   UNL d   1      44.792  26.202  57.341  0.00  0.00     0.094 A 
ATOM      9  C   UNL d   1      44.784  26.857  56.840  0.00  0.00     0.025 A 
ATOM     10  C   UNL d   1      44.882  27.610  57.147  0.00  0.00     0.015 A 
BRANCH   8  11
ATOM     11  O   UNL d   1      44.694  25.447  57.029  0.00  0.00    -0.328 OA
ATOM     12  C   UNL d   1      44.689  25.334  56.216  0.00  0.00     0.181 C 
ENDBRANCH   8  11
ENDBRANCH   1   4
BRANCH   1  13
ATOM     13  N   UNL d   1      45.175  29.230  58.578  0.00  0.00    -0.157 NA
BRANCH  13  14
ATOM     14  C   UNL d   1      44.870  29.400  59.341  0.00  0.00     0.114 C 
BRANCH  14  15
ATOM     15  C   UNL d   1      44.863  30.173  59.614  0.00  0.00     0.041 C 
BRANCH  15  16
ATOM     16  C   UNL d   1      44.708  30.339  60.408  0.00  0.00     0.090 A 
ATOM     17  N   UNL d   1      44.721  29.785  61.023  0.00  0.00    -0.238 NA
ATOM     18  C   UNL d   1      44.534  30.187  61.722  0.00  0.00     0.111 A 
ATOM     19  C   UNL d   1      44.482  29.853  62.484  0.00  0.00     0.028 C 
ATOM     20  S   UNL d   1      44.406  30.982  61.542  0.00  0.00    -0.066 SA
ATOM     21  C   UNL d   1      44.514  31.076  60.724  0.00  0.00     0.056 A 
ENDBRANCH  15  16
ENDBRANCH  14  15
ENDBRANCH  13  14
ENDBRANCH   1  13
TORSDOF 6
ENDMDL
MODEL 9
REMARK VINA RESULT:      -4.5     10.536     11.405
REMARK  6 active torsions:
REMARK  status: ('A' for Active; 'I' for Inactive)
REMARK    1  A    between atoms: C_3  and  S_1 
REMARK    2  A    between atoms: N_12  and  S_1 
REMARK    3  A    between atoms: C_6  and  C_16 
REMARK    4  A    between atoms: C_17  and  N_12 
REMARK    5  A    between atoms: O_18  and  C_13 
REMARK    6  A    between atoms: C_16  and  C_17 
ROOT
ATOM      1  S   UNL d   1      45.125  27.697  58.269  0.00  0.00     0.285 S 
ATOM      2  O   UNL d   1      45.597  27.512  57.609  0.00  0.00    -0.198 OA
ATOM      3  O   UNL d   1      44.655  27.884  58.924  0.00  0.00    -0.198 OA
ENDROOT
BRANCH   1   4
ATOM      4  C   UNL d   1      44.984  28.444  57.954  0.00  0.00     0.105 A 
ATOM      5  C   UNL d   1      45.110  29.114  58.411  0.00  0.00     0.015 A 
ATOM      6  C   UNL d   1      44.965  29.866  58.086  0.00  0.00     0.023 A 
ATOM      7  C   UNL d   1      45.092  30.543  58.546  0.00  0.00     0.002 C 
ATOM      8  C   UNL d   1      44.699  29.936  57.320  0.00  0.00     0.094 A 
ATOM      9  C   UNL d   1      44.572  29.262  56.862  0.00  0.00     0.025 A 
ATOM     10  C   UNL d   1      44.714  28.519  57.177  0.00  0.00     0.015 A 
BRANCH   8  11
ATOM     11  O   UNL d   1      44.555  30.680  57.000  0.00  0.00    -0.328 OA
ATOM     12  C   UNL d   1      44.345  30.757  56.211  0.00  0.00     0.181 C 
ENDBRANCH   8  11
ENDBRANCH   1   4
BRANCH   1  13
ATOM     13  N   UNL d   1      45.273  26.947  58.577  0.00  0.00    -0.157 NA
BRANCH  13  14
ATOM     14  C   UNL d   1      44.830  26.291  58.293  0.00  0.00     0.114 C 
BRANCH  14  15
ATOM     15  C   UNL d   1      44.690  25.652  58.786  0.00  0.00     0.041 C 
BRANCH  15  16
ATOM     16  C   UNL d   1      44.561  24.899  58.472  0.00  0.00     0.090 A 
ATOM     17  N   UNL d   1      44.529  24.197  58.910  0.00  0.00    -0.238 NA
ATOM     18  C   UNL d   1      44.389  23.579  58.377  0.00  0.00     0.111 A 
ATOM     19  C   UNL d   1      44.314  22.771  58.568  0.00  0.00     0.028 C 
ATOM     20  S   UNL d   1      44.334  23.895  57.617  0.00  0.00    -0.066 SA
ATOM     21  C   UNL d   1      44.441  24.716  57.677  0.00  0.00     0.056 A 
ENDBRANCH  15  16
ENDBRANCH  14  15
ENDBRANCH  13  14
ENDBRANCH   1  13
TORSDOF 6
ENDMDL
