MODEL 1
REMARK VINA RESULT:      24.6      0.000      0.000
REMARK  2 active torsions:
REMARK  status: ('A' for Active; 'I' for Inactive)
REMARK    1  A    between atoms: C_12  and  C_4 
REMARK    2  A    between atoms: O_14  and  C_10 
ROOT
ATOM      1  C   UNL d   1      14.910  13.165  -1.090  0.00  0.00     0.101 A 
ATOM      2  C   UNL d   1      14.901  12.392  -1.388  0.00  0.00     0.203 A 
ATOM      3  C   UNL d   1      14.472  12.226  -2.073  0.00  0.00     0.067 A 
ATOM      4  C   UNL d   1      14.059  12.819  -2.455  0.00  0.00     0.103 A 
ATOM      5  C   UNL d   1      14.497  13.757  -1.472  0.00  0.00     0.108 A 
ATOM      6  O   UNL d   1      14.067  13.589  -2.158  0.00  0.00    -0.307 OA
ATOM      7  C   UNL d   1      15.338  13.328  -0.407  0.00  0.00     0.203 A 
ATOM      8  C   UNL d   1      14.504  14.525  -1.178  0.00  0.00     0.049 A 
ATOM      9  C   UNL d   1      15.352  14.111  -0.099  0.00  0.00     0.066 A 
ATOM     10  C   UNL d   1      14.939  14.704  -0.480  0.00  0.00     0.099 A 
ATOM     11  O   UNL d   1      15.326  11.783  -0.995  0.00  0.00    -0.286 OA
ATOM     12  O   UNL d   1      15.763  12.719  -0.015  0.00  0.00    -0.286 OA
ENDROOT
BRANCH   4  13
ATOM     13  C   UNL d   1      13.632  12.658  -3.134  0.00  0.00     0.023 A 
ATOM     14  C   UNL d   1      13.224  11.943  -3.192  0.00  0.00     0.002 A 
ATOM     15  C   UNL d   1      12.794  11.779  -3.874  0.00  0.00     0.000 A 
ATOM     16  C   UNL d   1      12.771  12.324  -4.495  0.00  0.00     0.000 A 
ATOM     17  C   UNL d   1      13.178  13.039  -4.441  0.00  0.00     0.000 A 
ATOM     18  C   UNL d   1      13.609  13.203  -3.755  0.00  0.00     0.002 A 
ENDBRANCH   4  13
BRANCH  10  19
ATOM     19  O   UNL d   1      14.940  15.500  -0.185  0.00  0.00    -0.328 OA
ATOM     20  C   UNL d   1      15.432  16.062  -0.517  0.00  0.00     0.181 C 
ENDBRANCH  10  19
TORSDOF 2
ENDMDL
