MODEL 1
REMARK VINA RESULT:       0.6      0.000      0.000
REMARK  10 active torsions:
REMARK  status: ('A' for Active; 'I' for Inactive)
REMARK    1  A    between atoms: N_3  and  C_1 
REMARK    2  A    between atoms: C_16  and  N_2 
REMARK       I    between atoms: C_7  and  N_3 
REMARK    3  A    between atoms: C_18  and  C_7 
REMARK    4  A    between atoms: C_10  and  C_20 
REMARK       I    between atoms: N_11  and  C_10 
REMARK    5  A    between atoms: C_19  and  N_11 
REMARK    6  A    between atoms: S_14  and  C_18 
REMARK    7  A    between atoms: C_20  and  S_14 
REMARK    8  A    between atoms: O_21  and  C_15 
REMARK    9  A    between atoms: C_23  and  C_16 
REMARK   10  A    between atoms: O_22  and  C_23 
ROOT
ATOM      1  C   UNL d   1      56.719   0.048  32.833  0.00  0.00     0.182 A 
ATOM      2  N   UNL d   1      56.660   0.378  33.593  0.00  0.00    -0.283 N 
ATOM      3  S   UNL d   1      55.956  -0.190  32.598  0.00  0.00    -0.048 SA
ATOM      4  C   UNL d   1      55.430  -0.006  33.216  0.00  0.00     0.050 A 
ATOM      5  C   UNL d   1      55.864   0.344  33.830  0.00  0.00     0.072 A 
ATOM      6  C   UNL d   1      54.610  -0.117  33.288  0.00  0.00     0.032 A 
ATOM      7  C   UNL d   1      55.478   0.583  34.515  0.00  0.00     0.020 A 
ATOM      8  C   UNL d   1      54.238   0.128  33.983  0.00  0.00     0.095 A 
ATOM      9  C   UNL d   1      54.672   0.478  34.596  0.00  0.00     0.026 A 
ENDROOT
BRANCH   1  10
ATOM     10  N   UNL d   1      57.413  -0.030  32.387  0.00  0.00    -0.183 NA
ATOM     11  C   UNL d   1      57.242   0.336  31.661  0.00  0.00     0.287 C 
ATOM     12  O   UNL d   1      56.493   0.673  31.532  0.00  0.00    -0.265 OA
BRANCH  11  13
ATOM     13  C   UNL d   1      57.808   0.368  31.066  0.00  0.00     0.098 C 
BRANCH  13  14
ATOM     14  S   UNL d   1      57.705  -0.061  30.360  0.00  0.00    -0.076 SA
BRANCH  14  15
ATOM     15  C   UNL d   1      58.329  -0.128  29.820  0.00  0.00     0.098 C 
BRANCH  15  16
ATOM     16  C   UNL d   1      58.469  -0.842  29.430  0.00  0.00     0.286 C 
ATOM     17  N   UNL d   1      59.032  -1.370  29.722  0.00  0.00    -0.208 NA
ATOM     18  O   UNL d   1      58.038  -1.023  28.741  0.00  0.00    -0.265 OA
BRANCH  17  19
ATOM     19  C   UNL d   1      59.168  -2.087  29.323  0.00  0.00     0.085 A 
ATOM     20  C   UNL d   1      58.535  -2.567  29.123  0.00  0.00     0.019 A 
ATOM     21  C   UNL d   1      58.673  -3.276  28.729  0.00  0.00     0.002 A 
ATOM     22  C   UNL d   1      59.452  -3.501  28.537  0.00  0.00     0.000 A 
ATOM     23  C   UNL d   1      60.082  -3.006  28.745  0.00  0.00     0.002 A 
ATOM     24  C   UNL d   1      59.944  -2.297  29.139  0.00  0.00     0.019 A 
ENDBRANCH  17  19
ENDBRANCH  15  16
ENDBRANCH  14  15
ENDBRANCH  13  14
ENDBRANCH  11  13
ENDBRANCH   1  10
BRANCH   2  25
ATOM     25  C   UNL d   1      57.284   0.682  34.028  0.00  0.00     0.108 C 
BRANCH  25  26
ATOM     26  C   UNL d   1      57.844   0.184  34.367  0.00  0.00     0.135 C 
BRANCH  26  27
ATOM     27  O   UNL d   1      58.572   0.493  34.610  0.00  0.00    -0.325 OA
ATOM     28  C   UNL d   1      58.705   0.677  35.403  0.00  0.00     0.182 C 
ENDBRANCH  26  27
ENDBRANCH  25  26
ENDBRANCH   2  25
BRANCH   8  29
ATOM     29  O   UNL d   1      53.418   0.023  34.069  0.00  0.00    -0.328 OA
ATOM     30  C   UNL d   1      52.923   0.674  34.121  0.00  0.00     0.181 C 
ENDBRANCH   8  29
TORSDOF 10
ENDMDL
MODEL 2
REMARK VINA RESULT:       2.4      1.391      5.938
REMARK  10 active torsions:
REMARK  status: ('A' for Active; 'I' for Inactive)
REMARK    1  A    between atoms: N_3  and  C_1 
REMARK    2  A    between atoms: C_16  and  N_2 
REMARK       I    between atoms: C_7  and  N_3 
REMARK    3  A    between atoms: C_18  and  C_7 
REMARK    4  A    between atoms: C_10  and  C_20 
REMARK       I    between atoms: N_11  and  C_10 
REMARK    5  A    between atoms: C_19  and  N_11 
REMARK    6  A    between atoms: S_14  and  C_18 
REMARK    7  A    between atoms: C_20  and  S_14 
REMARK    8  A    between atoms: O_21  and  C_15 
REMARK    9  A    between atoms: C_23  and  C_16 
REMARK   10  A    between atoms: O_22  and  C_23 
ROOT
ATOM      1  C   UNL d   1      58.843  -0.917  29.093  0.00  0.00     0.182 A 
ATOM      2  N   UNL d   1      59.595  -1.224  28.924  0.00  0.00    -0.283 N 
ATOM      3  S   UNL d   1      58.301  -1.550  29.083  0.00  0.00    -0.048 SA
ATOM      4  C   UNL d   1      58.725  -2.245  28.908  0.00  0.00     0.050 A 
ATOM      5  C   UNL d   1      59.523  -2.044  28.810  0.00  0.00     0.072 A 
ATOM      6  C   UNL d   1      58.474  -3.033  28.827  0.00  0.00     0.032 A 
ATOM      7  C   UNL d   1      60.070  -2.631  28.631  0.00  0.00     0.020 A 
ATOM      8  C   UNL d   1      59.036  -3.609  28.648  0.00  0.00     0.095 A 
ATOM      9  C   UNL d   1      59.834  -3.408  28.550  0.00  0.00     0.026 A 
ENDROOT
BRANCH   1  10
ATOM     10  N   UNL d   1      58.662  -0.122  29.244  0.00  0.00    -0.183 NA
ATOM     11  C   UNL d   1      57.909  -0.139  29.595  0.00  0.00     0.287 C 
ATOM     12  O   UNL d   1      57.523  -0.865  29.715  0.00  0.00    -0.265 OA
BRANCH  11  13
ATOM     13  C   UNL d   1      57.541   0.558  29.826  0.00  0.00     0.098 C 
BRANCH  13  14
ATOM     14  S   UNL d   1      57.016   0.566  30.471  0.00  0.00    -0.076 SA
BRANCH  14  15
ATOM     15  C   UNL d   1      57.310   0.584  31.245  0.00  0.00     0.098 C 
BRANCH  15  16
ATOM     16  C   UNL d   1      56.793   0.571  31.889  0.00  0.00     0.286 C 
ATOM     17  N   UNL d   1      57.091   0.509  32.656  0.00  0.00    -0.208 NA
ATOM     18  O   UNL d   1      55.973   0.620  31.758  0.00  0.00    -0.265 OA
BRANCH  17  19
ATOM     19  C   UNL d   1      56.566   0.496  33.301  0.00  0.00     0.085 A 
ATOM     20  C   UNL d   1      56.843   0.301  34.047  0.00  0.00     0.019 A 
ATOM     21  C   UNL d   1      56.321   0.289  34.683  0.00  0.00     0.002 A 
ATOM     22  C   UNL d   1      55.518   0.474  34.565  0.00  0.00     0.000 A 
ATOM     23  C   UNL d   1      55.251   0.670  33.806  0.00  0.00     0.002 A 
ATOM     24  C   UNL d   1      55.773   0.682  33.170  0.00  0.00     0.019 A 
ENDBRANCH  17  19
ENDBRANCH  15  16
ENDBRANCH  14  15
ENDBRANCH  13  14
ENDBRANCH  11  13
ENDBRANCH   1  10
BRANCH   2  25
ATOM     25  C   UNL d   1      60.288  -0.786  28.880  0.00  0.00     0.108 C 
BRANCH  25  26
ATOM     26  C   UNL d   1      60.431  -0.170  29.405  0.00  0.00     0.135 C 
BRANCH  26  27
ATOM     27  O   UNL d   1      61.082  -0.208  29.913  0.00  0.00    -0.325 OA
ATOM     28  C   UNL d   1      61.129   0.285  30.571  0.00  0.00     0.182 C 
ENDBRANCH  26  27
ENDBRANCH  25  26
ENDBRANCH   2  25
BRANCH   8  29
ATOM     29  O   UNL d   1      58.800  -4.402  28.564  0.00  0.00    -0.328 OA
ATOM     30  C   UNL d   1      58.003  -4.595  28.549  0.00  0.00     0.181 C 
ENDBRANCH   8  29
TORSDOF 10
ENDMDL
MODEL 3
REMARK VINA RESULT:       3.3      4.506      7.959
REMARK  10 active torsions:
REMARK  status: ('A' for Active; 'I' for Inactive)
REMARK    1  A    between atoms: N_3  and  C_1 
REMARK    2  A    between atoms: C_16  and  N_2 
REMARK       I    between atoms: C_7  and  N_3 
REMARK    3  A    between atoms: C_18  and  C_7 
REMARK    4  A    between atoms: C_10  and  C_20 
REMARK       I    between atoms: N_11  and  C_10 
REMARK    5  A    between atoms: C_19  and  N_11 
REMARK    6  A    between atoms: S_14  and  C_18 
REMARK    7  A    between atoms: C_20  and  S_14 
REMARK    8  A    between atoms: O_21  and  C_15 
REMARK    9  A    between atoms: C_23  and  C_16 
REMARK   10  A    between atoms: O_22  and  C_23 
ROOT
ATOM      1  C   UNL d   1      58.807  -6.814  28.493  0.00  0.00     0.182 A 
ATOM      2  N   UNL d   1      58.985  -7.623  28.545  0.00  0.00    -0.283 N 
ATOM      3  S   UNL d   1      57.978  -6.737  28.467  0.00  0.00    -0.048 SA
ATOM      4  C   UNL d   1      57.650  -7.501  28.503  0.00  0.00     0.050 A 
ATOM      5  C   UNL d   1      58.271  -8.048  28.552  0.00  0.00     0.072 A 
ATOM      6  C   UNL d   1      56.860  -7.758  28.497  0.00  0.00     0.032 A 
ATOM      7  C   UNL d   1      58.103  -8.851  28.595  0.00  0.00     0.020 A 
ATOM      8  C   UNL d   1      56.709  -8.568  28.541  0.00  0.00     0.095 A 
ATOM      9  C   UNL d   1      57.330  -9.115  28.590  0.00  0.00     0.026 A 
ENDROOT
BRANCH   1  10
ATOM     10  N   UNL d   1      59.355  -6.192  28.471  0.00  0.00    -0.183 NA
ATOM     11  C   UNL d   1      58.895  -5.501  28.499  0.00  0.00     0.287 C 
ATOM     12  O   UNL d   1      58.066  -5.556  28.540  0.00  0.00    -0.265 OA
BRANCH  11  13
ATOM     13  C   UNL d   1      59.252  -4.761  28.487  0.00  0.00     0.098 C 
BRANCH  13  14
ATOM     14  S   UNL d   1      58.801  -4.072  28.604  0.00  0.00    -0.076 SA
BRANCH  14  15
ATOM     15  C   UNL d   1      59.136  -3.328  28.463  0.00  0.00     0.098 C 
BRANCH  15  16
ATOM     16  C   UNL d   1      58.911  -2.676  28.916  0.00  0.00     0.286 C 
ATOM     17  N   UNL d   1      59.051  -1.911  28.637  0.00  0.00    -0.208 NA
ATOM     18  O   UNL d   1      58.544  -2.795  29.652  0.00  0.00    -0.265 OA
BRANCH  17  19
ATOM     19  C   UNL d   1      58.823  -1.258  29.098  0.00  0.00     0.085 A 
ATOM     20  C   UNL d   1      59.357  -0.923  29.621  0.00  0.00     0.019 A 
ATOM     21  C   UNL d   1      59.128  -0.277  30.076  0.00  0.00     0.002 A 
ATOM     22  C   UNL d   1      58.358   0.032  30.003  0.00  0.00     0.000 A 
ATOM     23  C   UNL d   1      57.828  -0.316  29.470  0.00  0.00     0.002 A 
ATOM     24  C   UNL d   1      58.057  -0.963  29.015  0.00  0.00     0.019 A 
ENDBRANCH  17  19
ENDBRANCH  15  16
ENDBRANCH  14  15
ENDBRANCH  13  14
ENDBRANCH  11  13
ENDBRANCH   1  10
BRANCH   2  25
ATOM     25  C   UNL d   1      59.741  -7.941  28.584  0.00  0.00     0.108 C 
BRANCH  25  26
ATOM     26  C   UNL d   1      59.918  -8.542  29.116  0.00  0.00     0.135 C 
BRANCH  26  27
ATOM     27  O   UNL d   1      60.708  -8.712  29.292  0.00  0.00    -0.325 OA
ATOM     28  C   UNL d   1      60.946  -9.485  29.449  0.00  0.00     0.182 C 
ENDBRANCH  26  27
ENDBRANCH  25  26
ENDBRANCH   2  25
BRANCH   8  29
ATOM     29  O   UNL d   1      55.923  -8.841  28.536  0.00  0.00    -0.328 OA
ATOM     30  C   UNL d   1      55.760  -9.631  28.681  0.00  0.00     0.181 C 
ENDBRANCH   8  29
TORSDOF 10
ENDMDL
