MODEL 1
REMARK VINA RESULT:       7.7      0.000      0.000
REMARK  7 active torsions:
REMARK  status: ('A' for Active; 'I' for Inactive)
REMARK    1  A    between atoms: C_2  and  P_1 
REMARK    2  A    between atoms: O_3  and  P_1 
REMARK    3  A    between atoms: C_4  and  P_1 
REMARK    4  A    between atoms: C_12  and  C_2 
REMARK    5  A    between atoms: C_13  and  O_3 
REMARK    6  A    between atoms: N_7  and  C_6 
REMARK    7  A    between atoms: C_15  and  C_13 
ROOT
ATOM      1  P   UNL d   1     -41.738-122.330 -52.376  0.00  0.00     0.307 P 
ATOM      2  O   UNL d   1     -41.876-123.180 -52.431  0.00  0.00    -0.277 OA
ENDROOT
BRANCH   1   3
ATOM      3  C   UNL d   1     -41.631-122.283 -53.224  0.00  0.00     0.253 C 
ATOM      4  O   UNL d   1     -41.288-121.609 -53.554  0.00  0.00    -0.281 OA
BRANCH   3   5
ATOM      5  C   UNL d   1     -41.868-122.904 -53.711  0.00  0.00     0.044 C 
ATOM      6  C   UNL d   1     -42.390-122.761 -54.334  0.00  0.00     0.004 C 
ATOM      7  C   UNL d   1     -41.586-123.661 -53.578  0.00  0.00     0.004 C 
ENDBRANCH   3   5
ENDBRANCH   1   3
BRANCH   1   8
ATOM      8  O   UNL d   1     -41.847-122.401 -51.536  0.00  0.00    -0.279 OA
BRANCH   8   9
ATOM      9  C   UNL d   1     -42.144-123.124 -51.193  0.00  0.00     0.124 C 
BRANCH   9  10
ATOM     10  C   UNL d   1     -42.269-123.203 -50.387  0.00  0.00     0.025 A 
ATOM     11  C   UNL d   1     -41.670-123.006 -49.856  0.00  0.00     0.002 A 
ATOM     12  C   UNL d   1     -41.791-123.084 -49.038  0.00  0.00     0.000 A 
ATOM     13  C   UNL d   1     -42.514-123.360 -48.757  0.00  0.00     0.000 A 
ATOM     14  C   UNL d   1     -43.116-123.559 -49.294  0.00  0.00     0.000 A 
ATOM     15  C   UNL d   1     -42.992-123.480 -50.106  0.00  0.00     0.002 A 
ENDBRANCH   9  10
ENDBRANCH   8   9
ENDBRANCH   1   8
BRANCH   1  16
ATOM     16  C   UNL d   1     -41.605-121.491 -52.286  0.00  0.00     0.061 A 
ATOM     17  C   UNL d   1     -41.278-121.213 -51.584  0.00  0.00     0.007 A 
ATOM     18  C   UNL d   1     -41.144-120.411 -51.480  0.00  0.00     0.018 A 
ATOM     19  C   UNL d   1     -41.337-119.881 -52.082  0.00  0.00     0.064 A 
ATOM     20  C   UNL d   1     -41.664-120.158 -52.785  0.00  0.00     0.018 A 
ATOM     21  C   UNL d   1     -41.798-120.966 -52.886  0.00  0.00     0.007 A 
BRANCH  19  22
ATOM     22  N   UNL d   1     -41.193-119.042 -51.964  0.00  0.00    -0.301 N 
ATOM     23  C   UNL d   1     -41.123-118.746 -51.192  0.00  0.00     0.100 C 
ATOM     24  C   UNL d   1     -41.123-118.527 -52.610  0.00  0.00     0.100 C 
ENDBRANCH  19  22
ENDBRANCH   1  16
TORSDOF 7
ENDMDL
MODEL 2
REMARK VINA RESULT:       8.1      0.791      3.169
REMARK  7 active torsions:
REMARK  status: ('A' for Active; 'I' for Inactive)
REMARK    1  A    between atoms: C_2  and  P_1 
REMARK    2  A    between atoms: O_3  and  P_1 
REMARK    3  A    between atoms: C_4  and  P_1 
REMARK    4  A    between atoms: C_12  and  C_2 
REMARK    5  A    between atoms: C_13  and  O_3 
REMARK    6  A    between atoms: N_7  and  C_6 
REMARK    7  A    between atoms: C_15  and  C_13 
ROOT
ATOM      1  P   UNL d   1     -42.023-122.404 -51.627  0.00  0.00     0.307 P 
ATOM      2  O   UNL d   1     -42.229-123.238 -51.702  0.00  0.00    -0.277 OA
ENDROOT
BRANCH   1   3
ATOM      3  C   UNL d   1     -42.112-122.449 -50.776  0.00  0.00     0.253 C 
ATOM      4  O   UNL d   1     -41.598-122.024 -50.290  0.00  0.00    -0.281 OA
BRANCH   3   5
ATOM      5  C   UNL d   1     -42.706-122.913 -50.441  0.00  0.00     0.044 C 
ATOM      6  C   UNL d   1     -43.498-122.723 -50.572  0.00  0.00     0.004 C 
ATOM      7  C   UNL d   1     -42.510-123.561 -49.980  0.00  0.00     0.004 C 
ENDBRANCH   3   5
ENDBRANCH   1   3
BRANCH   1   8
ATOM      8  O   UNL d   1     -41.941-122.382 -52.472  0.00  0.00    -0.279 OA
BRANCH   8   9
ATOM      9  C   UNL d   1     -41.905-123.104 -52.927  0.00  0.00     0.124 C 
BRANCH   9  10
ATOM     10  C   UNL d   1     -41.830-123.100 -53.743  0.00  0.00     0.025 A 
ATOM     11  C   UNL d   1     -41.291-123.604 -54.110  0.00  0.00     0.002 A 
ATOM     12  C   UNL d   1     -41.211-123.604 -54.937  0.00  0.00     0.000 A 
ATOM     13  C   UNL d   1     -41.675-123.096 -55.391  0.00  0.00     0.000 A 
ATOM     14  C   UNL d   1     -42.217-122.589 -55.019  0.00  0.00     0.000 A 
ATOM     15  C   UNL d   1     -42.293-122.592 -54.197  0.00  0.00     0.002 A 
ENDBRANCH   9  10
ENDBRANCH   8   9
ENDBRANCH   1   8
BRANCH   1  16
ATOM     16  C   UNL d   1     -41.816-121.576 -51.586  0.00  0.00     0.061 A 
ATOM     17  C   UNL d   1     -42.129-121.061 -52.147  0.00  0.00     0.007 A 
ATOM     18  C   UNL d   1     -41.941-120.263 -52.124  0.00  0.00     0.018 A 
ATOM     19  C   UNL d   1     -41.436-119.976 -51.537  0.00  0.00     0.064 A 
ATOM     20  C   UNL d   1     -41.123-120.491 -50.977  0.00  0.00     0.018 A 
ATOM     21  C   UNL d   1     -41.314-121.294 -51.002  0.00  0.00     0.007 A 
BRANCH  19  22
ATOM     22  N   UNL d   1     -41.245-119.138 -51.521  0.00  0.00    -0.301 N 
ATOM     23  C   UNL d   1     -41.123-118.735 -52.236  0.00  0.00     0.100 C 
ATOM     24  C   UNL d   1     -41.181-118.730 -50.803  0.00  0.00     0.100 C 
ENDBRANCH  19  22
ENDBRANCH   1  16
TORSDOF 7
ENDMDL
MODEL 3
REMARK VINA RESULT:       8.5      1.375      3.901
REMARK  7 active torsions:
REMARK  status: ('A' for Active; 'I' for Inactive)
REMARK    1  A    between atoms: C_2  and  P_1 
REMARK    2  A    between atoms: O_3  and  P_1 
REMARK    3  A    between atoms: C_4  and  P_1 
REMARK    4  A    between atoms: C_12  and  C_2 
REMARK    5  A    between atoms: C_13  and  O_3 
REMARK    6  A    between atoms: N_7  and  C_6 
REMARK    7  A    between atoms: C_15  and  C_13 
ROOT
ATOM      1  P   UNL d   1     -41.668-121.829 -51.946  0.00  0.00     0.307 P 
ATOM      2  O   UNL d   1     -41.467-121.545 -51.157  0.00  0.00    -0.277 OA
ENDROOT
BRANCH   1   3
ATOM      3  C   UNL d   1     -41.861-122.601 -51.630  0.00  0.00     0.253 C 
ATOM      4  O   UNL d   1     -41.553-123.277 -51.990  0.00  0.00    -0.281 OA
BRANCH   3   5
ATOM      5  C   UNL d   1     -42.351-122.673 -50.971  0.00  0.00     0.044 C 
ATOM      6  C   UNL d   1     -42.073-122.455 -50.226  0.00  0.00     0.004 C 
ATOM      7  C   UNL d   1     -43.114-122.961 -51.055  0.00  0.00     0.004 C 
ENDBRANCH   3   5
ENDBRANCH   1   3
BRANCH   1   8
ATOM      8  O   UNL d   1     -41.472-121.055 -52.238  0.00  0.00    -0.279 OA
BRANCH   8   9
ATOM      9  C   UNL d   1     -41.155-120.459 -51.716  0.00  0.00     0.124 C 
BRANCH   9  10
ATOM     10  C   UNL d   1     -41.146-119.665 -51.920  0.00  0.00     0.025 A 
ATOM     11  C   UNL d   1     -41.141-119.088 -51.331  0.00  0.00     0.002 A 
ATOM     12  C   UNL d   1     -41.131-118.283 -51.531  0.00  0.00     0.000 A 
ATOM     13  C   UNL d   1     -41.126-118.060 -52.324  0.00  0.00     0.000 A 
ATOM     14  C   UNL d   1     -41.131-118.642 -52.916  0.00  0.00     0.000 A 
ATOM     15  C   UNL d   1     -41.141-119.442 -52.713  0.00  0.00     0.002 A 
ENDBRANCH   9  10
ENDBRANCH   8   9
ENDBRANCH   1   8
BRANCH   1  16
ATOM     16  C   UNL d   1     -41.860-122.079 -52.741  0.00  0.00     0.061 A 
ATOM     17  C   UNL d   1     -42.625-121.960 -53.021  0.00  0.00     0.007 A 
ATOM     18  C   UNL d   1     -42.827-122.194 -53.780  0.00  0.00     0.018 A 
ATOM     19  C   UNL d   1     -42.261-122.548 -54.266  0.00  0.00     0.064 A 
ATOM     20  C   UNL d   1     -41.496-122.666 -53.986  0.00  0.00     0.018 A 
ATOM     21  C   UNL d   1     -41.296-122.430 -53.221  0.00  0.00     0.007 A 
BRANCH  19  22
ATOM     22  N   UNL d   1     -42.482-122.789 -55.061  0.00  0.00    -0.301 N 
ATOM     23  C   UNL d   1     -42.709-122.212 -55.612  0.00  0.00     0.100 C 
ATOM     24  C   UNL d   1     -42.471-123.588 -55.282  0.00  0.00     0.100 C 
ENDBRANCH  19  22
ENDBRANCH   1  16
TORSDOF 7
ENDMDL
MODEL 4
REMARK VINA RESULT:       8.6      2.110      4.493
REMARK  7 active torsions:
REMARK  status: ('A' for Active; 'I' for Inactive)
REMARK    1  A    between atoms: C_2  and  P_1 
REMARK    2  A    between atoms: O_3  and  P_1 
REMARK    3  A    between atoms: C_4  and  P_1 
REMARK    4  A    between atoms: C_12  and  C_2 
REMARK    5  A    between atoms: C_13  and  O_3 
REMARK    6  A    between atoms: N_7  and  C_6 
REMARK    7  A    between atoms: C_15  and  C_13 
ROOT
ATOM      1  P   UNL d   1     -41.982-122.993 -49.704  0.00  0.00     0.307 P 
ATOM      2  O   UNL d   1     -41.123-122.932 -49.658  0.00  0.00    -0.277 OA
ENDROOT
BRANCH   1   3
ATOM      3  C   UNL d   1     -42.013-123.289 -48.900  0.00  0.00     0.253 C 
ATOM      4  O   UNL d   1     -42.613-123.813 -48.683  0.00  0.00    -0.281 OA
BRANCH   3   5
ATOM      5  C   UNL d   1     -41.450-123.056 -48.346  0.00  0.00     0.044 C 
ATOM      6  C   UNL d   1     -41.127-123.612 -47.830  0.00  0.00     0.004 C 
ATOM      7  C   UNL d   1     -41.212-122.273 -48.307  0.00  0.00     0.004 C 
ENDBRANCH   3   5
ENDBRANCH   1   3
BRANCH   1   8
ATOM      8  O   UNL d   1     -41.928-122.697 -50.499  0.00  0.00    -0.279 OA
BRANCH   8   9
ATOM      9  C   UNL d   1     -41.246-122.868 -50.982  0.00  0.00     0.124 C 
BRANCH   9  10
ATOM     10  C   UNL d   1     -41.268-122.812 -51.800  0.00  0.00     0.025 A 
ATOM     11  C   UNL d   1     -41.226-123.494 -52.261  0.00  0.00     0.002 A 
ATOM     12  C   UNL d   1     -41.248-123.443 -53.089  0.00  0.00     0.000 A 
ATOM     13  C   UNL d   1     -41.314-122.706 -53.451  0.00  0.00     0.000 A 
ATOM     14  C   UNL d   1     -41.357-122.020 -52.985  0.00  0.00     0.000 A 
ATOM     15  C   UNL d   1     -41.334-122.074 -52.162  0.00  0.00     0.002 A 
ENDBRANCH   9  10
ENDBRANCH   8   9
ENDBRANCH   1   8
BRANCH   1  16
ATOM     16  C   UNL d   1     -42.832-123.041 -49.782  0.00  0.00     0.061 A 
ATOM     17  C   UNL d   1     -43.274-122.348 -49.742  0.00  0.00     0.007 A 
ATOM     18  C   UNL d   1     -44.091-122.376 -49.814  0.00  0.00     0.018 A 
ATOM     19  C   UNL d   1     -44.469-123.100 -49.928  0.00  0.00     0.064 A 
ATOM     20  C   UNL d   1     -44.027-123.793 -49.968  0.00  0.00     0.018 A 
ATOM     21  C   UNL d   1     -43.206-123.763 -49.894  0.00  0.00     0.007 A 
BRANCH  19  22
ATOM     22  N   UNL d   1     -45.326-123.118 -50.003  0.00  0.00    -0.301 N 
ATOM     23  C   UNL d   1     -45.730-122.426 -50.216  0.00  0.00     0.100 C 
ATOM     24  C   UNL d   1     -45.750-123.817 -49.865  0.00  0.00     0.100 C 
ENDBRANCH  19  22
ENDBRANCH   1  16
TORSDOF 7
ENDMDL
