MODEL 1
REMARK VINA RESULT:      68.5      0.000      0.000
REMARK  5 active torsions:
REMARK  status: ('A' for Active; 'I' for Inactive)
REMARK    1  A    between atoms: C_10  and  N_2 
REMARK       I    between atoms: N_3  and  C_6 
REMARK    2  A    between atoms: C_6  and  C_14 
REMARK    3  A    between atoms: C_17  and  C_10 
REMARK    4  A    between atoms: O_13  and  C_12 
REMARK    5  A    between atoms: C_14  and  O_13 
ROOT
ATOM      1  C   UNL d   1     -54.834-101.976 -43.519  0.00  0.00     0.265 A 
ATOM      2  N   UNL d   1     -54.810-101.853 -42.695  0.00  0.00    -0.272 N 
ATOM      3  C   UNL d   1     -54.886-101.314 -44.019  0.00  0.00     0.059 A 
ATOM      4  C   UNL d   1     -54.912-100.548 -43.703  0.00  0.00     0.029 A 
ATOM      5  C   UNL d   1     -54.887-100.435 -42.888  0.00  0.00     0.021 A 
ATOM      6  C   UNL d   1     -54.836-101.087 -42.379  0.00  0.00     0.083 A 
ATOM      7  O   UNL d   1     -54.808-102.735 -43.832  0.00  0.00    -0.267 OA
ATOM      8  C   UNL d   1     -54.964 -99.890 -44.205  0.00  0.00     0.100 A 
ATOM      9  C   UNL d   1     -54.911-101.434 -44.842  0.00  0.00     0.005 A 
ATOM     10  C   UNL d   1     -54.962-100.771 -45.342  0.00  0.00     0.002 A 
ATOM     11  C   UNL d   1     -54.989-100.002 -45.025  0.00  0.00     0.025 A 
ENDROOT
BRANCH   8  12
ATOM     12  O   UNL d   1     -54.990 -99.127 -43.891  0.00  0.00    -0.300 OA
BRANCH  12  13
ATOM     13  C   UNL d   1     -55.746 -98.823 -43.560  0.00  0.00     0.184 C 
BRANCH  13  14
ATOM     14  C   UNL d   1     -56.372 -98.809 -44.235  0.00  0.00     0.290 C 
ATOM     15  N   UNL d   1     -57.159 -98.806 -44.053  0.00  0.00    -0.272 N 
ATOM     16  C   UNL d   1     -57.704 -98.794 -44.647  0.00  0.00     0.067 A 
ATOM     17  C   UNL d   1     -57.392 -98.814 -43.285  0.00  0.00     0.083 A 
ATOM     18  C   UNL d   1     -58.509 -98.790 -44.476  0.00  0.00     0.016 A 
ATOM     19  C   UNL d   1     -57.482 -98.786 -45.423  0.00  0.00     0.018 A 
ATOM     20  C   UNL d   1     -59.062 -98.778 -45.061  0.00  0.00     0.001 A 
ATOM     21  C   UNL d   1     -58.730 -98.799 -43.689  0.00  0.00     0.003 A 
ATOM     22  C   UNL d   1     -58.814 -98.770 -45.834  0.00  0.00     0.000 A 
ATOM     23  C   UNL d   1     -58.017 -98.774 -46.024  0.00  0.00     0.002 A 
ATOM     24  C   UNL d   1     -58.179 -98.810 -43.101  0.00  0.00     0.019 A 
ATOM     25  O   UNL d   1     -56.092 -98.800 -45.104  0.00  0.00    -0.264 OA
ENDBRANCH  13  14
ENDBRANCH  12  13
ENDBRANCH   8  12
BRANCH   2  26
ATOM     26  C   UNL d   1     -54.758-102.501 -42.188  0.00  0.00     0.083 C 
BRANCH  26  27
ATOM     27  C   UNL d   1     -55.093-102.465 -41.435  0.00  0.00     0.018 A 
ATOM     28  C   UNL d   1     -55.774-102.879 -41.281  0.00  0.00     0.002 A 
ATOM     29  C   UNL d   1     -56.110-102.846 -40.533  0.00  0.00     0.007 A 
ATOM     30  C   UNL d   1     -55.757-102.395 -39.936  0.00  0.00     0.035 A 
ATOM     31  C   UNL d   1     -55.063-101.973 -40.094  0.00  0.00     0.007 A 
ATOM     32 BR   UNL d   1     -56.088-102.356 -39.181  0.00  0.00    -0.049 Br
ATOM     33  C   UNL d   1     -54.721-102.004 -40.849  0.00  0.00     0.002 A 
ENDBRANCH  26  27
ENDBRANCH   2  26
TORSDOF 5
ENDMDL
