MODEL 1
REMARK VINA RESULT:      -7.1      0.000      0.000
REMARK  5 active torsions:
REMARK  status: ('A' for Active; 'I' for Inactive)
REMARK    1  A    between atoms: C_3  and  C_1 
REMARK    2  A    between atoms: C_7  and  C_3 
REMARK       I    between atoms: C_6  and  N_5 
REMARK    3  A    between atoms: O_18  and  C_6 
REMARK    4  A    between atoms: N_10  and  C_7 
REMARK    5  A    between atoms: C_21  and  O_18 
ROOT
ATOM      1  C   UNL d   1     -48.851  12.353  22.959  0.00  0.00     0.110 C 
ATOM      2  C   UNL d   1     -48.839  11.942  22.237  0.00  0.00     0.105 C 
ATOM      3  N   UNL d   1     -48.829  11.538  21.525  0.00  0.00    -0.191 NA
ENDROOT
BRANCH   1   4
ATOM      4  C   UNL d   1     -49.287  13.050  23.026  0.00  0.00     0.122 A 
ATOM      5  N   UNL d   1     -49.071  13.790  22.740  0.00  0.00    -0.238 NA
ATOM      6  C   UNL d   1     -49.669  14.324  22.930  0.00  0.00     0.088 A 
ATOM      7  C   UNL d   1     -49.753  15.134  22.786  0.00  0.00     0.020 A 
ATOM      8  C   UNL d   1     -50.259  13.916  23.337  0.00  0.00     0.049 A 
ATOM      9  C   UNL d   1     -50.424  15.532  23.047  0.00  0.00     0.002 A 
ATOM     10  C   UNL d   1     -51.017  15.122  23.455  0.00  0.00     0.001 A 
ATOM     11  C   UNL d   1     -50.937  14.316  23.601  0.00  0.00     0.008 A 
ATOM     12  S   UNL d   1     -50.028  13.129  23.399  0.00  0.00    -0.066 SA
ENDBRANCH   1   4
BRANCH   1  13
ATOM     13  C   UNL d   1     -48.430  12.066  23.605  0.00  0.00     0.093 C 
BRANCH  13  14
ATOM     14  N   UNL d   1     -47.623  11.906  23.535  0.00  0.00    -0.299 N 
ATOM     15  C   UNL d   1     -47.339  11.139  23.698  0.00  0.00     0.100 A 
ATOM     16  C   UNL d   1     -46.540  10.981  23.628  0.00  0.00     0.104 A 
ATOM     17  N   UNL d   1     -46.013  11.575  23.397  0.00  0.00    -0.249 N 
ATOM     18  C   UNL d   1     -46.298  12.334  23.236  0.00  0.00     0.104 A 
ATOM     19  C   UNL d   1     -45.206  11.415  23.327  0.00  0.00     0.378 C 
ATOM     20  C   UNL d   1     -47.111  12.504  23.305  0.00  0.00     0.100 A 
ATOM     21  O   UNL d   1     -44.682  12.009  23.096  0.00  0.00    -0.237 OA
BRANCH  19  22
ATOM     22  O   UNL d   1     -44.928  10.661  23.488  0.00  0.00    -0.257 OA
BRANCH  22  23
ATOM     23  C   UNL d   1     -44.140  10.470  23.347  0.00  0.00     0.128 C 
ATOM     24  C   UNL d   1     -43.873   9.692  23.465  0.00  0.00     0.029 C 
ENDBRANCH  22  23
ENDBRANCH  19  22
ENDBRANCH  13  14
ENDBRANCH   1  13
TORSDOF 5
ENDMDL
MODEL 2
REMARK VINA RESULT:      -6.9      1.398      1.756
REMARK  5 active torsions:
REMARK  status: ('A' for Active; 'I' for Inactive)
REMARK    1  A    between atoms: C_3  and  C_1 
REMARK    2  A    between atoms: C_7  and  C_3 
REMARK       I    between atoms: C_6  and  N_5 
REMARK    3  A    between atoms: O_18  and  C_6 
REMARK    4  A    between atoms: N_10  and  C_7 
REMARK    5  A    between atoms: C_21  and  O_18 
ROOT
ATOM      1  C   UNL d   1     -48.369  12.695  23.155  0.00  0.00     0.110 C 
ATOM      2  C   UNL d   1     -48.396  11.865  23.141  0.00  0.00     0.105 C 
ATOM      3  N   UNL d   1     -48.424  11.046  23.127  0.00  0.00    -0.191 NA
ENDROOT
BRANCH   1   4
ATOM      4  C   UNL d   1     -48.996  13.130  22.841  0.00  0.00     0.122 A 
ATOM      5  N   UNL d   1     -49.342  13.025  22.102  0.00  0.00    -0.238 NA
ATOM      6  C   UNL d   1     -49.947  13.579  22.021  0.00  0.00     0.088 A 
ATOM      7  C   UNL d   1     -50.476  13.732  21.404  0.00  0.00     0.020 A 
ATOM      8  C   UNL d   1     -49.978  14.031  22.711  0.00  0.00     0.049 A 
ATOM      9  C   UNL d   1     -51.033  14.333  21.478  0.00  0.00     0.002 A 
ATOM     10  C   UNL d   1     -51.064  14.787  22.171  0.00  0.00     0.001 A 
ATOM     11  C   UNL d   1     -50.539  14.637  22.787  0.00  0.00     0.008 A 
ATOM     12  S   UNL d   1     -49.393  13.756  23.221  0.00  0.00    -0.066 SA
ENDBRANCH   1   4
BRANCH   1  13
ATOM     13  C   UNL d   1     -47.720  13.082  23.479  0.00  0.00     0.093 C 
BRANCH  13  14
ATOM     14  N   UNL d   1     -46.957  12.893  23.227  0.00  0.00    -0.299 N 
ATOM     15  C   UNL d   1     -46.588  13.362  22.645  0.00  0.00     0.100 A 
ATOM     16  C   UNL d   1     -45.833  13.175  22.395  0.00  0.00     0.104 A 
ATOM     17  N   UNL d   1     -45.433  12.526  22.716  0.00  0.00    -0.249 N 
ATOM     18  C   UNL d   1     -45.802  12.064  23.292  0.00  0.00     0.104 A 
ATOM     19  C   UNL d   1     -44.669  12.337  22.463  0.00  0.00     0.378 C 
ATOM     20  C   UNL d   1     -46.572  12.247  23.553  0.00  0.00     0.100 A 
ATOM     21  O   UNL d   1     -44.274  11.689  22.785  0.00  0.00    -0.237 OA
BRANCH  19  22
ATOM     22  O   UNL d   1     -44.307  12.798  21.891  0.00  0.00    -0.257 OA
BRANCH  22  23
ATOM     23  C   UNL d   1     -43.584  12.572  21.571  0.00  0.00     0.128 C 
ATOM     24  C   UNL d   1     -43.148  13.106  21.107  0.00  0.00     0.029 C 
ENDBRANCH  22  23
ENDBRANCH  19  22
ENDBRANCH  13  14
ENDBRANCH   1  13
TORSDOF 5
ENDMDL
MODEL 3
REMARK VINA RESULT:      -4.7      8.340     10.188
REMARK  5 active torsions:
REMARK  status: ('A' for Active; 'I' for Inactive)
REMARK    1  A    between atoms: C_3  and  C_1 
REMARK    2  A    between atoms: C_7  and  C_3 
REMARK       I    between atoms: C_6  and  N_5 
REMARK    3  A    between atoms: O_18  and  C_6 
REMARK    4  A    between atoms: N_10  and  C_7 
REMARK    5  A    between atoms: C_21  and  O_18 
ROOT
ATOM      1  C   UNL d   1     -40.151  15.127  21.066  0.00  0.00     0.110 C 
ATOM      2  C   UNL d   1     -40.877  14.754  20.909  0.00  0.00     0.105 C 
ATOM      3  N   UNL d   1     -41.592  14.385  20.756  0.00  0.00    -0.191 NA
ENDROOT
BRANCH   1   4
ATOM      4  C   UNL d   1     -39.649  14.819  21.643  0.00  0.00     0.122 A 
ATOM      5  N   UNL d   1     -39.263  15.245  22.232  0.00  0.00    -0.238 NA
ATOM      6  C   UNL d   1     -38.821  14.715  22.683  0.00  0.00     0.088 A 
ATOM      7  C   UNL d   1     -38.329  14.826  23.339  0.00  0.00     0.020 A 
ATOM      8  C   UNL d   1     -38.931  13.958  22.376  0.00  0.00     0.049 A 
ATOM      9  C   UNL d   1     -37.950  14.181  23.683  0.00  0.00     0.002 A 
ATOM     10  C   UNL d   1     -38.062  13.420  23.374  0.00  0.00     0.001 A 
ATOM     11  C   UNL d   1     -38.551  13.307  22.722  0.00  0.00     0.008 A 
ATOM     12  S   UNL d   1     -39.442  14.017  21.733  0.00  0.00    -0.066 SA
ENDBRANCH   1   4
BRANCH   1  13
ATOM     13  C   UNL d   1     -39.934  15.801  20.648  0.00  0.00     0.093 C 
BRANCH  13  14
ATOM     14  N   UNL d   1     -39.886  15.779  19.823  0.00  0.00    -0.299 N 
ATOM     15  C   UNL d   1     -39.139  15.736  19.455  0.00  0.00     0.100 A 
ATOM     16  C   UNL d   1     -39.092  15.714  18.640  0.00  0.00     0.104 A 
ATOM     17  N   UNL d   1     -39.778  15.734  18.178  0.00  0.00    -0.249 N 
ATOM     18  C   UNL d   1     -40.516  15.777  18.547  0.00  0.00     0.104 A 
ATOM     19  C   UNL d   1     -39.731  15.712  17.354  0.00  0.00     0.378 C 
ATOM     20  C   UNL d   1     -40.574  15.799  19.378  0.00  0.00     0.100 A 
ATOM     21  O   UNL d   1     -40.417  15.732  16.897  0.00  0.00    -0.237 OA
BRANCH  19  22
ATOM     22  O   UNL d   1     -38.996  15.670  16.993  0.00  0.00    -0.257 OA
BRANCH  22  23
ATOM     23  C   UNL d   1     -38.937  15.505  16.189  0.00  0.00     0.128 C 
ATOM     24  C   UNL d   1     -38.191  15.396  15.840  0.00  0.00     0.029 C 
ENDBRANCH  22  23
ENDBRANCH  19  22
ENDBRANCH  13  14
ENDBRANCH   1  13
TORSDOF 5
ENDMDL
