MODEL 1
REMARK VINA RESULT:      -9.9      0.000      0.000
REMARK  3 active torsions:
REMARK  status: ('A' for Active; 'I' for Inactive)
REMARK    1  A    between atoms: C_12  and  N_3 
REMARK    2  A    between atoms: C_11  and  C_6 
REMARK    3  A    between atoms: C_22  and  C_12 
ROOT
ATOM      1  C   UNL d   1      52.691  32.371  53.205  0.00  0.00     0.130 A 
ATOM      2  C   UNL d   1      53.167  32.495  53.867  0.00  0.00     0.157 A 
ATOM      3  N   UNL d   1      52.412  33.775  53.145  0.00  0.00    -0.256 N 
ATOM      4  C   UNL d   1      52.317  33.013  52.848  0.00  0.00     0.272 A 
ATOM      5  N   UNL d   1      53.269  33.256  54.174  0.00  0.00    -0.208 NA
ATOM      6  C   UNL d   1      52.896  33.898  53.818  0.00  0.00     0.175 A 
ATOM      7  C   UNL d   1      52.592  31.616  52.904  0.00  0.00     0.204 A 
ATOM      8  N   UNL d   1      53.548  31.855  54.233  0.00  0.00    -0.289 N 
ATOM      9  C   UNL d   1      52.969  30.975  53.263  0.00  0.00     0.055 A 
ATOM     10  C   UNL d   1      53.446  31.090  53.926  0.00  0.00     0.069 A 
ATOM     11  O   UNL d   1      51.840  32.897  52.185  0.00  0.00    -0.266 OA
ATOM     12  O   UNL d   1      52.116  31.497  52.242  0.00  0.00    -0.286 OA
ATOM     13  C   UNL d   1      54.025  31.971  54.897  0.00  0.00     0.101 C 
ATOM     14  C   UNL d   1      52.866  30.218  52.957  0.00  0.00     0.005 A 
ATOM     15  C   UNL d   1      53.820  30.449  54.283  0.00  0.00     0.018 A 
ATOM     16  C   UNL d   1      53.239  29.576  53.312  0.00  0.00     0.000 A 
ATOM     17  C   UNL d   1      53.716  29.692  53.975  0.00  0.00     0.002 A 
ENDROOT
BRANCH   6  18
ATOM     18  C   UNL d   1      52.994  34.666  54.121  0.00  0.00     0.135 A 
ATOM     19  O   UNL d   1      52.663  34.858  54.852  0.00  0.00    -0.302 OA
ATOM     20  C   UNL d   1      52.847  35.648  55.010  0.00  0.00     0.123 A 
ATOM     21  C   UNL d   1      53.291  35.941  54.377  0.00  0.00     0.029 A 
ATOM     22  C   UNL d   1      53.381  35.333  53.830  0.00  0.00     0.030 A 
ENDBRANCH   6  18
BRANCH   3  23
ATOM     23  C   UNL d   1      52.035  34.421  52.785  0.00  0.00     0.085 C 
BRANCH  23  24
ATOM     24  C   UNL d   1      51.274  34.328  52.460  0.00  0.00     0.018 C 
ATOM     25  C   UNL d   1      51.173  34.352  51.625  0.00  0.00     0.002 C 
ATOM     26  C   UNL d   1      50.614  34.212  52.956  0.00  0.00     0.002 C 
ENDBRANCH  23  24
ENDBRANCH   3  23
TORSDOF 3
ENDMDL
MODEL 2
REMARK VINA RESULT:      -8.8      1.079      2.247
REMARK  3 active torsions:
REMARK  status: ('A' for Active; 'I' for Inactive)
REMARK    1  A    between atoms: C_12  and  N_3 
REMARK    2  A    between atoms: C_11  and  C_6 
REMARK    3  A    between atoms: C_22  and  C_12 
ROOT
ATOM      1  C   UNL d   1      52.945  32.526  53.373  0.00  0.00     0.130 A 
ATOM      2  C   UNL d   1      52.216  32.180  53.197  0.00  0.00     0.157 A 
ATOM      3  N   UNL d   1      52.361  33.827  53.229  0.00  0.00    -0.256 N 
ATOM      4  C   UNL d   1      53.011  33.347  53.387  0.00  0.00     0.272 A 
ATOM      5  N   UNL d   1      51.556  32.652  53.037  0.00  0.00    -0.208 NA
ATOM      6  C   UNL d   1      51.622  33.473  53.052  0.00  0.00     0.175 A 
ATOM      7  C   UNL d   1      53.596  32.056  53.531  0.00  0.00     0.204 A 
ATOM      8  N   UNL d   1      52.138  31.355  53.180  0.00  0.00    -0.289 N 
ATOM      9  C   UNL d   1      53.526  31.233  53.515  0.00  0.00     0.055 A 
ATOM     10  C   UNL d   1      52.801  30.880  53.341  0.00  0.00     0.069 A 
ATOM     11  O   UNL d   1      53.736  33.700  53.562  0.00  0.00    -0.266 OA
ATOM     12  O   UNL d   1      54.322  32.405  53.705  0.00  0.00    -0.286 OA
ATOM     13  C   UNL d   1      51.413  31.002  53.006  0.00  0.00     0.101 C 
ATOM     14  C   UNL d   1      54.184  30.765  53.675  0.00  0.00     0.005 A 
ATOM     15  C   UNL d   1      52.734  30.060  53.326  0.00  0.00     0.018 A 
ATOM     16  C   UNL d   1      54.118  29.945  53.661  0.00  0.00     0.000 A 
ATOM     17  C   UNL d   1      53.393  29.592  53.486  0.00  0.00     0.002 A 
ENDROOT
BRANCH   6  18
ATOM     18  C   UNL d   1      50.962  33.954  52.891  0.00  0.00     0.135 A 
ATOM     19  O   UNL d   1      50.793  34.162  52.111  0.00  0.00    -0.302 OA
ATOM     20  C   UNL d   1      50.117  34.635  52.120  0.00  0.00     0.123 A 
ATOM     21  C   UNL d   1      49.870  34.718  52.905  0.00  0.00     0.029 A 
ATOM     22  C   UNL d   1      50.393  34.297  53.379  0.00  0.00     0.030 A 
ENDBRANCH   6  18
BRANCH   3  23
ATOM     23  C   UNL d   1      52.429  34.653  53.244  0.00  0.00     0.085 C 
BRANCH  23  24
ATOM     24  C   UNL d   1      52.923  35.019  53.806  0.00  0.00     0.018 C 
ATOM     25  C   UNL d   1      53.612  35.429  53.551  0.00  0.00     0.002 C 
ATOM     26  C   UNL d   1      52.739  34.980  54.618  0.00  0.00     0.002 C 
ENDBRANCH  23  24
ENDBRANCH   3  23
TORSDOF 3
ENDMDL
MODEL 3
REMARK VINA RESULT:      -8.2      1.163      3.443
REMARK  3 active torsions:
REMARK  status: ('A' for Active; 'I' for Inactive)
REMARK    1  A    between atoms: C_12  and  N_3 
REMARK    2  A    between atoms: C_11  and  C_6 
REMARK    3  A    between atoms: C_22  and  C_12 
ROOT
ATOM      1  C   UNL d   1      52.253  33.207  53.171  0.00  0.00     0.130 A 
ATOM      2  C   UNL d   1      52.335  33.882  53.638  0.00  0.00     0.157 A 
ATOM      3  N   UNL d   1      53.489  32.698  53.689  0.00  0.00    -0.256 N 
ATOM      4  C   UNL d   1      52.831  32.620  53.199  0.00  0.00     0.272 A 
ATOM      5  N   UNL d   1      52.992  33.971  54.133  0.00  0.00    -0.208 NA
ATOM      6  C   UNL d   1      53.570  33.385  54.162  0.00  0.00     0.175 A 
ATOM      7  C   UNL d   1      51.602  33.121  52.681  0.00  0.00     0.204 A 
ATOM      8  N   UNL d   1      51.760  34.478  53.616  0.00  0.00    -0.289 N 
ATOM      9  C   UNL d   1      51.024  33.711  52.655  0.00  0.00     0.055 A 
ATOM     10  C   UNL d   1      51.100  34.389  53.119  0.00  0.00     0.069 A 
ATOM     11  O   UNL d   1      52.756  31.942  52.735  0.00  0.00    -0.266 OA
ATOM     12  O   UNL d   1      51.523  32.446  52.216  0.00  0.00    -0.286 OA
ATOM     13  C   UNL d   1      51.835  35.155  54.081  0.00  0.00     0.101 C 
ATOM     14  C   UNL d   1      50.372  33.620  52.162  0.00  0.00     0.005 A 
ATOM     15  C   UNL d   1      50.523  34.975  53.091  0.00  0.00     0.018 A 
ATOM     16  C   UNL d   1      49.794  34.206  52.132  0.00  0.00     0.000 A 
ATOM     17  C   UNL d   1      49.870  34.884  52.597  0.00  0.00     0.002 A 
ENDROOT
BRANCH   6  18
ATOM     18  C   UNL d   1      54.233  33.468  54.658  0.00  0.00     0.135 A 
ATOM     19  O   UNL d   1      54.923  33.806  54.357  0.00  0.00    -0.302 OA
ATOM     20  C   UNL d   1      55.481  33.817  54.965  0.00  0.00     0.123 A 
ATOM     21  C   UNL d   1      55.135  33.487  55.640  0.00  0.00     0.029 A 
ATOM     22  C   UNL d   1      54.364  33.273  55.448  0.00  0.00     0.030 A 
ENDBRANCH   6  18
BRANCH   3  23
ATOM     23  C   UNL d   1      54.070  32.107  53.717  0.00  0.00     0.085 C 
BRANCH  23  24
ATOM     24  C   UNL d   1      53.848  31.305  53.672  0.00  0.00     0.018 C 
ATOM     25  C   UNL d   1      54.068  30.851  52.999  0.00  0.00     0.002 C 
ATOM     26  C   UNL d   1      53.412  30.953  54.289  0.00  0.00     0.002 C 
ENDBRANCH  23  24
ENDBRANCH   3  23
TORSDOF 3
ENDMDL
MODEL 4
REMARK VINA RESULT:      -7.9      1.285      4.056
REMARK  3 active torsions:
REMARK  status: ('A' for Active; 'I' for Inactive)
REMARK    1  A    between atoms: C_12  and  N_3 
REMARK    2  A    between atoms: C_11  and  C_6 
REMARK    3  A    between atoms: C_22  and  C_12 
ROOT
ATOM      1  C   UNL d   1      52.418  33.470  53.455  0.00  0.00     0.130 A 
ATOM      2  C   UNL d   1      51.964  32.812  53.253  0.00  0.00     0.157 A 
ATOM      3  N   UNL d   1      53.536  32.613  53.724  0.00  0.00    -0.256 N 
ATOM      4  C   UNL d   1      53.202  33.365  53.689  0.00  0.00     0.272 A 
ATOM      5  N   UNL d   1      52.289  32.052  53.284  0.00  0.00    -0.208 NA
ATOM      6  C   UNL d   1      53.072  31.947  53.518  0.00  0.00     0.175 A 
ATOM      7  C   UNL d   1      52.093  34.221  53.424  0.00  0.00     0.204 A 
ATOM      8  N   UNL d   1      51.174  32.905  53.017  0.00  0.00    -0.289 N 
ATOM      9  C   UNL d   1      51.308  34.322  53.189  0.00  0.00     0.055 A 
ATOM     10  C   UNL d   1      50.847  33.668  52.985  0.00  0.00     0.069 A 
ATOM     11  O   UNL d   1      53.663  34.019  53.893  0.00  0.00    -0.266 OA
ATOM     12  O   UNL d   1      52.550  34.875  53.626  0.00  0.00    -0.286 OA
ATOM     13  C   UNL d   1      50.713  32.252  52.813  0.00  0.00     0.101 C 
ATOM     14  C   UNL d   1      50.986  35.078  53.159  0.00  0.00     0.005 A 
ATOM     15  C   UNL d   1      50.064  33.772  52.752  0.00  0.00     0.018 A 
ATOM     16  C   UNL d   1      50.204  35.183  52.925  0.00  0.00     0.000 A 
ATOM     17  C   UNL d   1      49.743  34.530  52.722  0.00  0.00     0.002 A 
ENDROOT
BRANCH   6  18
ATOM     18  C   UNL d   1      53.405  31.186  53.551  0.00  0.00     0.135 A 
ATOM     19  O   UNL d   1      53.196  30.679  54.168  0.00  0.00    -0.302 OA
ATOM     20  C   UNL d   1      53.607  29.971  54.060  0.00  0.00     0.123 A 
ATOM     21  C   UNL d   1      54.069  30.042  53.377  0.00  0.00     0.029 A 
ATOM     22  C   UNL d   1      53.943  30.793  53.066  0.00  0.00     0.030 A 
ENDBRANCH   6  18
BRANCH   3  23
ATOM     23  C   UNL d   1      54.325  32.510  53.959  0.00  0.00     0.085 C 
BRANCH  23  24
ATOM     24  C   UNL d   1      54.652  33.005  54.544  0.00  0.00     0.018 C 
ATOM     25  C   UNL d   1      55.273  33.533  54.341  0.00  0.00     0.002 C 
ATOM     26  C   UNL d   1      54.366  32.979  55.327  0.00  0.00     0.002 C 
ENDBRANCH  23  24
ENDBRANCH   3  23
TORSDOF 3
ENDMDL
MODEL 5
REMARK VINA RESULT:      -7.5      1.374      2.508
REMARK  3 active torsions:
REMARK  status: ('A' for Active; 'I' for Inactive)
REMARK    1  A    between atoms: C_12  and  N_3 
REMARK    2  A    between atoms: C_11  and  C_6 
REMARK    3  A    between atoms: C_22  and  C_12 
ROOT
ATOM      1  C   UNL d   1      53.538  32.166  54.156  0.00  0.00     0.130 A 
ATOM      2  C   UNL d   1      52.978  32.467  53.630  0.00  0.00     0.157 A 
ATOM      3  N   UNL d   1      53.776  33.487  54.659  0.00  0.00    -0.256 N 
ATOM      4  C   UNL d   1      53.933  32.678  54.666  0.00  0.00     0.272 A 
ATOM      5  N   UNL d   1      52.812  33.277  53.614  0.00  0.00    -0.208 NA
ATOM      6  C   UNL d   1      53.206  33.790  54.124  0.00  0.00     0.175 A 
ATOM      7  C   UNL d   1      53.700  31.363  54.169  0.00  0.00     0.204 A 
ATOM      8  N   UNL d   1      52.575  31.960  53.113  0.00  0.00    -0.289 N 
ATOM      9  C   UNL d   1      53.302  30.852  53.656  0.00  0.00     0.055 A 
ATOM     10  C   UNL d   1      52.741  31.146  53.128  0.00  0.00     0.069 A 
ATOM     11  O   UNL d   1      54.494  32.384  55.194  0.00  0.00    -0.266 OA
ATOM     12  O   UNL d   1      54.260  31.066  54.695  0.00  0.00    -0.286 OA
ATOM     13  C   UNL d   1      52.013  32.254  52.585  0.00  0.00     0.101 C 
ATOM     14  C   UNL d   1      53.469  30.047  53.674  0.00  0.00     0.005 A 
ATOM     15  C   UNL d   1      52.346  30.635  52.618  0.00  0.00     0.018 A 
ATOM     16  C   UNL d   1      53.075  29.534  53.165  0.00  0.00     0.000 A 
ATOM     17  C   UNL d   1      52.513  29.828  52.637  0.00  0.00     0.002 A 
ENDROOT
BRANCH   6  18
ATOM     18  C   UNL d   1      53.044  34.606  54.113  0.00  0.00     0.135 A 
ATOM     19  O   UNL d   1      52.514  34.921  54.661  0.00  0.00    -0.302 OA
ATOM     20  C   UNL d   1      52.462  35.733  54.521  0.00  0.00     0.123 A 
ATOM     21  C   UNL d   1      52.960  35.918  53.887  0.00  0.00     0.029 A 
ATOM     22  C   UNL d   1      53.318  35.221  53.637  0.00  0.00     0.030 A 
ENDBRANCH   6  18
BRANCH   3  23
ATOM     23  C   UNL d   1      54.174  34.001  55.173  0.00  0.00     0.085 C 
BRANCH  23  24
ATOM     24  C   UNL d   1      54.977  33.871  55.350  0.00  0.00     0.018 C 
ATOM     25  C   UNL d   1      55.203  33.676  56.136  0.00  0.00     0.002 C 
ATOM     26  C   UNL d   1      55.556  33.934  54.754  0.00  0.00     0.002 C 
ENDBRANCH  23  24
ENDBRANCH   3  23
TORSDOF 3
ENDMDL
