MODEL 1
REMARK VINA RESULT:      19.6      0.000      0.000
REMARK  5 active torsions:
REMARK  status: ('A' for Active; 'I' for Inactive)
REMARK    1  A    between atoms: C_3  and  C_1 
REMARK       I    between atoms: N_2  and  C_4 
REMARK    2  A    between atoms: C_5  and  N_2 
REMARK       I    between atoms: N_6  and  C_3 
REMARK    3  A    between atoms: C_4  and  C_7 
REMARK    4  A    between atoms: C_7  and  N_6 
REMARK    5  A    between atoms: C_21  and  C_7 
ROOT
ATOM      1  C   UNL d   1      45.499 -16.088  44.235  0.00  0.00     0.263 C 
ATOM      2  N   UNL d   1      46.199 -16.501  44.148  0.00  0.00    -0.206 NA
ATOM      3  O   UNL d   1      44.782 -16.500  44.194  0.00  0.00    -0.270 OA
ENDROOT
BRANCH   2   4
ATOM      4  C   UNL d   1      46.195 -17.308  44.022  0.00  0.00     0.142 C 
BRANCH   4   5
ATOM      5  C   UNL d   1      46.348 -17.619  43.264  0.00  0.00     0.299 C 
ATOM      6  N   UNL d   1      46.225 -18.406  43.109  0.00  0.00    -0.181 NA
ATOM      7  O   UNL d   1      46.626 -17.110  42.678  0.00  0.00    -0.263 OA
BRANCH   6   8
ATOM      8  C   UNL d   1      46.374 -18.719  42.361  0.00  0.00     0.197 A 
ATOM      9  N   UNL d   1      46.508 -19.541  42.257  0.00  0.00    -0.219 NA
ATOM     10  C   UNL d   1      46.639 -19.665  41.449  0.00  0.00     0.108 A 
ATOM     11  C   UNL d   1      46.594 -18.979  41.061  0.00  0.00     0.059 A 
ATOM     12  S   UNL d   1      46.425 -18.348  41.617  0.00  0.00    -0.046 SA
ENDBRANCH   6   8
ENDBRANCH   4   5
BRANCH   4  13
ATOM     13  C   UNL d   1      46.038 -17.808  44.650  0.00  0.00     0.022 C 
ATOM     14  C   UNL d   1      46.642 -18.282  44.954  0.00  0.00     0.002 C 
ATOM     15  C   UNL d   1      45.290 -17.817  44.947  0.00  0.00     0.002 C 
ENDBRANCH   4  13
ENDBRANCH   2   4
BRANCH   1  16
ATOM     16  C   UNL d   1      45.504 -15.291  44.359  0.00  0.00     0.111 A 
ATOM     17  C   UNL d   1      44.840 -15.329  44.622  0.00  0.00     0.026 A 
ATOM     18  C   UNL d   1      44.488 -14.695  44.864  0.00  0.00     0.045 A 
ATOM     19  C   UNL d   1      45.069 -13.991  44.740  0.00  0.00    -0.022 A 
ATOM     20  C   UNL d   1      44.775 -13.854  44.881  0.00  0.00    -0.022 A 
ATOM     21  C   UNL d   1      45.846 -13.948  44.433  0.00  0.00    -0.007 A 
ATOM     22  C   UNL d   1      46.104 -14.727  44.206  0.00  0.00    -0.014 A 
ATOM     23  C   UNL d   1      46.112 -13.212  44.442  0.00  0.00    -0.001 A 
ATOM     24  C   UNL d   1      45.478 -13.814  44.603  0.00  0.00    -0.007 A 
ATOM     25  C   UNL d   1      45.771 -14.624  44.357  0.00  0.00    -0.014 A 
ENDBRANCH   1  16
TORSDOF 5
ENDMDL
MODEL 2
REMARK VINA RESULT:      22.3      1.352      4.541
REMARK  5 active torsions:
REMARK  status: ('A' for Active; 'I' for Inactive)
REMARK    1  A    between atoms: C_3  and  C_1 
REMARK       I    between atoms: N_2  and  C_4 
REMARK    2  A    between atoms: C_5  and  N_2 
REMARK       I    between atoms: N_6  and  C_3 
REMARK    3  A    between atoms: C_4  and  C_7 
REMARK    4  A    between atoms: C_7  and  N_6 
REMARK    5  A    between atoms: C_21  and  C_7 
ROOT
ATOM      1  C   UNL d   1      46.234 -18.319  43.176  0.00  0.00     0.263 C 
ATOM      2  N   UNL d   1      46.018 -17.551  43.356  0.00  0.00    -0.206 NA
ATOM      3  O   UNL d   1      46.320 -18.866  43.792  0.00  0.00    -0.270 OA
ENDROOT
BRANCH   2   4
ATOM      4  C   UNL d   1      45.889 -17.324  44.129  0.00  0.00     0.142 C 
BRANCH   4   5
ATOM      5  C   UNL d   1      45.941 -16.522  44.349  0.00  0.00     0.299 C 
ATOM      6  N   UNL d   1      45.455 -15.968  44.010  0.00  0.00    -0.181 NA
ATOM      7  O   UNL d   1      46.496 -16.306  44.919  0.00  0.00    -0.263 OA
BRANCH   6   8
ATOM      8  C   UNL d   1      45.502 -15.174  44.224  0.00  0.00     0.197 A 
ATOM      9  N   UNL d   1      46.012 -14.646  43.817  0.00  0.00    -0.219 NA
ATOM     10  C   UNL d   1      45.924 -13.903  44.169  0.00  0.00     0.108 A 
ATOM     11  C   UNL d   1      45.399 -13.944  44.758  0.00  0.00     0.059 A 
ATOM     12  S   UNL d   1      45.107 -14.748  44.822  0.00  0.00    -0.046 SA
ENDBRANCH   6   8
ENDBRANCH   4   5
BRANCH   4  13
ATOM     13  C   UNL d   1      45.708 -17.894  44.687  0.00  0.00     0.022 C 
ATOM     14  C   UNL d   1      44.930 -17.970  44.955  0.00  0.00     0.002 C 
ATOM     15  C   UNL d   1      46.305 -18.362  44.955  0.00  0.00     0.002 C 
ENDBRANCH   4  13
ENDBRANCH   2   4
BRANCH   1  16
ATOM     16  C   UNL d   1      46.361 -18.543  42.412  0.00  0.00     0.111 A 
ATOM     17  C   UNL d   1      46.406 -19.226  42.620  0.00  0.00     0.026 A 
ATOM     18  C   UNL d   1      46.534 -19.774  42.105  0.00  0.00     0.045 A 
ATOM     19  C   UNL d   1      46.602 -19.370  41.280  0.00  0.00    -0.022 A 
ATOM     20  C   UNL d   1      46.647 -19.716  41.224  0.00  0.00    -0.022 A 
ATOM     21  C   UNL d   1      46.550 -18.571  41.037  0.00  0.00    -0.007 A 
ATOM     22  C   UNL d   1      46.405 -18.079  41.715  0.00  0.00    -0.014 A 
ATOM     23  C   UNL d   1      46.647 -18.505  40.263  0.00  0.00    -0.001 A 
ATOM     24  C   UNL d   1      46.599 -18.995  41.004  0.00  0.00    -0.007 A 
ATOM     25  C   UNL d   1      46.447 -18.456  41.703  0.00  0.00    -0.014 A 
ENDBRANCH   1  16
TORSDOF 5
ENDMDL
