MODEL 1
REMARK VINA RESULT:      -5.6      0.000      0.000
REMARK  6 active torsions:
REMARK  status: ('A' for Active; 'I' for Inactive)
REMARK    1  A    between atoms: C_7  and  C_1 
REMARK    2  A    between atoms: C_6  and  O_13 
REMARK    3  A    between atoms: C_12  and  C_6 
REMARK    4  A    between atoms: O_13  and  C_10 
REMARK    5  A    between atoms: C_28  and  C_14 
REMARK    6  A    between atoms: C_31  and  C_28 
ROOT
ATOM      1  C   UNL d   1     -47.347  13.205  22.687  0.00  0.00     0.064 A 
ATOM      2  C   UNL d   1     -46.098  12.521  22.744  0.00  0.00     0.062 A 
ATOM      3  C   UNL d   1     -46.892  12.575  22.958  0.00  0.00     0.199 A 
ATOM      4  C   UNL d   1     -47.009  13.781  22.203  0.00  0.00     0.126 A 
ATOM      5  C   UNL d   1     -45.761  13.097  22.260  0.00  0.00     0.105 A 
ATOM      6  O   UNL d   1     -46.216  13.728  21.989  0.00  0.00    -0.305 OA
ATOM      7  C   UNL d   1     -45.643  11.891  23.015  0.00  0.00     0.007 A 
ATOM      8  C   UNL d   1     -44.508  12.411  22.318  0.00  0.00     0.105 A 
ATOM      9  C   UNL d   1     -44.968  13.044  22.047  0.00  0.00     0.050 A 
ATOM     10  C   UNL d   1     -44.846  11.835  22.801  0.00  0.00     0.023 A 
ATOM     11  O   UNL d   1     -47.230  11.999  23.442  0.00  0.00    -0.286 OA
ENDROOT
BRANCH   1  12
ATOM     12  C   UNL d   1     -48.141  13.259  22.900  0.00  0.00     0.007 A 
ATOM     13  C   UNL d   1     -48.678  12.661  22.676  0.00  0.00     0.027 A 
ATOM     14  C   UNL d   1     -49.465  12.711  22.886  0.00  0.00     0.123 A 
ATOM     15  O   UNL d   1     -49.990  12.118  22.662  0.00  0.00    -0.301 OA
ATOM     16  C   UNL d   1     -49.740  13.365  23.329  0.00  0.00     0.123 A 
ATOM     17  C   UNL d   1     -50.787  12.170  22.876  0.00  0.00     0.149 A 
ATOM     18  C   UNL d   1     -51.062  12.813  23.313  0.00  0.00     0.149 A 
ATOM     19  O   UNL d   1     -50.533  13.416  23.541  0.00  0.00    -0.301 OA
ATOM     20  C   UNL d   1     -49.203  13.963  23.553  0.00  0.00     0.027 A 
ATOM     21  C   UNL d   1     -48.410  13.909  23.340  0.00  0.00     0.002 A 
ENDBRANCH   1  12
BRANCH  10  22
ATOM     22  C   UNL d   1     -44.383  11.201  23.073  0.00  0.00     0.002 C 
BRANCH  22  23
ATOM     23  C   UNL d   1     -44.715  10.629  23.563  0.00  0.00     0.000 C 
ATOM     24  C   UNL d   1     -44.322   9.922  23.698  0.00  0.00     0.000 C 
ENDBRANCH  22  23
ENDBRANCH  10  22
BRANCH   8  25
ATOM     25  O   UNL d   1     -43.707  12.353  22.104  0.00  0.00    -0.271 OA
BRANCH  25  26
ATOM     26  C   UNL d   1     -43.450  12.653  21.380  0.00  0.00     0.323 C 
ATOM     27  O   UNL d   1     -43.910  12.568  20.706  0.00  0.00    -0.257 OA
BRANCH  26  28
ATOM     28  C   UNL d   1     -42.720  13.042  21.332  0.00  0.00     0.163 A 
ATOM     29  O   UNL d   1     -42.088  12.956  21.850  0.00  0.00    -0.300 OA
ATOM     30  C   UNL d   1     -41.472  13.445  21.598  0.00  0.00     0.123 A 
ATOM     31  C   UNL d   1     -41.731  13.837  20.914  0.00  0.00     0.029 A 
ATOM     32  C   UNL d   1     -42.505  13.584  20.753  0.00  0.00     0.032 A 
ENDBRANCH  26  28
ENDBRANCH  25  26
ENDBRANCH   8  25
TORSDOF 6
ENDMDL
MODEL 2
REMARK VINA RESULT:      -4.9      1.502      2.892
REMARK  6 active torsions:
REMARK  status: ('A' for Active; 'I' for Inactive)
REMARK    1  A    between atoms: C_7  and  C_1 
REMARK    2  A    between atoms: C_6  and  O_13 
REMARK    3  A    between atoms: C_12  and  C_6 
REMARK    4  A    between atoms: O_13  and  C_10 
REMARK    5  A    between atoms: C_28  and  C_14 
REMARK    6  A    between atoms: C_31  and  C_28 
ROOT
ATOM      1  C   UNL d   1     -48.371  13.035  22.875  0.00  0.00     0.064 A 
ATOM      2  C   UNL d   1     -46.972  12.770  22.842  0.00  0.00     0.062 A 
ATOM      3  C   UNL d   1     -47.619  13.215  22.594  0.00  0.00     0.199 A 
ATOM      4  C   UNL d   1     -48.477  12.410  23.402  0.00  0.00     0.126 A 
ATOM      5  C   UNL d   1     -47.078  12.145  23.370  0.00  0.00     0.105 A 
ATOM      6  O   UNL d   1     -47.831  11.965  23.650  0.00  0.00    -0.305 OA
ATOM      7  C   UNL d   1     -46.219  12.950  22.561  0.00  0.00     0.007 A 
ATOM      8  C   UNL d   1     -45.674  11.879  23.337  0.00  0.00     0.105 A 
ATOM      9  C   UNL d   1     -46.431  11.700  23.617  0.00  0.00     0.050 A 
ATOM     10  C   UNL d   1     -45.568  12.504  22.809  0.00  0.00     0.023 A 
ATOM     11  O   UNL d   1     -47.513  13.840  22.066  0.00  0.00    -0.286 OA
ENDROOT
BRANCH   1  12
ATOM     12  C   UNL d   1     -49.019  13.480  22.627  0.00  0.00     0.007 A 
ATOM     13  C   UNL d   1     -49.125  14.259  22.907  0.00  0.00     0.027 A 
ATOM     14  C   UNL d   1     -49.765  14.703  22.664  0.00  0.00     0.123 A 
ATOM     15  O   UNL d   1     -49.864  15.471  22.944  0.00  0.00    -0.301 OA
ATOM     16  C   UNL d   1     -50.321  14.379  22.130  0.00  0.00     0.123 A 
ATOM     17  C   UNL d   1     -50.513  15.920  22.696  0.00  0.00     0.149 A 
ATOM     18  C   UNL d   1     -51.064  15.604  22.169  0.00  0.00     0.149 A 
ATOM     19  O   UNL d   1     -50.966  14.826  21.884  0.00  0.00    -0.301 OA
ATOM     20  C   UNL d   1     -50.215  13.601  21.850  0.00  0.00     0.027 A 
ATOM     21  C   UNL d   1     -49.568  13.156  22.098  0.00  0.00     0.002 A 
ENDBRANCH   1  12
BRANCH  10  22
ATOM     22  C   UNL d   1     -44.807  12.682  22.528  0.00  0.00     0.002 C 
BRANCH  22  23
ATOM     23  C   UNL d   1     -44.703  13.277  21.968  0.00  0.00     0.000 C 
ATOM     24  C   UNL d   1     -43.948  13.506  21.744  0.00  0.00     0.000 C 
ENDBRANCH  22  23
ENDBRANCH  10  22
BRANCH   8  25
ATOM     25  O   UNL d   1     -45.019  11.432  23.584  0.00  0.00    -0.271 OA
BRANCH  25  26
ATOM     26  C   UNL d   1     -45.056  10.608  23.582  0.00  0.00     0.323 C 
ATOM     27  O   UNL d   1     -45.779  10.223  23.552  0.00  0.00    -0.257 OA
BRANCH  26  28
ATOM     28  C   UNL d   1     -44.356  10.165  23.610  0.00  0.00     0.163 A 
ATOM     29  O   UNL d   1     -43.595  10.462  23.697  0.00  0.00    -0.300 OA
ATOM     30  C   UNL d   1     -43.063   9.832  23.697  0.00  0.00     0.123 A 
ATOM     31  C   UNL d   1     -43.505   9.135  23.608  0.00  0.00     0.029 A 
ATOM     32  C   UNL d   1     -44.307   9.347  23.554  0.00  0.00     0.032 A 
ENDBRANCH  26  28
ENDBRANCH  25  26
ENDBRANCH   8  25
TORSDOF 6
ENDMDL
MODEL 3
REMARK VINA RESULT:      -4.3      4.078      8.825
REMARK  6 active torsions:
REMARK  status: ('A' for Active; 'I' for Inactive)
REMARK    1  A    between atoms: C_7  and  C_1 
REMARK    2  A    between atoms: C_6  and  O_13 
REMARK    3  A    between atoms: C_12  and  C_6 
REMARK    4  A    between atoms: O_13  and  C_10 
REMARK    5  A    between atoms: C_28  and  C_14 
REMARK    6  A    between atoms: C_31  and  C_28 
ROOT
ATOM      1  C   UNL d   1     -40.017  14.668  17.799  0.00  0.00     0.064 A 
ATOM      2  C   UNL d   1     -40.098  14.437  19.203  0.00  0.00     0.062 A 
ATOM      3  C   UNL d   1     -39.661  14.662  18.541  0.00  0.00     0.199 A 
ATOM      4  C   UNL d   1     -40.808  14.449  17.718  0.00  0.00     0.126 A 
ATOM      5  C   UNL d   1     -40.888  14.218  19.122  0.00  0.00     0.105 A 
ATOM      6  O   UNL d   1     -41.244  14.224  18.379  0.00  0.00    -0.305 OA
ATOM      7  C   UNL d   1     -39.742  14.431  19.945  0.00  0.00     0.007 A 
ATOM      8  C   UNL d   1     -40.968  13.986  20.530  0.00  0.00     0.105 A 
ATOM      9  C   UNL d   1     -41.324  13.993  19.783  0.00  0.00     0.050 A 
ATOM     10  C   UNL d   1     -40.178  14.205  20.611  0.00  0.00     0.023 A 
ATOM     11  O   UNL d   1     -38.870  14.881  18.623  0.00  0.00    -0.286 OA
ENDROOT
BRANCH   1  12
ATOM     12  C   UNL d   1     -39.581  14.893  17.138  0.00  0.00     0.007 A 
ATOM     13  C   UNL d   1     -39.252  14.314  16.634  0.00  0.00     0.027 A 
ATOM     14  C   UNL d   1     -38.819  14.533  15.978  0.00  0.00     0.123 A 
ATOM     15  O   UNL d   1     -38.497  13.958  15.486  0.00  0.00    -0.301 OA
ATOM     16  C   UNL d   1     -38.702  15.343  15.805  0.00  0.00     0.123 A 
ATOM     17  C   UNL d   1     -38.059  14.182  14.821  0.00  0.00     0.149 A 
ATOM     18  C   UNL d   1     -37.941  14.980  14.646  0.00  0.00     0.149 A 
ATOM     19  O   UNL d   1     -38.267  15.565  15.144  0.00  0.00    -0.301 OA
ATOM     20  C   UNL d   1     -39.032  15.922  16.308  0.00  0.00     0.027 A 
ATOM     21  C   UNL d   1     -39.467  15.696  16.969  0.00  0.00     0.002 A 
ENDBRANCH   1  12
BRANCH  10  22
ATOM     22  C   UNL d   1     -39.823  14.198  21.362  0.00  0.00     0.002 C 
BRANCH  22  23
ATOM     23  C   UNL d   1     -39.010  14.309  21.435  0.00  0.00     0.000 C 
ATOM     24  C   UNL d   1     -38.644  14.214  22.162  0.00  0.00     0.000 C 
ENDBRANCH  22  23
ENDBRANCH  10  22
BRANCH   8  25
ATOM     25  O   UNL d   1     -41.405  13.760  21.199  0.00  0.00    -0.271 OA
BRANCH  25  26
ATOM     26  C   UNL d   1     -42.219  13.890  21.226  0.00  0.00     0.323 C 
ATOM     27  O   UNL d   1     -42.530  14.628  21.046  0.00  0.00    -0.257 OA
BRANCH  26  28
ATOM     28  C   UNL d   1     -42.728  13.271  21.435  0.00  0.00     0.163 A 
ATOM     29  O   UNL d   1     -42.510  12.497  21.604  0.00  0.00    -0.300 OA
ATOM     30  C   UNL d   1     -43.188  12.063  21.786  0.00  0.00     0.123 A 
ATOM     31  C   UNL d   1     -43.835  12.581  21.728  0.00  0.00     0.029 A 
ATOM     32  C   UNL d   1     -43.545  13.328  21.511  0.00  0.00     0.032 A 
ENDBRANCH  26  28
ENDBRANCH  25  26
ENDBRANCH   8  25
TORSDOF 6
ENDMDL
MODEL 4
REMARK VINA RESULT:      -3.1      1.390      5.887
REMARK  6 active torsions:
REMARK  status: ('A' for Active; 'I' for Inactive)
REMARK    1  A    between atoms: C_7  and  C_1 
REMARK    2  A    between atoms: C_6  and  O_13 
REMARK    3  A    between atoms: C_12  and  C_6 
REMARK    4  A    between atoms: O_13  and  C_10 
REMARK    5  A    between atoms: C_28  and  C_14 
REMARK    6  A    between atoms: C_31  and  C_28 
ROOT
ATOM      1  C   UNL d   1     -45.113  13.532  22.171  0.00  0.00     0.064 A 
ATOM      2  C   UNL d   1     -46.420  13.261  22.672  0.00  0.00     0.062 A 
ATOM      3  C   UNL d   1     -45.669  12.997  22.457  0.00  0.00     0.199 A 
ATOM      4  C   UNL d   1     -45.306  14.330  22.100  0.00  0.00     0.126 A 
ATOM      5  C   UNL d   1     -46.612  14.059  22.601  0.00  0.00     0.105 A 
ATOM      6  O   UNL d   1     -46.055  14.595  22.315  0.00  0.00    -0.305 OA
ATOM      7  C   UNL d   1     -46.975  12.726  22.958  0.00  0.00     0.007 A 
ATOM      8  C   UNL d   1     -47.922  13.787  23.103  0.00  0.00     0.105 A 
ATOM      9  C   UNL d   1     -47.362  14.324  22.816  0.00  0.00     0.050 A 
ATOM     10  C   UNL d   1     -47.729  12.989  23.174  0.00  0.00     0.023 A 
ATOM     11  O   UNL d   1     -45.476  12.198  22.528  0.00  0.00    -0.286 OA
ENDROOT
BRANCH   1  12
ATOM     12  C   UNL d   1     -44.363  13.268  21.956  0.00  0.00     0.007 A 
ATOM     13  C   UNL d   1     -43.802  13.802  21.647  0.00  0.00     0.027 A 
ATOM     14  C   UNL d   1     -43.058  13.545  21.433  0.00  0.00     0.123 A 
ATOM     15  O   UNL d   1     -42.508  14.077  21.129  0.00  0.00    -0.301 OA
ATOM     16  C   UNL d   1     -42.852  12.738  21.522  0.00  0.00     0.123 A 
ATOM     17  C   UNL d   1     -41.754  13.813  20.912  0.00  0.00     0.149 A 
ATOM     18  C   UNL d   1     -41.548  13.019  20.998  0.00  0.00     0.149 A 
ATOM     19  O   UNL d   1     -42.103  12.478  21.306  0.00  0.00    -0.301 OA
ATOM     20  C   UNL d   1     -43.414  12.204  21.830  0.00  0.00     0.027 A 
ATOM     21  C   UNL d   1     -44.163  12.468  22.045  0.00  0.00     0.002 A 
ENDBRANCH   1  12
BRANCH  10  22
ATOM     22  C   UNL d   1     -48.294  12.452  23.464  0.00  0.00     0.002 C 
BRANCH  22  23
ATOM     23  C   UNL d   1     -48.122  11.648  23.489  0.00  0.00     0.000 C 
ATOM     24  C   UNL d   1     -48.726  11.099  23.572  0.00  0.00     0.000 C 
ENDBRANCH  22  23
ENDBRANCH  10  22
BRANCH   8  25
ATOM     25  O   UNL d   1     -48.680  14.050  23.321  0.00  0.00    -0.271 OA
BRANCH  25  26
ATOM     26  C   UNL d   1     -49.031  14.679  22.919  0.00  0.00     0.323 C 
ATOM     27  O   UNL d   1     -48.666  15.012  22.265  0.00  0.00    -0.257 OA
BRANCH  26  28
ATOM     28  C   UNL d   1     -49.759  14.978  23.178  0.00  0.00     0.163 A 
ATOM     29  O   UNL d   1     -50.485  14.595  23.134  0.00  0.00    -0.300 OA
ATOM     30  C   UNL d   1     -51.064  15.089  23.453  0.00  0.00     0.123 A 
ATOM     31  C   UNL d   1     -50.687  15.787  23.698  0.00  0.00     0.029 A 
ATOM     32  C   UNL d   1     -49.878  15.713  23.525  0.00  0.00     0.032 A 
ENDBRANCH  26  28
ENDBRANCH  25  26
ENDBRANCH   8  25
TORSDOF 6
ENDMDL
MODEL 5
REMARK VINA RESULT:      -2.8      2.778      5.763
REMARK  6 active torsions:
REMARK  status: ('A' for Active; 'I' for Inactive)
REMARK    1  A    between atoms: C_7  and  C_1 
REMARK    2  A    between atoms: C_6  and  O_13 
REMARK    3  A    between atoms: C_12  and  C_6 
REMARK    4  A    between atoms: O_13  and  C_10 
REMARK    5  A    between atoms: C_28  and  C_14 
REMARK    6  A    between atoms: C_31  and  C_28 
ROOT
ATOM      1  C   UNL d   1     -42.429  13.324  20.866  0.00  0.00     0.064 A 
ATOM      2  C   UNL d   1     -41.292  14.172  20.732  0.00  0.00     0.062 A 
ATOM      3  C   UNL d   1     -41.856  13.805  21.208  0.00  0.00     0.199 A 
ATOM      4  C   UNL d   1     -42.439  13.208  20.050  0.00  0.00     0.126 A 
ATOM      5  C   UNL d   1     -41.302  14.056  19.916  0.00  0.00     0.105 A 
ATOM      6  O   UNL d   1     -41.876  13.574  19.574  0.00  0.00    -0.305 OA
ATOM      7  C   UNL d   1     -40.719  14.653  21.074  0.00  0.00     0.007 A 
ATOM      8  C   UNL d   1     -40.161  14.906  19.782  0.00  0.00     0.105 A 
ATOM      9  C   UNL d   1     -40.739  14.422  19.440  0.00  0.00     0.050 A 
ATOM     10  C   UNL d   1     -40.151  15.022  20.597  0.00  0.00     0.023 A 
ATOM     11  O   UNL d   1     -41.846  13.921  22.025  0.00  0.00    -0.286 OA
ENDROOT
BRANCH   1  12
ATOM     12  C   UNL d   1     -42.993  12.957  21.342  0.00  0.00     0.007 A 
ATOM     13  C   UNL d   1     -43.746  13.303  21.444  0.00  0.00     0.027 A 
ATOM     14  C   UNL d   1     -44.307  12.943  21.914  0.00  0.00     0.123 A 
ATOM     15  O   UNL d   1     -45.048  13.289  22.010  0.00  0.00    -0.301 OA
ATOM     16  C   UNL d   1     -44.131  12.222  22.300  0.00  0.00     0.123 A 
ATOM     17  C   UNL d   1     -45.616  12.922  22.488  0.00  0.00     0.149 A 
ATOM     18  C   UNL d   1     -45.446  12.211  22.870  0.00  0.00     0.149 A 
ATOM     19  O   UNL d   1     -44.696  11.859  22.774  0.00  0.00    -0.301 OA
ATOM     20  C   UNL d   1     -43.378  11.876  22.198  0.00  0.00     0.027 A 
ATOM     21  C   UNL d   1     -42.815  12.243  21.722  0.00  0.00     0.002 A 
ENDBRANCH   1  12
BRANCH  10  22
ATOM     22  C   UNL d   1     -39.571  15.509  20.939  0.00  0.00     0.002 C 
BRANCH  22  23
ATOM     23  C   UNL d   1     -39.348  15.397  21.723  0.00  0.00     0.000 C 
ATOM     24  C   UNL d   1     -38.832  15.922  22.085  0.00  0.00     0.000 C 
ENDBRANCH  22  23
ENDBRANCH  10  22
BRANCH   8  25
ATOM     25  O   UNL d   1     -39.591  15.278  19.305  0.00  0.00    -0.271 OA
BRANCH  25  26
ATOM     26  C   UNL d   1     -39.804  15.590  18.572  0.00  0.00     0.323 C 
ATOM     27  O   UNL d   1     -40.558  15.891  18.449  0.00  0.00    -0.257 OA
BRANCH  26  28
ATOM     28  C   UNL d   1     -39.254  15.600  17.953  0.00  0.00     0.163 A 
ATOM     29  O   UNL d   1     -38.450  15.756  18.019  0.00  0.00    -0.300 OA
ATOM     30  C   UNL d   1     -38.108  15.708  17.270  0.00  0.00     0.123 A 
ATOM     31  C   UNL d   1     -38.713  15.520  16.733  0.00  0.00     0.029 A 
ATOM     32  C   UNL d   1     -39.422  15.454  17.162  0.00  0.00     0.032 A 
ENDBRANCH  26  28
ENDBRANCH  25  26
ENDBRANCH   8  25
TORSDOF 6
ENDMDL
