MODEL 1
REMARK VINA RESULT:      54.7      0.000      0.000
REMARK  4 active torsions:
REMARK  status: ('A' for Active; 'I' for Inactive)
REMARK    1  A    between atoms: C_9  and  N_2 
REMARK    2  A    between atoms: C_7  and  O_10 
REMARK    3  A    between atoms: C_11  and  C_9 
REMARK    4  A    between atoms: O_10  and  C_11 
ROOT
ATOM      1  C   UNL d   1      57.889  49.644  51.621  0.00  0.00     0.296 A 
ATOM      2  N   UNL d   1      58.198  49.660  50.859  0.00  0.00    -0.266 N 
ATOM      3  S   UNL d   1      57.055  49.594  51.556  0.00  0.00    -0.025 SA
ATOM      4  C   UNL d   1      57.566  49.620  50.323  0.00  0.00     0.074 A 
ATOM      5  C   UNL d   1      56.866  49.579  50.750  0.00  0.00     0.050 A 
ATOM      6  O   UNL d   1      58.314  49.672  52.322  0.00  0.00    -0.259 OA
ATOM      7  C   UNL d   1      57.552  49.617  49.496  0.00  0.00     0.018 A 
ATOM      8  C   UNL d   1      56.136  49.534  50.359  0.00  0.00     0.008 A 
ATOM      9  C   UNL d   1      56.826  49.571  49.103  0.00  0.00     0.002 A 
ATOM     10  C   UNL d   1      56.125  49.531  49.530  0.00  0.00     0.001 A 
ENDROOT
BRANCH   2  11
ATOM     11  C   UNL d   1      58.997  49.708  50.661  0.00  0.00     0.110 C 
BRANCH  11  12
ATOM     12  C   UNL d   1      59.420  49.027  50.475  0.00  0.00     0.142 C 
BRANCH  12  13
ATOM     13  O   UNL d   1      60.248  49.020  50.502  0.00  0.00    -0.304 OA
BRANCH  13  14
ATOM     14  C   UNL d   1      60.652  48.324  50.683  0.00  0.00     0.100 A 
ATOM     15  C   UNL d   1      61.082  48.268  51.385  0.00  0.00     0.023 A 
ATOM     16  C   UNL d   1      61.107  48.909  51.907  0.00  0.00     0.002 C 
ATOM     17  C   UNL d   1      61.483  47.576  51.564  0.00  0.00     0.002 A 
ATOM     18  C   UNL d   1      61.456  46.939  51.041  0.00  0.00     0.000 A 
ATOM     19  C   UNL d   1      61.024  46.999  50.337  0.00  0.00     0.002 A 
ATOM     20  C   UNL d   1      60.624  47.696  50.165  0.00  0.00     0.025 A 
ENDBRANCH  13  14
ENDBRANCH  12  13
ENDBRANCH  11  12
ENDBRANCH   2  11
TORSDOF 4
ENDMDL
MODEL 2
REMARK VINA RESULT:      56.2      1.412      4.206
REMARK  4 active torsions:
REMARK  status: ('A' for Active; 'I' for Inactive)
REMARK    1  A    between atoms: C_9  and  N_2 
REMARK    2  A    between atoms: C_7  and  O_10 
REMARK    3  A    between atoms: C_11  and  C_9 
REMARK    4  A    between atoms: O_10  and  C_11 
ROOT
ATOM      1  C   UNL d   1      60.867  49.011  50.132  0.00  0.00     0.296 A 
ATOM      2  N   UNL d   1      60.498  48.898  50.858  0.00  0.00    -0.266 N 
ATOM      3  S   UNL d   1      61.259  48.298  49.932  0.00  0.00    -0.025 SA
ATOM      4  C   UNL d   1      60.655  48.123  51.110  0.00  0.00     0.074 A 
ATOM      5  C   UNL d   1      61.121  47.756  50.542  0.00  0.00     0.050 A 
ATOM      6  O   UNL d   1      60.858  49.697  49.681  0.00  0.00    -0.259 OA
ATOM      7  C   UNL d   1      60.426  47.714  51.791  0.00  0.00     0.018 A 
ATOM      8  C   UNL d   1      61.369  46.970  50.643  0.00  0.00     0.008 A 
ATOM      9  C   UNL d   1      60.671  46.930  51.895  0.00  0.00     0.002 A 
ATOM     10  C   UNL d   1      61.137  46.563  51.328  0.00  0.00     0.001 A 
ENDROOT
BRANCH   2  11
ATOM     11  C   UNL d   1      60.049  49.456  51.266  0.00  0.00     0.110 C 
BRANCH  11  12
ATOM     12  C   UNL d   1      59.227  49.438  51.226  0.00  0.00     0.142 C 
BRANCH  12  13
ATOM     13  O   UNL d   1      58.834  49.490  50.499  0.00  0.00    -0.304 OA
BRANCH  13  14
ATOM     14  C   UNL d   1      58.011  49.536  50.473  0.00  0.00     0.100 A 
ATOM     15  C   UNL d   1      57.617  49.454  49.752  0.00  0.00     0.023 A 
ATOM     16  C   UNL d   1      58.047  49.327  49.057  0.00  0.00     0.002 C 
ATOM     17  C   UNL d   1      56.799  49.499  49.727  0.00  0.00     0.002 A 
ATOM     18  C   UNL d   1      56.373  49.626  50.422  0.00  0.00     0.000 A 
ATOM     19  C   UNL d   1      56.772  49.707  51.143  0.00  0.00     0.002 A 
ATOM     20  C   UNL d   1      57.593  49.661  51.160  0.00  0.00     0.025 A 
ENDBRANCH  13  14
ENDBRANCH  12  13
ENDBRANCH  11  12
ENDBRANCH   2  11
TORSDOF 4
ENDMDL
