MODEL 1
REMARK VINA RESULT:      39.2      0.000      0.000
REMARK  6 active torsions:
REMARK  status: ('A' for Active; 'I' for Inactive)
REMARK    1  A    between atoms: C_7  and  C_1 
REMARK    2  A    between atoms: S_9  and  C_2 
REMARK    3  A    between atoms: C_11  and  C_4 
REMARK    4  A    between atoms: C_15  and  S_9 
REMARK    5  A    between atoms: C_12  and  C_15 
REMARK    6  A    between atoms: O_21  and  C_12 
ROOT
ATOM      1  C   UNL d   1      14.140  13.911  -2.276  0.00  0.00     0.045 A 
ATOM      2  C   UNL d   1      13.856  13.211  -2.594  0.00  0.00     0.112 A 
ATOM      3  C   UNL d   1      14.636  13.190  -1.136  0.00  0.00     0.057 A 
ATOM      4  C   UNL d   1      14.529  13.909  -1.549  0.00  0.00     0.008 A 
ATOM      5  C   UNL d   1      14.352  12.491  -1.454  0.00  0.00     0.085 A 
ATOM      6  N   UNL d   1      13.956  12.494  -2.193  0.00  0.00    -0.239 NA
ATOM      7  C   UNL d   1      15.022  13.194  -0.418  0.00  0.00     0.197 A 
ATOM      8  O   UNL d   1      15.309  13.903  -0.095  0.00  0.00    -0.286 OA
ATOM      9  C   UNL d   1      14.448  11.779  -1.062  0.00  0.00     0.019 A 
ATOM     10  C   UNL d   1      15.124  12.482  -0.015  0.00  0.00     0.042 A 
ATOM     11  C   UNL d   1      14.840  11.782  -0.333  0.00  0.00     0.005 A 
ENDROOT
BRANCH   4  12
ATOM     12  C   UNL d   1      14.811  14.603  -1.233  0.00  0.00     0.000 A 
ATOM     13  C   UNL d   1      15.016  15.225  -1.728  0.00  0.00     0.000 A 
ATOM     14  C   UNL d   1      15.300  15.925  -1.410  0.00  0.00     0.000 A 
ATOM     15  C   UNL d   1      15.378  16.002  -0.595  0.00  0.00     0.000 A 
ATOM     16  C   UNL d   1      15.172  15.375  -0.088  0.00  0.00     0.000 A 
ATOM     17  C   UNL d   1      15.664  16.707  -0.274  0.00  0.00     0.000 C 
ATOM     18  C   UNL d   1      14.888  14.675  -0.407  0.00  0.00     0.000 A 
ENDBRANCH   4  12
BRANCH   1  19
ATOM     19  C   UNL d   1      14.031  14.632  -2.694  0.00  0.00     0.124 C 
ATOM     20  N   UNL d   1      13.827  14.610  -3.499  0.00  0.00    -0.146 N 
ENDBRANCH   1  19
BRANCH   2  21
ATOM     21  S   UNL d   1      13.449  13.197  -3.348  0.00  0.00    -0.062 SA
BRANCH  21  22
ATOM     22  C   UNL d   1      13.350  12.486  -3.736  0.00  0.00     0.105 C 
BRANCH  22  23
ATOM     23  C   UNL d   1      13.119  12.480  -4.534  0.00  0.00     0.303 C 
ATOM     24  O   UNL d   1      12.860  13.170  -4.907  0.00  0.00    -0.259 OA
BRANCH  23  25
ATOM     25  O   UNL d   1      13.147  11.780  -4.957  0.00  0.00    -0.295 OA
ATOM     26  C   UNL d   1      13.029  11.792  -5.779  0.00  0.00     0.185 C 
ENDBRANCH  23  25
ENDBRANCH  22  23
ENDBRANCH  21  22
ENDBRANCH   2  21
TORSDOF 6
ENDMDL
