MODEL 1
REMARK VINA RESULT:      73.9      0.000      0.000
REMARK  6 active torsions:
REMARK  status: ('A' for Active; 'I' for Inactive)
REMARK    1  A    between atoms: C_17  and  N_1 
REMARK    2  A    between atoms: N_9  and  C_8 
REMARK    3  A    between atoms: C_11  and  O_21 
REMARK    4  A    between atoms: C_15  and  C_11 
REMARK    5  A    between atoms: C_30  and  C_17 
REMARK    6  A    between atoms: O_21  and  C_30 
ROOT
ATOM      1  N   UNL d   1      13.696  14.735  -4.701  0.00  0.00    -0.238 N 
ATOM      2  C   UNL d   1      13.323  15.083  -5.347  0.00  0.00     0.267 A 
ATOM      3  C   UNL d   1      14.202  15.167  -4.217  0.00  0.00     0.267 A 
ATOM      4  C   UNL d   1      13.463  15.898  -5.516  0.00  0.00     0.057 A 
ATOM      5  C   UNL d   1      13.971  16.335  -5.033  0.00  0.00     0.011 A 
ATOM      6  C   UNL d   1      14.339  15.961  -4.382  0.00  0.00     0.057 A 
ATOM      7  C   UNL d   1      14.105  17.119  -5.196  0.00  0.00     0.016 A 
ATOM      8  C   UNL d   1      13.735  17.476  -5.844  0.00  0.00     0.064 A 
ATOM      9  C   UNL d   1      13.099  16.251  -6.154  0.00  0.00     0.006 A 
ATOM     10  C   UNL d   1      13.233  17.035  -6.317  0.00  0.00     0.018 A 
ATOM     11  O   UNL d   1      14.604  14.821  -3.534  0.00  0.00    -0.267 OA
ATOM     12  O   UNL d   1      12.820  14.626  -5.817  0.00  0.00    -0.267 OA
ATOM     13  C   UNL d   1      14.854  16.393  -3.886  0.00  0.00     0.005 A 
ATOM     14  C   UNL d   1      14.613  17.560  -4.714  0.00  0.00     0.002 A 
ATOM     15  C   UNL d   1      14.993  17.203  -4.054  0.00  0.00     0.000 A 
ENDROOT
BRANCH   1  16
ATOM     16  C   UNL d   1      13.556  13.920  -4.531  0.00  0.00     0.113 C 
BRANCH  16  17
ATOM     17  C   UNL d   1      13.629  13.645  -3.757  0.00  0.00     0.145 C 
BRANCH  17  18
ATOM     18  O   UNL d   1      13.206  12.993  -3.519  0.00  0.00    -0.269 OA
BRANCH  18  19
ATOM     19  C   UNL d   1      13.599  12.324  -3.278  0.00  0.00     0.300 C 
ATOM     20  O   UNL d   1      13.880  11.779  -3.825  0.00  0.00    -0.259 OA
BRANCH  19  21
ATOM     21  C   UNL d   1      13.718  12.188  -2.475  0.00  0.00     0.064 A 
ATOM     22  C   UNL d   1      13.084  11.951  -2.008  0.00  0.00     0.006 A 
ATOM     23  C   UNL d   1      13.206  11.812  -1.184  0.00  0.00     0.012 A 
ATOM     24  C   UNL d   1      13.956  11.914  -0.859  0.00  0.00     0.058 A 
ATOM     25  C   UNL d   1      14.580  12.148  -1.330  0.00  0.00     0.012 A 
ATOM     26 CL   UNL d   1      14.074  11.779  -0.067  0.00  0.00    -0.082 Cl
ATOM     27  C   UNL d   1      14.462  12.284  -2.128  0.00  0.00     0.006 A 
ENDBRANCH  19  21
ENDBRANCH  18  19
ENDBRANCH  17  18
ENDBRANCH  16  17
ENDBRANCH   1  16
BRANCH   8  28
ATOM     28  N   UNL d   1      13.873  18.281  -6.011  0.00  0.00    -0.300 N 
ATOM     29  C   UNL d   1      14.628  18.584  -5.963  0.00  0.00     0.107 A 
ATOM     30  C   UNL d   1      14.764  19.373  -6.127  0.00  0.00     0.142 A 
ATOM     31  O   UNL d   1      14.144  19.859  -6.339  0.00  0.00    -0.300 OA
ATOM     32  C   UNL d   1      13.377  19.557  -6.389  0.00  0.00     0.142 A 
ATOM     33  C   UNL d   1      13.242  18.768  -6.225  0.00  0.00     0.107 A 
ENDBRANCH   8  28
TORSDOF 6
ENDMDL
