MODEL 1
REMARK VINA RESULT:      32.4      0.000      0.000
REMARK  2 active torsions:
REMARK  status: ('A' for Active; 'I' for Inactive)
REMARK       I    between atoms: C_7  and  N_1 
REMARK    1  A    between atoms: C_6  and  C_3 
REMARK    2  A    between atoms: C_8  and  C_4 
ROOT
ATOM      1  N   UNL d   1      59.780  49.630  50.038  0.00  0.00    -0.195 N 
ATOM      2  N   UNL d   1      59.070  49.653  49.645  0.00  0.00    -0.163 NA
ATOM      3  C   UNL d   1      59.629  49.589  50.848  0.00  0.00     0.091 A 
ATOM      4  C   UNL d   1      58.472  49.626  50.214  0.00  0.00     0.104 A 
ATOM      5  C   UNL d   1      58.822  49.587  50.950  0.00  0.00     0.040 A 
ATOM      6  C   UNL d   1      60.555  49.646  49.683  0.00  0.00     0.281 C 
ATOM      7  O   UNL d   1      61.214  49.620  50.140  0.00  0.00    -0.265 OA
ATOM      8  C   UNL d   1      60.610  49.689  48.862  0.00  0.00     0.068 C 
ENDROOT
BRANCH   3   9
ATOM      9  C   UNL d   1      60.204  49.556  51.445  0.00  0.00     0.057 A 
ATOM     10  C   UNL d   1      59.983  49.614  52.218  0.00  0.00     0.197 A 
ATOM     11  O   UNL d   1      59.203  49.705  52.419  0.00  0.00    -0.286 OA
ATOM     12  C   UNL d   1      60.553  49.582  52.820  0.00  0.00     0.042 A 
ATOM     13  C   UNL d   1      61.354  49.490  52.637  0.00  0.00     0.003 A 
ATOM     14  C   UNL d   1      61.558  49.433  51.845  0.00  0.00     0.000 A 
ATOM     15  C   UNL d   1      61.003  49.464  51.264  0.00  0.00     0.005 A 
ENDBRANCH   3   9
BRANCH   4  16
ATOM     16  C   UNL d   1      57.661  49.636  50.064  0.00  0.00     0.039 A 
ATOM     17  C   UNL d   1      57.385  49.672  49.288  0.00  0.00     0.101 A 
ATOM     18  N   UNL d   1      56.574  49.682  49.138  0.00  0.00    -0.242 NA
ATOM     19  C   UNL d   1      56.038  49.657  49.766  0.00  0.00     0.099 A 
ATOM     20  C   UNL d   1      56.314  49.622  50.543  0.00  0.00     0.021 A 
ATOM     21  C   UNL d   1      57.126  49.612  50.692  0.00  0.00     0.005 A 
ENDBRANCH   4  16
TORSDOF 2
ENDMDL
