MODEL 1
REMARK VINA RESULT:      -2.0      0.000      0.000
REMARK  6 active torsions:
REMARK  status: ('A' for Active; 'I' for Inactive)
REMARK    1  A    between atoms: N_8  and  C_1 
REMARK    2  A    between atoms: C_6  and  N_2 
REMARK       I    between atoms: C_12  and  N_8 
REMARK    3  A    between atoms: C_20  and  C_12 
REMARK    4  A    between atoms: O_24  and  C_13 
REMARK    5  A    between atoms: O_25  and  C_15 
REMARK    6  A    between atoms: C_19  and  C_20 
ROOT
ATOM      1  C   UNL d   1      33.214  20.411 -22.868  0.00  0.00     0.169 A 
ATOM      2  N   UNL d   1      33.180  21.233 -22.960  0.00  0.00    -0.212 N 
ATOM      3  C   UNL d   1      33.218  20.238 -22.053  0.00  0.00     0.065 A 
ATOM      4  N   UNL d   1      33.163  21.569 -22.203  0.00  0.00    -0.163 NA
ATOM      5  C   UNL d   1      33.186  20.955 -21.646  0.00  0.00     0.114 A 
ATOM      6  S   UNL d   1      33.223  19.973 -20.741  0.00  0.00     0.091 S 
ATOM      7  C   UNL d   1      33.189  20.795 -20.833  0.00  0.00     0.090 A 
ATOM      8  C   UNL d   1      33.241  19.632 -21.497  0.00  0.00     0.073 A 
ATOM      9  O   UNL d   1      33.238  19.562 -20.021  0.00  0.00    -0.247 OA
ENDROOT
BRANCH   1  10
ATOM     10  N   UNL d   1      33.240  19.851 -23.478  0.00  0.00    -0.189 NA
ATOM     11  C   UNL d   1      32.723  19.216 -23.483  0.00  0.00     0.281 C 
ATOM     12  O   UNL d   1      32.162  19.128 -22.869  0.00  0.00    -0.265 OA
BRANCH  11  13
ATOM     13  C   UNL d   1      32.747  18.657 -24.090  0.00  0.00     0.063 C 
BRANCH  13  14
ATOM     14  C   UNL d   1      32.135  18.132 -24.163  0.00  0.00     0.007 A 
ATOM     15  C   UNL d   1      32.159  17.394 -23.782  0.00  0.00     0.026 A 
ATOM     16  C   UNL d   1      31.532  16.864 -23.860  0.00  0.00     0.116 A 
ATOM     17  C   UNL d   1      30.880  17.073 -24.322  0.00  0.00     0.116 A 
ATOM     18  C   UNL d   1      30.846  17.798 -24.702  0.00  0.00     0.026 A 
ATOM     19  C   UNL d   1      31.478  18.329 -24.621  0.00  0.00     0.002 A 
BRANCH  16  20
ATOM     20  O   UNL d   1      31.558  16.137 -23.484  0.00  0.00    -0.326 OA
ATOM     21  C   UNL d   1      32.198  15.631 -23.605  0.00  0.00     0.181 C 
ENDBRANCH  16  20
BRANCH  17  22
ATOM     22  O   UNL d   1      30.253  16.543 -24.401  0.00  0.00    -0.326 OA
ATOM     23  C   UNL d   1      29.478  16.790 -24.269  0.00  0.00     0.181 C 
ENDBRANCH  17  22
ENDBRANCH  13  14
ENDBRANCH  11  13
ENDBRANCH   1  10
BRANCH   2  24
ATOM     24  C   UNL d   1      33.166  21.645 -23.675  0.00  0.00     0.085 A 
ATOM     25  C   UNL d   1      33.078  22.461 -23.672  0.00  0.00     0.018 A 
ATOM     26  C   UNL d   1      33.064  22.872 -24.387  0.00  0.00     0.002 A 
ATOM     27  C   UNL d   1      33.005  22.864 -22.962  0.00  0.00     0.002 C 
ATOM     28  C   UNL d   1      32.977  23.684 -24.387  0.00  0.00     0.000 C 
ATOM     29  C   UNL d   1      33.138  22.456 -25.095  0.00  0.00     0.000 A 
ATOM     30  C   UNL d   1      33.225  21.642 -25.082  0.00  0.00     0.002 A 
ATOM     31  C   UNL d   1      33.240  21.228 -24.384  0.00  0.00     0.019 A 
ENDBRANCH   2  24
TORSDOF 6
ENDMDL
MODEL 2
REMARK VINA RESULT:       0.3      1.591      2.920
REMARK  6 active torsions:
REMARK  status: ('A' for Active; 'I' for Inactive)
REMARK    1  A    between atoms: N_8  and  C_1 
REMARK    2  A    between atoms: C_6  and  N_2 
REMARK       I    between atoms: C_12  and  N_8 
REMARK    3  A    between atoms: C_20  and  C_12 
REMARK    4  A    between atoms: O_24  and  C_13 
REMARK    5  A    between atoms: O_25  and  C_15 
REMARK    6  A    between atoms: C_19  and  C_20 
ROOT
ATOM      1  C   UNL d   1      32.963  21.601 -23.005  0.00  0.00     0.169 A 
ATOM      2  N   UNL d   1      32.726  21.865 -22.257  0.00  0.00    -0.212 N 
ATOM      3  C   UNL d   1      32.883  22.231 -23.544  0.00  0.00     0.065 A 
ATOM      4  N   UNL d   1      32.500  22.659 -22.332  0.00  0.00    -0.163 NA
ATOM      5  C   UNL d   1      32.597  22.882 -23.125  0.00  0.00     0.114 A 
ATOM      6  S   UNL d   1      32.750  23.252 -24.400  0.00  0.00     0.091 S 
ATOM      7  C   UNL d   1      32.514  23.516 -23.652  0.00  0.00     0.090 A 
ATOM      8  C   UNL d   1      32.978  22.457 -24.329  0.00  0.00     0.073 A 
ATOM      9  O   UNL d   1      32.759  23.700 -25.097  0.00  0.00    -0.247 OA
ENDROOT
BRANCH   1  10
ATOM     10  N   UNL d   1      33.234  20.840 -23.192  0.00  0.00    -0.189 NA
ATOM     11  C   UNL d   1      32.973  20.460 -23.868  0.00  0.00     0.281 C 
ATOM     12  O   UNL d   1      32.428  20.838 -24.379  0.00  0.00    -0.265 OA
BRANCH  11  13
ATOM     13  C   UNL d   1      33.241  19.703 -24.056  0.00  0.00     0.063 C 
BRANCH  13  14
ATOM     14  C   UNL d   1      32.699  19.110 -24.162  0.00  0.00     0.007 A 
ATOM     15  C   UNL d   1      32.689  18.448 -23.659  0.00  0.00     0.026 A 
ATOM     16  C   UNL d   1      32.134  17.848 -23.772  0.00  0.00     0.116 A 
ATOM     17  C   UNL d   1      31.589  17.911 -24.389  0.00  0.00     0.116 A 
ATOM     18  C   UNL d   1      31.590  18.559 -24.890  0.00  0.00     0.026 A 
ATOM     19  C   UNL d   1      32.149  19.160 -24.774  0.00  0.00     0.002 A 
BRANCH  16  20
ATOM     20  O   UNL d   1      32.125  17.197 -23.275  0.00  0.00    -0.326 OA
ATOM     21  C   UNL d   1      32.739  17.078 -22.738  0.00  0.00     0.181 C 
ENDBRANCH  16  20
BRANCH  17  22
ATOM     22  O   UNL d   1      31.034  17.312 -24.503  0.00  0.00    -0.326 OA
ATOM     23  C   UNL d   1      30.442  17.391 -25.071  0.00  0.00     0.181 C 
ENDBRANCH  17  22
ENDBRANCH  13  14
ENDBRANCH  11  13
ENDBRANCH   1  10
BRANCH   2  24
ATOM     24  C   UNL d   1      32.717  21.422 -21.562  0.00  0.00     0.085 A 
ATOM     25  C   UNL d   1      32.975  21.760 -20.860  0.00  0.00     0.018 A 
ATOM     26  C   UNL d   1      32.965  21.316 -20.165  0.00  0.00     0.002 A 
ATOM     27  C   UNL d   1      33.241  22.535 -20.851  0.00  0.00     0.002 C 
ATOM     28  C   UNL d   1      33.221  21.649 -19.465  0.00  0.00     0.000 C 
ATOM     29  C   UNL d   1      32.695  20.536 -20.186  0.00  0.00     0.000 A 
ATOM     30  C   UNL d   1      32.441  20.212 -20.894  0.00  0.00     0.002 A 
ATOM     31  C   UNL d   1      32.447  20.642 -21.583  0.00  0.00     0.019 A 
ENDBRANCH   2  24
TORSDOF 6
ENDMDL
