MODEL 1
REMARK VINA RESULT:      33.3      0.000      0.000
REMARK  4 active torsions:
REMARK  status: ('A' for Active; 'I' for Inactive)
REMARK    1  A    between atoms: S_9  and  C_3 
REMARK    2  A    between atoms: C_12  and  S_9 
REMARK    3  A    between atoms: C_11  and  C_12 
REMARK    4  A    between atoms: O_16  and  C_11 
ROOT
ATOM      1  C   UNL d   1      57.971  49.707  51.268  0.00  0.00     0.155 A 
ATOM      2  C   UNL d   1      58.231  49.707  50.481  0.00  0.00     0.107 A 
ATOM      3  C   UNL d   1      59.583  49.708  50.935  0.00  0.00     0.182 A 
ATOM      4  N   UNL d   1      59.329  49.708  51.714  0.00  0.00    -0.250 N 
ATOM      5  N   UNL d   1      59.043  49.708  50.314  0.00  0.00    -0.220 NA
ATOM      6  C   UNL d   1      58.516  49.708  51.880  0.00  0.00     0.285 A 
ATOM      7  N   UNL d   1      57.147  49.707  51.265  0.00  0.00    -0.239 NA
ATOM      8  C   UNL d   1      57.572  49.707  49.990  0.00  0.00     0.037 A 
ATOM      9  C   UNL d   1      56.894  49.707  50.475  0.00  0.00     0.083 A 
ATOM     10  O   UNL d   1      58.263  49.707  52.672  0.00  0.00    -0.265 OA
ATOM     11  C   UNL d   1      59.881  49.708  52.332  0.00  0.00     0.104 C 
ATOM     12  C   UNL d   1      57.489  49.707  49.171  0.00  0.00     0.003 A 
ATOM     13  C   UNL d   1      56.139  49.707  50.136  0.00  0.00     0.019 A 
ATOM     14  C   UNL d   1      56.734  49.707  48.832  0.00  0.00     0.000 A 
ATOM     15  C   UNL d   1      56.066  49.707  49.313  0.00  0.00     0.002 A 
ENDROOT
BRANCH   3  16
ATOM     16  S   UNL d   1      60.393  49.708  50.771  0.00  0.00    -0.044 SA
BRANCH  16  17
ATOM     17  C   UNL d   1      60.876  49.104  51.057  0.00  0.00     0.095 C 
ATOM     18  C   UNL d   1      61.029  49.045  51.863  0.00  0.00     0.013 C 
BRANCH  17  19
ATOM     19  C   UNL d   1      61.203  48.562  50.528  0.00  0.00     0.302 C 
ATOM     20  O   UNL d   1      61.112  48.663  49.729  0.00  0.00    -0.259 OA
BRANCH  19  21
ATOM     21  O   UNL d   1      61.629  47.909  50.812  0.00  0.00    -0.295 OA
ATOM     22  C   UNL d   1      61.446  47.145  50.545  0.00  0.00     0.185 C 
ENDBRANCH  19  21
ENDBRANCH  17  19
ENDBRANCH  16  17
ENDBRANCH   3  16
TORSDOF 4
ENDMDL
