MODEL 1
REMARK VINA RESULT:       7.3      0.000      0.000
REMARK  5 active torsions:
REMARK  status: ('A' for Active; 'I' for Inactive)
REMARK    1  A    between atoms: C_6  and  N_2 
REMARK    2  A    between atoms: C_7  and  C_6 
REMARK    3  A    between atoms: C_8  and  C_7 
REMARK       I    between atoms: N_10  and  C_8 
REMARK    4  A    between atoms: C_12  and  N_10 
REMARK    5  A    between atoms: C_13  and  C_12 
ROOT
ATOM      1  C   UNL d   1      46.578 -17.890  43.839  0.00  0.00     0.088 C 
ENDROOT
BRANCH   1   2
ATOM      2  N   UNL d   1      46.577 -18.645  43.510  0.00  0.00    -0.268 N 
ATOM      3  C   UNL d   1      46.554 -19.354  43.925  0.00  0.00     0.296 A 
ATOM      4  S   UNL d   1      46.564 -19.980  43.340  0.00  0.00    -0.025 SA
ATOM      5  O   UNL d   1      46.528 -19.433  44.745  0.00  0.00    -0.259 OA
ATOM      6  C   UNL d   1      46.591 -19.640  42.624  0.00  0.00     0.050 A 
ATOM      7  C   UNL d   1      46.610 -19.982  41.869  0.00  0.00     0.008 A 
ATOM      8  C   UNL d   1      46.600 -18.818  42.704  0.00  0.00     0.073 A 
ATOM      9  C   UNL d   1      46.638 -19.500  41.194  0.00  0.00     0.001 A 
ATOM     10  C   UNL d   1      46.647 -18.680  41.287  0.00  0.00     0.002 A 
ATOM     11  C   UNL d   1      46.628 -18.342  42.041  0.00  0.00     0.018 A 
ENDBRANCH   1   2
BRANCH   1  12
ATOM     12  C   UNL d   1      45.986 -17.356  43.647  0.00  0.00     0.082 C 
BRANCH  12  13
ATOM     13  C   UNL d   1      45.701 -16.826  44.211  0.00  0.00     0.281 C 
ATOM     14  N   UNL d   1      45.643 -16.024  44.039  0.00  0.00    -0.206 NA
ATOM     15  O   UNL d   1      45.473 -17.103  44.954  0.00  0.00    -0.265 OA
BRANCH  14  16
ATOM     16  C   UNL d   1      45.359 -15.500  44.602  0.00  0.00     0.102 C 
BRANCH  16  17
ATOM     17  C   UNL d   1      45.447 -14.692  44.486  0.00  0.00     0.019 A 
ATOM     18  C   UNL d   1      46.065 -14.279  44.861  0.00  0.00     0.002 A 
ATOM     19  C   UNL d   1      46.147 -13.461  44.739  0.00  0.00     0.000 A 
ATOM     20  C   UNL d   1      45.623 -13.056  44.251  0.00  0.00     0.000 A 
ATOM     21  C   UNL d   1      45.004 -13.468  43.876  0.00  0.00     0.000 A 
ATOM     22  C   UNL d   1      44.911 -14.283  43.989  0.00  0.00     0.002 A 
ENDBRANCH  16  17
ENDBRANCH  14  16
ENDBRANCH  12  13
ENDBRANCH   1  12
TORSDOF 5
ENDMDL
