MODEL 1
REMARK VINA RESULT:      -6.4      0.000      0.000
REMARK  5 active torsions:
REMARK  status: ('A' for Active; 'I' for Inactive)
REMARK    1  A    between atoms: C_7  and  C_1 
REMARK    2  A    between atoms: C_10  and  C_6 
REMARK    3  A    between atoms: O_18  and  C_7 
REMARK    4  A    between atoms: N_8  and  C_10 
REMARK    5  A    between atoms: C_23  and  O_18 
ROOT
ATOM      1  C   UNL d   1     -49.669  13.425  22.173  0.00  0.00     0.081 A 
ATOM      2  C   UNL d   1     -50.383  13.763  21.937  0.00  0.00     0.069 A 
ATOM      3  C   UNL d   1     -49.138  14.049  22.342  0.00  0.00     0.027 A 
ATOM      4  N   UNL d   1     -50.306  14.581  21.957  0.00  0.00    -0.304 N 
ATOM      5  C   UNL d   1     -49.531  14.762  22.209  0.00  0.00     0.065 A 
ATOM      6  C   UNL d   1     -48.362  14.046  22.595  0.00  0.00     0.058 A 
ATOM      7  C   UNL d   1     -49.151  15.476  22.328  0.00  0.00     0.021 A 
ATOM      8  C   UNL d   1     -47.973  14.762  22.717  0.00  0.00     0.197 A 
ATOM      9  C   UNL d   1     -48.368  15.478  22.584  0.00  0.00     0.044 A 
ATOM     10  C   UNL d   1     -51.064  13.337  21.718  0.00  0.00     0.019 C 
ATOM     11  C   UNL d   1     -50.891  15.133  21.762  0.00  0.00     0.099 C 
ATOM     12  O   UNL d   1     -47.183  14.768  22.975  0.00  0.00    -0.286 OA
ENDROOT
BRANCH   6  13
ATOM     13  C   UNL d   1     -47.972  13.331  22.727  0.00  0.00     0.083 C 
BRANCH  13  14
ATOM     14  N   UNL d   1     -47.162  13.273  22.570  0.00  0.00    -0.302 N 
ATOM     15  C   UNL d   1     -46.627  13.241  23.191  0.00  0.00     0.080 A 
ATOM     16  C   UNL d   1     -45.813  13.182  23.033  0.00  0.00     0.019 A 
ATOM     17  C   UNL d   1     -45.545  13.156  22.255  0.00  0.00     0.003 A 
ATOM     18  C   UNL d   1     -46.084  13.187  21.630  0.00  0.00     0.019 A 
ATOM     19  C   UNL d   1     -44.738  13.097  22.101  0.00  0.00     0.000 C 
ATOM     20  C   UNL d   1     -46.897  13.246  21.790  0.00  0.00     0.080 A 
ENDBRANCH  13  14
ENDBRANCH   6  13
BRANCH   1  21
ATOM     21  C   UNL d   1     -49.499  12.619  22.233  0.00  0.00     0.302 C 
ATOM     22  O   UNL d   1     -49.231  12.200  21.570  0.00  0.00    -0.259 OA
BRANCH  21  23
ATOM     23  O   UNL d   1     -49.599  12.240  22.956  0.00  0.00    -0.271 OA
BRANCH  23  24
ATOM     24  C   UNL d   1     -49.727  11.422  22.978  0.00  0.00     0.126 C 
ATOM     25  C   UNL d   1     -49.736  11.025  23.698  0.00  0.00     0.029 C 
ENDBRANCH  23  24
ENDBRANCH  21  23
ENDBRANCH   1  21
TORSDOF 5
ENDMDL
MODEL 2
REMARK VINA RESULT:      -5.8      8.701      9.982
REMARK  5 active torsions:
REMARK  status: ('A' for Active; 'I' for Inactive)
REMARK    1  A    between atoms: C_7  and  C_1 
REMARK    2  A    between atoms: C_10  and  C_6 
REMARK    3  A    between atoms: O_18  and  C_7 
REMARK    4  A    between atoms: N_8  and  C_10 
REMARK    5  A    between atoms: C_23  and  O_18 
ROOT
ATOM      1  C   UNL d   1     -39.288  14.672  17.848  0.00  0.00     0.081 A 
ATOM      2  C   UNL d   1     -39.414  14.940  17.078  0.00  0.00     0.069 A 
ATOM      3  C   UNL d   1     -39.870  15.023  18.335  0.00  0.00     0.027 A 
ATOM      4  N   UNL d   1     -40.060  15.448  17.078  0.00  0.00    -0.304 N 
ATOM      5  C   UNL d   1     -40.346  15.501  17.860  0.00  0.00     0.065 A 
ATOM      6  C   UNL d   1     -40.015  14.961  19.136  0.00  0.00     0.058 A 
ATOM      7  C   UNL d   1     -40.969  15.920  18.184  0.00  0.00     0.021 A 
ATOM      8  C   UNL d   1     -40.642  15.380  19.469  0.00  0.00     0.197 A 
ATOM      9  C   UNL d   1     -41.120  15.861  18.992  0.00  0.00     0.044 A 
ATOM     10  C   UNL d   1     -38.956  14.726  16.416  0.00  0.00     0.019 C 
ATOM     11  C   UNL d   1     -40.375  15.840  16.421  0.00  0.00     0.099 C 
ATOM     12  O   UNL d   1     -40.796  15.322  20.283  0.00  0.00    -0.286 OA
ENDROOT
BRANCH   6  13
ATOM     13  C   UNL d   1     -39.537  14.481  19.607  0.00  0.00     0.083 C 
BRANCH  13  14
ATOM     14  N   UNL d   1     -39.327  14.734  20.366  0.00  0.00    -0.302 N 
ATOM     15  C   UNL d   1     -38.867  15.408  20.460  0.00  0.00     0.080 A 
ATOM     16  C   UNL d   1     -38.656  15.661  21.222  0.00  0.00     0.019 A 
ATOM     17  C   UNL d   1     -38.908  15.237  21.882  0.00  0.00     0.003 A 
ATOM     18  C   UNL d   1     -39.370  14.560  21.787  0.00  0.00     0.019 A 
ATOM     19  C   UNL d   1     -38.696  15.491  22.637  0.00  0.00     0.000 C 
ATOM     20  C   UNL d   1     -39.580  14.308  21.025  0.00  0.00     0.080 A 
ENDBRANCH  13  14
ENDBRANCH   6  13
BRANCH   1  21
ATOM     21  C   UNL d   1     -38.698  14.153  18.100  0.00  0.00     0.302 C 
ATOM     22  O   UNL d   1     -37.980  14.449  18.389  0.00  0.00    -0.259 OA
BRANCH  21  23
ATOM     23  O   UNL d   1     -38.831  13.342  18.062  0.00  0.00    -0.271 OA
BRANCH  23  24
ATOM     24  C   UNL d   1     -38.190  12.821  18.002  0.00  0.00     0.126 C 
ATOM     25  C   UNL d   1     -38.320  12.011  17.955  0.00  0.00     0.029 C 
ENDBRANCH  23  24
ENDBRANCH  21  23
ENDBRANCH   1  21
TORSDOF 5
ENDMDL
MODEL 3
REMARK VINA RESULT:      -5.5      8.288     10.635
REMARK  5 active torsions:
REMARK  status: ('A' for Active; 'I' for Inactive)
REMARK    1  A    between atoms: C_7  and  C_1 
REMARK    2  A    between atoms: C_10  and  C_6 
REMARK    3  A    between atoms: O_18  and  C_7 
REMARK    4  A    between atoms: N_8  and  C_10 
REMARK    5  A    between atoms: C_23  and  O_18 
ROOT
ATOM      1  C   UNL d   1     -38.833  14.419  17.346  0.00  0.00     0.081 A 
ATOM      2  C   UNL d   1     -38.613  13.873  16.768  0.00  0.00     0.069 A 
ATOM      3  C   UNL d   1     -38.595  14.111  18.086  0.00  0.00     0.027 A 
ATOM      4  N   UNL d   1     -38.245  13.235  17.134  0.00  0.00    -0.304 N 
ATOM      5  C   UNL d   1     -38.233  13.382  17.955  0.00  0.00     0.065 A 
ATOM      6  C   UNL d   1     -38.666  14.407  18.843  0.00  0.00     0.058 A 
ATOM      7  C   UNL d   1     -37.940  12.944  18.581  0.00  0.00     0.021 A 
ATOM      8  C   UNL d   1     -38.374  13.972  19.479  0.00  0.00     0.197 A 
ATOM      9  C   UNL d   1     -38.010  13.239  19.347  0.00  0.00     0.044 A 
ATOM     10  C   UNL d   1     -38.746  13.962  15.950  0.00  0.00     0.019 C 
ATOM     11  C   UNL d   1     -37.940  12.565  16.758  0.00  0.00     0.099 C 
ATOM     12  O   UNL d   1     -38.443  14.266  20.253  0.00  0.00    -0.286 OA
ENDROOT
BRANCH   6  13
ATOM     13  C   UNL d   1     -39.029  15.137  18.970  0.00  0.00     0.083 C 
BRANCH  13  14
ATOM     14  N   UNL d   1     -39.589  15.216  19.573  0.00  0.00    -0.302 N 
ATOM     15  C   UNL d   1     -40.203  14.674  19.634  0.00  0.00     0.080 A 
ATOM     16  C   UNL d   1     -40.766  14.754  20.241  0.00  0.00     0.019 A 
ATOM     17  C   UNL d   1     -40.707  15.374  20.778  0.00  0.00     0.003 A 
ATOM     18  C   UNL d   1     -40.091  15.919  20.717  0.00  0.00     0.019 A 
ATOM     19  C   UNL d   1     -41.267  15.450  21.378  0.00  0.00     0.000 C 
ATOM     20  C   UNL d   1     -39.529  15.838  20.110  0.00  0.00     0.080 A 
ENDBRANCH  13  14
ENDBRANCH   6  13
BRANCH   1  21
ATOM     21  C   UNL d   1     -39.217  15.139  17.225  0.00  0.00     0.302 C 
ATOM     22  O   UNL d   1     -38.795  15.850  17.283  0.00  0.00    -0.259 OA
BRANCH  21  23
ATOM     23  O   UNL d   1     -40.020  15.143  17.046  0.00  0.00    -0.271 OA
BRANCH  23  24
ATOM     24  C   UNL d   1     -40.362  15.811  16.696  0.00  0.00     0.126 C 
ATOM     25  C   UNL d   1     -41.156  15.805  16.483  0.00  0.00     0.029 C 
ENDBRANCH  23  24
ENDBRANCH  21  23
ENDBRANCH   1  21
TORSDOF 5
ENDMDL
MODEL 4
REMARK VINA RESULT:      -5.1      6.789      9.448
REMARK  5 active torsions:
REMARK  status: ('A' for Active; 'I' for Inactive)
REMARK    1  A    between atoms: C_7  and  C_1 
REMARK    2  A    between atoms: C_10  and  C_6 
REMARK    3  A    between atoms: O_18  and  C_7 
REMARK    4  A    between atoms: N_8  and  C_10 
REMARK    5  A    between atoms: C_23  and  O_18 
ROOT
ATOM      1  C   UNL d   1     -39.883  14.345  21.077  0.00  0.00     0.081 A 
ATOM      2  C   UNL d   1     -39.478  13.918  21.655  0.00  0.00     0.069 A 
ATOM      3  C   UNL d   1     -39.337  14.528  20.471  0.00  0.00     0.027 A 
ATOM      4  N   UNL d   1     -38.696  13.833  21.420  0.00  0.00    -0.304 N 
ATOM      5  C   UNL d   1     -38.605  14.212  20.682  0.00  0.00     0.065 A 
ATOM      6  C   UNL d   1     -39.424  14.936  19.769  0.00  0.00     0.058 A 
ATOM      7  C   UNL d   1     -37.956  14.303  20.193  0.00  0.00     0.021 A 
ATOM      8  C   UNL d   1     -38.775  15.031  19.271  0.00  0.00     0.197 A 
ATOM      9  C   UNL d   1     -38.039  14.714  19.484  0.00  0.00     0.044 A 
ATOM     10  C   UNL d   1     -39.816  13.625  22.358  0.00  0.00     0.019 C 
ATOM     11  C   UNL d   1     -38.098  13.441  21.837  0.00  0.00     0.099 C 
ATOM     12  O   UNL d   1     -38.855  15.445  18.555  0.00  0.00    -0.286 OA
ENDROOT
BRANCH   6  13
ATOM     13  C   UNL d   1     -40.158  15.251  19.561  0.00  0.00     0.083 C 
BRANCH  13  14
ATOM     14  N   UNL d   1     -40.406  15.222  18.773  0.00  0.00    -0.302 N 
ATOM     15  C   UNL d   1     -40.462  14.500  18.387  0.00  0.00     0.080 A 
ATOM     16  C   UNL d   1     -40.712  14.472  17.595  0.00  0.00     0.019 A 
ATOM     17  C   UNL d   1     -40.902  15.168  17.198  0.00  0.00     0.003 A 
ATOM     18  C   UNL d   1     -40.846  15.894  17.586  0.00  0.00     0.019 A 
ATOM     19  C   UNL d   1     -41.149  15.137  16.413  0.00  0.00     0.000 C 
ATOM     20  C   UNL d   1     -40.597  15.921  18.378  0.00  0.00     0.080 A 
ENDBRANCH  13  14
ENDBRANCH   6  13
BRANCH   1  21
ATOM     21  C   UNL d   1     -40.681  14.558  21.087  0.00  0.00     0.302 C 
ATOM     22  O   UNL d   1     -40.900  15.342  21.245  0.00  0.00    -0.259 OA
BRANCH  21  23
ATOM     23  O   UNL d   1     -41.252  13.986  20.940  0.00  0.00    -0.271 OA
BRANCH  23  24
ATOM     24  C   UNL d   1     -42.025  14.093  21.217  0.00  0.00     0.126 C 
ATOM     25  C   UNL d   1     -42.594  13.513  21.091  0.00  0.00     0.029 C 
ENDBRANCH  23  24
ENDBRANCH  21  23
ENDBRANCH   1  21
TORSDOF 5
ENDMDL
MODEL 5
REMARK VINA RESULT:      -5.1      1.062      1.238
REMARK  5 active torsions:
REMARK  status: ('A' for Active; 'I' for Inactive)
REMARK    1  A    between atoms: C_7  and  C_1 
REMARK    2  A    between atoms: C_10  and  C_6 
REMARK    3  A    between atoms: O_18  and  C_7 
REMARK    4  A    between atoms: N_8  and  C_10 
REMARK    5  A    between atoms: C_23  and  O_18 
ROOT
ATOM      1  C   UNL d   1     -49.679  13.782  22.665  0.00  0.00     0.081 A 
ATOM      2  C   UNL d   1     -50.235  14.353  22.879  0.00  0.00     0.069 A 
ATOM      3  C   UNL d   1     -48.925  14.141  22.697  0.00  0.00     0.027 A 
ATOM      4  N   UNL d   1     -49.842  15.056  23.041  0.00  0.00    -0.304 N 
ATOM      5  C   UNL d   1     -49.025  14.927  22.929  0.00  0.00     0.065 A 
ATOM      6  C   UNL d   1     -48.179  13.848  22.544  0.00  0.00     0.058 A 
ATOM      7  C   UNL d   1     -48.380  15.422  23.009  0.00  0.00     0.021 A 
ATOM      8  C   UNL d   1     -47.524  14.342  22.623  0.00  0.00     0.197 A 
ATOM      9  C   UNL d   1     -47.625  15.131  22.856  0.00  0.00     0.044 A 
ATOM     10  C   UNL d   1     -51.058  14.227  22.920  0.00  0.00     0.019 C 
ATOM     11  C   UNL d   1     -50.190  15.769  23.276  0.00  0.00     0.099 C 
ATOM     12  O   UNL d   1     -46.761  14.051  22.470  0.00  0.00    -0.286 OA
ENDROOT
BRANCH   6  13
ATOM     13  C   UNL d   1     -48.082  13.062  22.312  0.00  0.00     0.083 C 
BRANCH  13  14
ATOM     14  N   UNL d   1     -47.488  12.604  22.659  0.00  0.00    -0.302 N 
ATOM     15  C   UNL d   1     -47.657  12.146  23.319  0.00  0.00     0.080 A 
ATOM     16  C   UNL d   1     -47.059  11.686  23.667  0.00  0.00     0.019 A 
ATOM     17  C   UNL d   1     -46.299  11.689  23.350  0.00  0.00     0.003 A 
ATOM     18  C   UNL d   1     -46.129  12.149  22.687  0.00  0.00     0.019 A 
ATOM     19  C   UNL d   1     -45.708  11.232  23.698  0.00  0.00     0.000 C 
ATOM     20  C   UNL d   1     -46.727  12.609  22.340  0.00  0.00     0.080 A 
ENDBRANCH  13  14
ENDBRANCH   6  13
BRANCH   1  21
ATOM     21  C   UNL d   1     -49.831  12.998  22.456  0.00  0.00     0.302 C 
ATOM     22  O   UNL d   1     -49.821  12.770  21.659  0.00  0.00    -0.259 OA
BRANCH  21  23
ATOM     23  O   UNL d   1     -49.990  12.448  23.046  0.00  0.00    -0.271 OA
BRANCH  23  24
ATOM     24  C   UNL d   1     -50.741  12.101  23.095  0.00  0.00     0.126 C 
ATOM     25  C   UNL d   1     -50.912  11.570  23.698  0.00  0.00     0.029 C 
ENDBRANCH  23  24
ENDBRANCH  21  23
ENDBRANCH   1  21
TORSDOF 5
ENDMDL
MODEL 6
REMARK VINA RESULT:      -4.9      8.018      9.955
REMARK  5 active torsions:
REMARK  status: ('A' for Active; 'I' for Inactive)
REMARK    1  A    between atoms: C_7  and  C_1 
REMARK    2  A    between atoms: C_10  and  C_6 
REMARK    3  A    between atoms: O_18  and  C_7 
REMARK    4  A    between atoms: N_8  and  C_10 
REMARK    5  A    between atoms: C_23  and  O_18 
ROOT
ATOM      1  C   UNL d   1     -39.664  15.108  20.234  0.00  0.00     0.081 A 
ATOM      2  C   UNL d   1     -40.242  15.239  20.808  0.00  0.00     0.069 A 
ATOM      3  C   UNL d   1     -39.977  15.356  19.499  0.00  0.00     0.027 A 
ATOM      4  N   UNL d   1     -40.904  15.562  20.444  0.00  0.00    -0.304 N 
ATOM      5  C   UNL d   1     -40.742  15.636  19.629  0.00  0.00     0.065 A 
ATOM      6  C   UNL d   1     -39.658  15.357  18.748  0.00  0.00     0.058 A 
ATOM      7  C   UNL d   1     -41.192  15.918  19.008  0.00  0.00     0.021 A 
ATOM      8  C   UNL d   1     -40.107  15.640  18.117  0.00  0.00     0.197 A 
ATOM      9  C   UNL d   1     -40.876  15.922  18.248  0.00  0.00     0.044 A 
ATOM     10  C   UNL d   1     -40.158  15.069  21.619  0.00  0.00     0.019 C 
ATOM     11  C   UNL d   1     -41.611  15.778  20.817  0.00  0.00     0.099 C 
ATOM     12  O   UNL d   1     -39.790  15.645  17.349  0.00  0.00    -0.286 OA
ENDROOT
BRANCH   6  13
ATOM     13  C   UNL d   1     -38.893  15.076  18.622  0.00  0.00     0.083 C 
BRANCH  13  14
ATOM     14  N   UNL d   1     -38.746  14.556  17.996  0.00  0.00    -0.302 N 
ATOM     15  C   UNL d   1     -39.256  13.927  17.859  0.00  0.00     0.080 A 
ATOM     16  C   UNL d   1     -39.108  13.405  17.229  0.00  0.00     0.019 A 
ATOM     17  C   UNL d   1     -38.452  13.518  16.745  0.00  0.00     0.003 A 
ATOM     18  C   UNL d   1     -37.940  14.150  16.883  0.00  0.00     0.019 A 
ATOM     19  C   UNL d   1     -38.308  12.998  16.122  0.00  0.00     0.000 C 
ATOM     20  C   UNL d   1     -38.088  14.671  17.512  0.00  0.00     0.080 A 
ENDBRANCH  13  14
ENDBRANCH   6  13
BRANCH   1  21
ATOM     21  C   UNL d   1     -38.911  14.791  20.354  0.00  0.00     0.302 C 
ATOM     22  O   UNL d   1     -38.238  15.259  20.232  0.00  0.00    -0.259 OA
BRANCH  21  23
ATOM     23  O   UNL d   1     -38.837  14.008  20.595  0.00  0.00    -0.271 OA
BRANCH  23  24
ATOM     24  C   UNL d   1     -38.092  13.706  20.795  0.00  0.00     0.126 C 
ATOM     25  C   UNL d   1     -38.025  13.116  21.363  0.00  0.00     0.029 C 
ENDBRANCH  23  24
ENDBRANCH  21  23
ENDBRANCH   1  21
TORSDOF 5
ENDMDL
MODEL 7
REMARK VINA RESULT:      -4.6      1.002      2.531
REMARK  5 active torsions:
REMARK  status: ('A' for Active; 'I' for Inactive)
REMARK    1  A    between atoms: C_7  and  C_1 
REMARK    2  A    between atoms: C_10  and  C_6 
REMARK    3  A    between atoms: O_18  and  C_7 
REMARK    4  A    between atoms: N_8  and  C_10 
REMARK    5  A    between atoms: C_23  and  O_18 
ROOT
ATOM      1  C   UNL d   1     -49.439  13.736  22.368  0.00  0.00     0.081 A 
ATOM      2  C   UNL d   1     -50.129  13.794  21.920  0.00  0.00     0.069 A 
ATOM      3  C   UNL d   1     -49.270  12.922  22.466  0.00  0.00     0.027 A 
ATOM      4  N   UNL d   1     -50.391  13.037  21.739  0.00  0.00    -0.304 N 
ATOM      5  C   UNL d   1     -49.858  12.491  22.078  0.00  0.00     0.065 A 
ATOM      6  C   UNL d   1     -48.664  12.538  22.854  0.00  0.00     0.058 A 
ATOM      7  C   UNL d   1     -49.841  11.674  22.077  0.00  0.00     0.021 A 
ATOM      8  C   UNL d   1     -48.642  11.714  22.857  0.00  0.00     0.197 A 
ATOM      9  C   UNL d   1     -49.232  11.281  22.468  0.00  0.00     0.044 A 
ATOM     10  C   UNL d   1     -50.493  14.509  21.694  0.00  0.00     0.019 C 
ATOM     11  C   UNL d   1     -51.064  12.843  21.299  0.00  0.00     0.099 C 
ATOM     12  O   UNL d   1     -48.028  11.315  23.250  0.00  0.00    -0.286 OA
ENDROOT
BRANCH   6  13
ATOM     13  C   UNL d   1     -48.079  12.972  23.240  0.00  0.00     0.083 C 
BRANCH  13  14
ATOM     14  N   UNL d   1     -47.283  12.788  23.114  0.00  0.00    -0.302 N 
ATOM     15  C   UNL d   1     -46.921  13.000  22.409  0.00  0.00     0.080 A 
ATOM     16  C   UNL d   1     -46.121  12.814  22.283  0.00  0.00     0.019 A 
ATOM     17  C   UNL d   1     -45.693  12.418  22.864  0.00  0.00     0.003 A 
ATOM     18  C   UNL d   1     -46.057  12.205  23.573  0.00  0.00     0.019 A 
ATOM     19  C   UNL d   1     -44.900  12.236  22.735  0.00  0.00     0.000 C 
ATOM     20  C   UNL d   1     -46.856  12.391  23.698  0.00  0.00     0.080 A 
ENDBRANCH  13  14
ENDBRANCH   6  13
BRANCH   1  21
ATOM     21  C   UNL d   1     -48.990  14.360  22.668  0.00  0.00     0.302 C 
ATOM     22  O   UNL d   1     -49.019  14.541  23.477  0.00  0.00    -0.259 OA
BRANCH  21  23
ATOM     23  O   UNL d   1     -48.515  14.797  22.159  0.00  0.00    -0.271 OA
BRANCH  23  24
ATOM     24  C   UNL d   1     -48.340  15.587  22.334  0.00  0.00     0.126 C 
ATOM     25  C   UNL d   1     -47.631  15.918  22.084  0.00  0.00     0.029 C 
ENDBRANCH  23  24
ENDBRANCH  21  23
ENDBRANCH   1  21
TORSDOF 5
ENDMDL
MODEL 8
REMARK VINA RESULT:      -4.5      7.442     10.114
REMARK  5 active torsions:
REMARK  status: ('A' for Active; 'I' for Inactive)
REMARK    1  A    between atoms: C_7  and  C_1 
REMARK    2  A    between atoms: C_10  and  C_6 
REMARK    3  A    between atoms: O_18  and  C_7 
REMARK    4  A    between atoms: N_8  and  C_10 
REMARK    5  A    between atoms: C_23  and  O_18 
ROOT
ATOM      1  C   UNL d   1     -38.890  14.270  17.503  0.00  0.00     0.081 A 
ATOM      2  C   UNL d   1     -38.761  14.259  16.689  0.00  0.00     0.069 A 
ATOM      3  C   UNL d   1     -39.527  14.791  17.651  0.00  0.00     0.027 A 
ATOM      4  N   UNL d   1     -39.304  14.761  16.329  0.00  0.00    -0.304 N 
ATOM      5  C   UNL d   1     -39.782  15.094  16.927  0.00  0.00     0.065 A 
ATOM      6  C   UNL d   1     -39.893  15.017  18.345  0.00  0.00     0.058 A 
ATOM      7  C   UNL d   1     -40.404  15.624  16.893  0.00  0.00     0.021 A 
ATOM      8  C   UNL d   1     -40.520  15.551  18.318  0.00  0.00     0.197 A 
ATOM      9  C   UNL d   1     -40.776  15.855  17.591  0.00  0.00     0.044 A 
ATOM     10  C   UNL d   1     -38.175  13.809  16.303  0.00  0.00     0.019 C 
ATOM     11  C   UNL d   1     -39.369  14.912  15.519  0.00  0.00     0.099 C 
ATOM     12  O   UNL d   1     -40.897  15.786  19.020  0.00  0.00    -0.286 OA
ENDROOT
BRANCH   6  13
ATOM     13  C   UNL d   1     -39.635  14.713  19.067  0.00  0.00     0.083 C 
BRANCH  13  14
ATOM     14  N   UNL d   1     -40.187  14.533  19.655  0.00  0.00    -0.302 N 
ATOM     15  C   UNL d   1     -40.764  13.965  19.515  0.00  0.00     0.080 A 
ATOM     16  C   UNL d   1     -41.318  13.786  20.107  0.00  0.00     0.019 A 
ATOM     17  C   UNL d   1     -41.289  14.175  20.832  0.00  0.00     0.003 A 
ATOM     18  C   UNL d   1     -40.710  14.745  20.972  0.00  0.00     0.019 A 
ATOM     19  C   UNL d   1     -41.841  13.994  21.416  0.00  0.00     0.000 C 
ATOM     20  C   UNL d   1     -40.156  14.924  20.380  0.00  0.00     0.080 A 
ENDBRANCH  13  14
ENDBRANCH   6  13
BRANCH   1  21
ATOM     21  C   UNL d   1     -38.471  13.848  18.076  0.00  0.00     0.302 C 
ATOM     22  O   UNL d   1     -37.985  14.248  18.615  0.00  0.00    -0.259 OA
BRANCH  21  23
ATOM     23  O   UNL d   1     -38.542  13.029  18.105  0.00  0.00    -0.271 OA
BRANCH  23  24
ATOM     24  C   UNL d   1     -37.940  12.574  18.446  0.00  0.00     0.126 C 
ATOM     25  C   UNL d   1     -38.000  11.755  18.462  0.00  0.00     0.029 C 
ENDBRANCH  23  24
ENDBRANCH  21  23
ENDBRANCH   1  21
TORSDOF 5
ENDMDL
MODEL 9
REMARK VINA RESULT:      -4.4      7.275      9.453
REMARK  5 active torsions:
REMARK  status: ('A' for Active; 'I' for Inactive)
REMARK    1  A    between atoms: C_7  and  C_1 
REMARK    2  A    between atoms: C_10  and  C_6 
REMARK    3  A    between atoms: O_18  and  C_7 
REMARK    4  A    between atoms: N_8  and  C_10 
REMARK    5  A    between atoms: C_23  and  O_18 
ROOT
ATOM      1  C   UNL d   1     -40.299  14.920  19.413  0.00  0.00     0.081 A 
ATOM      2  C   UNL d   1     -40.373  14.733  18.613  0.00  0.00     0.069 A 
ATOM      3  C   UNL d   1     -39.515  15.181  19.540  0.00  0.00     0.027 A 
ATOM      4  N   UNL d   1     -39.653  14.872  18.243  0.00  0.00    -0.304 N 
ATOM      5  C   UNL d   1     -39.116  15.151  18.818  0.00  0.00     0.065 A 
ATOM      6  C   UNL d   1     -39.131  15.435  20.213  0.00  0.00     0.058 A 
ATOM      7  C   UNL d   1     -38.332  15.375  18.766  0.00  0.00     0.021 A 
ATOM      8  C   UNL d   1     -38.340  15.662  20.169  0.00  0.00     0.197 A 
ATOM      9  C   UNL d   1     -37.939  15.632  19.443  0.00  0.00     0.044 A 
ATOM     10  C   UNL d   1     -41.068  14.450  18.251  0.00  0.00     0.019 C 
ATOM     11  C   UNL d   1     -39.484  14.757  17.441  0.00  0.00     0.099 C 
ATOM     12  O   UNL d   1     -37.942  15.922  20.850  0.00  0.00    -0.286 OA
ENDROOT
BRANCH   6  13
ATOM     13  C   UNL d   1     -39.532  15.463  20.933  0.00  0.00     0.083 C 
BRANCH  13  14
ATOM     14  N   UNL d   1     -39.170  15.168  21.615  0.00  0.00    -0.302 N 
ATOM     15  C   UNL d   1     -39.084  15.649  22.275  0.00  0.00     0.080 A 
ATOM     16  C   UNL d   1     -38.720  15.351  22.959  0.00  0.00     0.019 A 
ATOM     17  C   UNL d   1     -38.446  14.575  22.977  0.00  0.00     0.003 A 
ATOM     18  C   UNL d   1     -38.532  14.091  22.314  0.00  0.00     0.019 A 
ATOM     19  C   UNL d   1     -38.085  14.283  23.657  0.00  0.00     0.000 C 
ATOM     20  C   UNL d   1     -38.897  14.390  21.630  0.00  0.00     0.080 A 
ENDBRANCH  13  14
ENDBRANCH   6  13
BRANCH   1  21
ATOM     21  C   UNL d   1     -40.887  14.863  19.991  0.00  0.00     0.302 C 
ATOM     22  O   UNL d   1     -41.253  15.549  20.280  0.00  0.00    -0.259 OA
BRANCH  21  23
ATOM     23  O   UNL d   1     -41.103  14.122  20.275  0.00  0.00    -0.271 OA
BRANCH  23  24
ATOM     24  C   UNL d   1     -41.824  14.027  20.671  0.00  0.00     0.126 C 
ATOM     25  C   UNL d   1     -42.082  13.275  20.882  0.00  0.00     0.029 C 
ENDBRANCH  23  24
ENDBRANCH  21  23
ENDBRANCH   1  21
TORSDOF 5
ENDMDL
