MODEL 1
REMARK VINA RESULT:       1.0      0.000      0.000
REMARK  6 active torsions:
REMARK  status: ('A' for Active; 'I' for Inactive)
REMARK    1  A    between atoms: C_3  and  S_1 
REMARK    2  A    between atoms: N_4  and  S_1 
REMARK    3  A    between atoms: S_2  and  C_7 
REMARK    4  A    between atoms: C_8  and  S_2 
REMARK    5  A    between atoms: C_6  and  C_9 
REMARK       I    between atoms: N_10  and  C_6 
REMARK    6  A    between atoms: C_17  and  N_10 
ROOT
ATOM      1  C   UNL d   1      28.585  16.053 -23.542  0.00  0.00     0.115 A 
ATOM      2  C   UNL d   1      29.297  16.263 -23.910  0.00  0.00     0.019 A 
ATOM      3  C   UNL d   1      30.005  16.071 -23.537  0.00  0.00     0.059 A 
ATOM      4  C   UNL d   1      28.588  15.666 -22.829  0.00  0.00     0.070 A 
ATOM      5  C   UNL d   1      30.008  15.684 -22.823  0.00  0.00     0.006 A 
ATOM      6  C   UNL d   1      29.302  15.477 -22.461  0.00  0.00     0.012 A 
ATOM      7 CL   UNL d   1      27.864  15.458 -22.467  0.00  0.00    -0.082 Cl
ENDROOT
BRANCH   3   8
ATOM      8  C   UNL d   1      30.735  16.273 -23.888  0.00  0.00     0.279 C 
ATOM      9  N   UNL d   1      31.051  17.026 -23.790  0.00  0.00    -0.208 NA
ATOM     10  O   UNL d   1      31.145  15.715 -24.338  0.00  0.00    -0.265 OA
BRANCH   9  11
ATOM     11  C   UNL d   1      31.772  17.219 -24.140  0.00  0.00     0.085 A 
ATOM     12  C   UNL d   1      32.098  17.981 -24.030  0.00  0.00     0.031 A 
ATOM     13  C   UNL d   1      32.828  18.183 -24.381  0.00  0.00     0.094 A 
ATOM     14  C   UNL d   1      33.241  17.617 -24.850  0.00  0.00     0.012 A 
ATOM     15  C   UNL d   1      32.914  16.855 -24.959  0.00  0.00     0.002 A 
ATOM     16  C   UNL d   1      32.185  16.655 -24.608  0.00  0.00     0.019 A 
BRANCH  13  17
ATOM     17  S   UNL d   1      33.034  18.947 -24.200  0.00  0.00     0.262 S 
ATOM     18  O   UNL d   1      33.239  19.715 -24.004  0.00  0.00    -0.213 OA
ATOM     19  O   UNL d   1      33.192  19.112 -24.977  0.00  0.00    -0.213 OA
BRANCH  17  20
ATOM     20  C   UNL d   1      32.877  18.792 -23.408  0.00  0.00     0.364 C 
ATOM     21  F   UNL d   1      33.234  18.165 -23.039  0.00  0.00    -0.159 F 
ATOM     22  F   UNL d   1      32.362  19.269 -22.988  0.00  0.00    -0.159 F 
ENDBRANCH  17  20
ENDBRANCH  13  17
ENDBRANCH   9  11
ENDBRANCH   3   8
BRANCH   1  23
ATOM     23  S   UNL d   1      27.877  16.251 -23.925  0.00  0.00     0.272 S 
ATOM     24  O   UNL d   1      27.777  15.453 -24.146  0.00  0.00    -0.200 OA
ATOM     25  O   UNL d   1      27.173  16.424 -24.311  0.00  0.00    -0.200 OA
BRANCH  23  26
ATOM     26  N   UNL d   1      27.960  17.036 -23.717  0.00  0.00    -0.225 N 
ATOM     27  C   UNL d   1      27.665  17.311 -23.004  0.00  0.00     0.118 A 
ATOM     28  C   UNL d   1      27.751  18.100 -22.800  0.00  0.00     0.142 A 
ATOM     29  O   UNL d   1      28.128  18.616 -23.301  0.00  0.00    -0.300 OA
ATOM     30  C   UNL d   1      28.432  18.348 -24.030  0.00  0.00     0.142 A 
ATOM     31  C   UNL d   1      28.343  17.560 -24.226  0.00  0.00     0.118 A 
ENDBRANCH  23  26
ENDBRANCH   1  23
TORSDOF 6
ENDMDL
MODEL 2
REMARK VINA RESULT:       2.4      3.698      5.773
REMARK  6 active torsions:
REMARK  status: ('A' for Active; 'I' for Inactive)
REMARK    1  A    between atoms: C_3  and  S_1 
REMARK    2  A    between atoms: N_4  and  S_1 
REMARK    3  A    between atoms: S_2  and  C_7 
REMARK    4  A    between atoms: C_8  and  S_2 
REMARK    5  A    between atoms: C_6  and  C_9 
REMARK       I    between atoms: N_10  and  C_6 
REMARK    6  A    between atoms: C_17  and  N_10 
ROOT
ATOM      1  C   UNL d   1      32.247  22.237 -21.605  0.00  0.00     0.115 A 
ATOM      2  C   UNL d   1      32.259  21.492 -21.967  0.00  0.00     0.019 A 
ATOM      3  C   UNL d   1      32.755  21.374 -22.612  0.00  0.00     0.059 A 
ATOM      4  C   UNL d   1      32.717  22.838 -21.882  0.00  0.00     0.070 A 
ATOM      5  C   UNL d   1      33.226  21.975 -22.889  0.00  0.00     0.006 A 
ATOM      6  C   UNL d   1      33.213  22.712 -22.530  0.00  0.00     0.012 A 
ATOM      7 CL   UNL d   1      32.698  23.586 -21.510  0.00  0.00    -0.082 Cl
ENDROOT
BRANCH   3   8
ATOM      8  C   UNL d   1      32.784  20.632 -22.993  0.00  0.00     0.279 C 
ATOM      9  N   UNL d   1      32.380  20.510 -23.698  0.00  0.00    -0.208 NA
ATOM     10  O   UNL d   1      33.219  20.014 -22.661  0.00  0.00    -0.265 OA
BRANCH   9  11
ATOM     11  C   UNL d   1      32.411  19.775 -24.070  0.00  0.00     0.085 A 
ATOM     12  C   UNL d   1      31.896  19.162 -23.829  0.00  0.00     0.031 A 
ATOM     13  C   UNL d   1      31.924  18.416 -24.202  0.00  0.00     0.094 A 
ATOM     14  C   UNL d   1      32.473  18.276 -24.825  0.00  0.00     0.012 A 
ATOM     15  C   UNL d   1      32.988  18.889 -25.066  0.00  0.00     0.002 A 
ATOM     16  C   UNL d   1      32.960  19.635 -24.693  0.00  0.00     0.019 A 
BRANCH  13  17
ATOM     17  S   UNL d   1      31.376  17.911 -23.877  0.00  0.00     0.262 S 
ATOM     18  O   UNL d   1      30.831  17.393 -23.555  0.00  0.00    -0.213 OA
ATOM     19  O   UNL d   1      30.940  18.532 -23.593  0.00  0.00    -0.213 OA
BRANCH  17  20
ATOM     20  C   UNL d   1      31.809  17.273 -24.161  0.00  0.00     0.364 C 
ATOM     21  F   UNL d   1      31.634  16.953 -24.884  0.00  0.00    -0.159 F 
ATOM     22  F   UNL d   1      32.418  16.957 -23.714  0.00  0.00    -0.159 F 
ENDBRANCH  17  20
ENDBRANCH  13  17
ENDBRANCH   9  11
ENDBRANCH   3   8
BRANCH   1  23
ATOM     23  S   UNL d   1      31.743  22.346 -20.956  0.00  0.00     0.272 S 
ATOM     24  O   UNL d   1      31.229  22.795 -21.434  0.00  0.00    -0.200 OA
ATOM     25  O   UNL d   1      31.229  22.467 -20.326  0.00  0.00    -0.200 OA
BRANCH  23  26
ATOM     26  N   UNL d   1      32.236  21.908 -20.473  0.00  0.00    -0.225 N 
ATOM     27  C   UNL d   1      32.617  22.260 -19.839  0.00  0.00     0.118 A 
ATOM     28  C   UNL d   1      33.111  21.817 -19.358  0.00  0.00     0.142 A 
ATOM     29  O   UNL d   1      33.227  21.027 -19.505  0.00  0.00    -0.300 OA
ATOM     30  C   UNL d   1      32.845  20.658 -20.147  0.00  0.00     0.142 A 
ATOM     31  C   UNL d   1      32.354  21.107 -20.623  0.00  0.00     0.118 A 
ENDBRANCH  23  26
ENDBRANCH   1  23
TORSDOF 6
ENDMDL
