MODEL 1
REMARK VINA RESULT:      53.0      0.000      0.000
REMARK  4 active torsions:
REMARK  status: ('A' for Active; 'I' for Inactive)
REMARK    1  A    between atoms: C_15  and  O_20 
REMARK    2  A    between atoms: C_16  and  O_21 
REMARK    3  A    between atoms: O_20  and  C_18 
REMARK    4  A    between atoms: O_21  and  C_19 
ROOT
ATOM      1  C   UNL d   1      13.744  13.934  -3.572  0.00  0.00     0.161 A 
ATOM      2  O   UNL d   1      13.456  14.193  -4.226  0.00  0.00    -0.291 OA
ATOM      3  C   UNL d   1      14.025  14.712  -3.520  0.00  0.00     0.033 A 
ATOM      4  C   UNL d   1      13.913  13.397  -2.970  0.00  0.00     0.033 A 
ATOM      5  C   UNL d   1      13.512  13.115  -3.513  0.00  0.00     0.016 A 
ATOM      6  C   UNL d   1      13.142  13.718  -4.508  0.00  0.00     0.296 A 
ATOM      7  C   UNL d   1      14.476  14.948  -2.863  0.00  0.00     0.101 A 
ATOM      8  C   UNL d   1      14.363  13.633  -2.312  0.00  0.00     0.101 A 
ATOM      9  O   UNL d   1      14.644  14.407  -2.259  0.00  0.00    -0.307 OA
ATOM     10  C   UNL d   1      13.151  13.131  -4.159  0.00  0.00     0.062 A 
ATOM     11  C   UNL d   1      14.532  13.093  -1.709  0.00  0.00     0.049 A 
ATOM     12  C   UNL d   1      14.756  15.718  -2.808  0.00  0.00     0.049 A 
ATOM     13  C   UNL d   1      13.856  15.245  -4.121  0.00  0.00     0.003 A 
ATOM     14  C   UNL d   1      13.632  12.620  -3.022  0.00  0.00     0.003 A 
ATOM     15  O   UNL d   1      12.848  13.860  -5.106  0.00  0.00    -0.259 OA
ATOM     16  C   UNL d   1      14.250  12.315  -1.761  0.00  0.00     0.105 A 
ATOM     17  C   UNL d   1      14.588  16.260  -3.412  0.00  0.00     0.105 A 
ATOM     18  C   UNL d   1      14.137  16.023  -4.069  0.00  0.00     0.025 A 
ATOM     19  C   UNL d   1      13.800  12.079  -2.418  0.00  0.00     0.025 A 
ATOM     20  C   UNL d   1      13.548  12.446  -3.070  0.00  0.00    -0.001 A 
ATOM     21  C   UNL d   1      12.769  12.493  -4.467  0.00  0.00     0.005 A 
ATOM     22  C   UNL d   1      13.181  11.779  -3.335  0.00  0.00    -0.000 A 
ATOM     23  C   UNL d   1      12.792  11.807  -4.036  0.00  0.00     0.000 A 
ENDROOT
BRANCH  17  24
ATOM     24  O   UNL d   1      14.784  16.779  -3.362  0.00  0.00    -0.273 OA
BRANCH  24  25
ATOM     25  C   UNL d   1      15.320  17.018  -3.604  0.00  0.00     0.300 C 
ATOM     26  O   UNL d   1      15.736  16.870  -3.240  0.00  0.00    -0.259 OA
ATOM     27  C   UNL d   1      15.391  17.388  -4.193  0.00  0.00     0.074 C 
ENDBRANCH  24  25
ENDBRANCH  17  24
BRANCH  16  28
ATOM     28  O   UNL d   1      14.371  11.953  -1.342  0.00  0.00    -0.273 OA
BRANCH  28  29
ATOM     29  C   UNL d   1      14.362  11.860  -0.805  0.00  0.00     0.300 C 
ATOM     30  O   UNL d   1      14.970  11.795  -0.658  0.00  0.00    -0.259 OA
ATOM     31  C   UNL d   1      13.856  11.826  -0.419  0.00  0.00     0.074 C 
ENDBRANCH  28  29
ENDBRANCH  16  28
TORSDOF 4
ENDMDL
MODEL 2
REMARK VINA RESULT:      55.1      1.162      2.695
REMARK  4 active torsions:
REMARK  status: ('A' for Active; 'I' for Inactive)
REMARK    1  A    between atoms: C_15  and  O_20 
REMARK    2  A    between atoms: C_16  and  O_21 
REMARK    3  A    between atoms: O_20  and  C_18 
REMARK    4  A    between atoms: O_21  and  C_19 
ROOT
ATOM      1  C   UNL d   1      14.679  13.991  -1.622  0.00  0.00     0.161 A 
ATOM      2  O   UNL d   1      15.042  14.204  -0.990  0.00  0.00    -0.291 OA
ATOM      3  C   UNL d   1      14.782  14.790  -1.815  0.00  0.00     0.033 A 
ATOM      4  C   UNL d   1      14.294  13.489  -2.152  0.00  0.00     0.033 A 
ATOM      5  C   UNL d   1      14.514  13.158  -1.538  0.00  0.00     0.016 A 
ATOM      6  C   UNL d   1      15.101  13.695  -0.612  0.00  0.00     0.296 A 
ATOM      7  C   UNL d   1      14.500  15.084  -2.539  0.00  0.00     0.101 A 
ATOM      8  C   UNL d   1      14.012  13.783  -2.876  0.00  0.00     0.101 A 
ATOM      9  O   UNL d   1      14.114  14.578  -3.070  0.00  0.00    -0.307 OA
ATOM     10  C   UNL d   1      14.833  13.123  -0.871  0.00  0.00     0.062 A 
ATOM     11  C   UNL d   1      13.626  13.278  -3.407  0.00  0.00     0.049 A 
ATOM     12  C   UNL d   1      14.601  15.876  -2.733  0.00  0.00     0.049 A 
ATOM     13  C   UNL d   1      15.165  15.288  -1.285  0.00  0.00     0.003 A 
ATOM     14  C   UNL d   1      14.191  12.691  -1.960  0.00  0.00     0.003 A 
ATOM     15  O   UNL d   1      15.417  13.794  -0.018  0.00  0.00    -0.259 OA
ATOM     16  C   UNL d   1      13.523  12.479  -3.215  0.00  0.00     0.105 A 
ATOM     17  C   UNL d   1      14.987  16.381  -2.202  0.00  0.00     0.105 A 
ATOM     18  C   UNL d   1      15.269  16.087  -1.478  0.00  0.00     0.025 A 
ATOM     19  C   UNL d   1      13.805  12.185  -2.491  0.00  0.00     0.025 A 
ATOM     20  C   UNL d   1      14.185  12.509  -1.880  0.00  0.00    -0.001 A 
ATOM     21  C   UNL d   1      14.877  12.446  -0.438  0.00  0.00     0.005 A 
ATOM     22  C   UNL d   1      14.205  11.806  -1.485  0.00  0.00    -0.000 A 
ATOM     23  C   UNL d   1      14.553  11.779  -0.763  0.00  0.00     0.000 A 
ENDROOT
BRANCH  17  24
ATOM     24  O   UNL d   1      15.048  16.916  -2.346  0.00  0.00    -0.273 OA
BRANCH  24  25
ATOM     25  C   UNL d   1      15.205  17.405  -1.973  0.00  0.00     0.300 C 
ATOM     26  O   UNL d   1      15.527  17.750  -2.294  0.00  0.00    -0.259 OA
ATOM     27  C   UNL d   1      15.022  17.505  -1.305  0.00  0.00     0.074 C 
ENDBRANCH  24  25
ENDBRANCH  17  24
BRANCH  16  28
ATOM     28  O   UNL d   1      13.257  12.142  -3.585  0.00  0.00    -0.273 OA
BRANCH  28  29
ATOM     29  C   UNL d   1      13.271  11.909  -4.077  0.00  0.00     0.300 C 
ATOM     30  O   UNL d   1      13.880  11.779  -4.161  0.00  0.00    -0.259 OA
ATOM     31  C   UNL d   1      12.784  11.795  -4.474  0.00  0.00     0.074 C 
ENDBRANCH  28  29
ENDBRANCH  16  28
TORSDOF 4
ENDMDL
