MODEL 1
REMARK VINA RESULT:      -8.9      0.000      0.000
REMARK  2 active torsions:
REMARK  status: ('A' for Active; 'I' for Inactive)
REMARK    1  A    between atoms: C_6  and  C_1 
REMARK    2  A    between atoms: C_11  and  C_6 
ROOT
ATOM      1  C   UNL d   1      53.643  32.444  53.639  0.00  0.00     0.059 A 
ATOM      2  C   UNL d   1      53.086  32.863  53.202  0.00  0.00     0.085 A 
ATOM      3  N   UNL d   1      52.569  32.342  52.814  0.00  0.00    -0.245 NA
ATOM      4  C   UNL d   1      53.477  31.631  53.525  0.00  0.00     0.022 A 
ATOM      5  C   UNL d   1      52.819  31.563  53.021  0.00  0.00     0.082 A 
ATOM      6  C   UNL d   1      53.087  33.683  53.188  0.00  0.00     0.021 C 
ATOM      7  C   UNL d   1      53.841  30.953  53.818  0.00  0.00     0.002 A 
ATOM      8  C   UNL d   1      52.527  30.818  52.810  0.00  0.00     0.019 A 
ATOM      9  C   UNL d   1      53.535  30.206  53.596  0.00  0.00     0.000 A 
ATOM     10  C   UNL d   1      52.902  30.148  53.110  0.00  0.00     0.002 A 
ENDROOT
BRANCH   1  11
ATOM     11  C   UNL d   1      54.250  32.772  54.099  0.00  0.00     0.208 C 
ATOM     12  O   UNL d   1      54.995  32.904  53.785  0.00  0.00    -0.286 OA
BRANCH  11  13
ATOM     13  C   UNL d   1      54.103  32.965  54.874  0.00  0.00     0.110 C 
ATOM     14 CL   UNL d   1      54.705  33.251  55.329  0.00  0.00    -0.078 Cl
ENDBRANCH  11  13
ENDBRANCH   1  11
TORSDOF 2
ENDMDL
MODEL 2
REMARK VINA RESULT:      -8.7      0.760      2.273
REMARK  2 active torsions:
REMARK  status: ('A' for Active; 'I' for Inactive)
REMARK    1  A    between atoms: C_6  and  C_1 
REMARK    2  A    between atoms: C_11  and  C_6 
ROOT
ATOM      1  C   UNL d   1      53.476  32.827  53.663  0.00  0.00     0.059 A 
ATOM      2  C   UNL d   1      53.182  32.103  53.407  0.00  0.00     0.085 A 
ATOM      3  N   UNL d   1      52.480  32.210  52.978  0.00  0.00    -0.245 NA
ATOM      4  C   UNL d   1      52.946  33.413  53.389  0.00  0.00     0.022 A 
ATOM      5  C   UNL d   1      52.333  33.041  52.968  0.00  0.00     0.082 A 
ATOM      6  C   UNL d   1      53.570  31.402  53.581  0.00  0.00     0.021 C 
ATOM      7  C   UNL d   1      52.948  34.233  53.471  0.00  0.00     0.002 A 
ATOM      8  C   UNL d   1      51.724  33.487  52.630  0.00  0.00     0.019 A 
ATOM      9  C   UNL d   1      52.325  34.672  53.125  0.00  0.00     0.000 A 
ATOM     10  C   UNL d   1      51.739  34.307  52.721  0.00  0.00     0.002 A 
ENDROOT
BRANCH   1  11
ATOM     11  C   UNL d   1      54.167  32.944  54.108  0.00  0.00     0.208 C 
ATOM     12  O   UNL d   1      54.896  33.025  53.744  0.00  0.00    -0.286 OA
BRANCH  11  13
ATOM     13  C   UNL d   1      54.119  32.978  54.918  0.00  0.00     0.110 C 
ATOM     14 CL   UNL d   1      54.769  33.201  55.341  0.00  0.00    -0.078 Cl
ENDBRANCH  11  13
ENDBRANCH   1  11
TORSDOF 2
ENDMDL
MODEL 3
REMARK VINA RESULT:      -8.3      1.616      2.974
REMARK  2 active torsions:
REMARK  status: ('A' for Active; 'I' for Inactive)
REMARK    1  A    between atoms: C_6  and  C_1 
REMARK    2  A    between atoms: C_11  and  C_6 
ROOT
ATOM      1  C   UNL d   1      53.883  33.327  54.198  0.00  0.00     0.059 A 
ATOM      2  C   UNL d   1      54.194  33.694  54.865  0.00  0.00     0.085 A 
ATOM      3  N   UNL d   1      53.838  34.435  54.983  0.00  0.00    -0.245 NA
ATOM      4  C   UNL d   1      53.311  33.849  53.881  0.00  0.00     0.022 A 
ATOM      5  C   UNL d   1      53.279  34.529  54.358  0.00  0.00     0.082 A 
ATOM      6  C   UNL d   1      54.776  33.332  55.316  0.00  0.00     0.021 C 
ATOM      7  C   UNL d   1      52.820  33.786  53.222  0.00  0.00     0.002 A 
ATOM      8  C   UNL d   1      52.758  35.146  54.176  0.00  0.00     0.019 A 
ATOM      9  C   UNL d   1      52.298  34.417  53.050  0.00  0.00     0.000 A 
ATOM     10  C   UNL d   1      52.273  35.069  53.513  0.00  0.00     0.002 A 
ENDROOT
BRANCH   1  11
ATOM     11  C   UNL d   1      54.100  32.582  53.904  0.00  0.00     0.208 C 
ATOM     12  O   UNL d   1      54.720  32.501  53.374  0.00  0.00    -0.286 OA
BRANCH  11  13
ATOM     13  C   UNL d   1      53.693  31.923  54.146  0.00  0.00     0.110 C 
ATOM     14 CL   UNL d   1      53.841  31.216  53.788  0.00  0.00    -0.078 Cl
ENDBRANCH  11  13
ENDBRANCH   1  11
TORSDOF 2
ENDMDL
MODEL 4
REMARK VINA RESULT:      -8.3      1.634      2.701
REMARK  2 active torsions:
REMARK  status: ('A' for Active; 'I' for Inactive)
REMARK    1  A    between atoms: C_6  and  C_1 
REMARK    2  A    between atoms: C_11  and  C_6 
ROOT
ATOM      1  C   UNL d   1      52.842  32.760  53.522  0.00  0.00     0.059 A 
ATOM      2  C   UNL d   1      52.236  33.307  53.627  0.00  0.00     0.085 A 
ATOM      3  N   UNL d   1      52.470  33.902  54.156  0.00  0.00    -0.245 NA
ATOM      4  C   UNL d   1      53.482  33.015  53.998  0.00  0.00     0.022 A 
ATOM      5  C   UNL d   1      53.259  33.715  54.389  0.00  0.00     0.082 A 
ATOM      6  C   UNL d   1      51.519  33.225  53.238  0.00  0.00     0.021 C 
ATOM      7  C   UNL d   1      54.232  32.697  54.121  0.00  0.00     0.002 A 
ATOM      8  C   UNL d   1      53.786  34.096  54.901  0.00  0.00     0.019 A 
ATOM      9  C   UNL d   1      54.754  33.092  54.642  0.00  0.00     0.000 A 
ATOM     10  C   UNL d   1      54.533  33.766  55.015  0.00  0.00     0.002 A 
ENDROOT
BRANCH   1  11
ATOM     11  C   UNL d   1      52.815  32.088  53.036  0.00  0.00     0.208 C 
ATOM     12  O   UNL d   1      52.983  32.139  52.236  0.00  0.00    -0.286 OA
BRANCH  11  13
ATOM     13  C   UNL d   1      52.620  31.370  53.359  0.00  0.00     0.110 C 
ATOM     14 CL   UNL d   1      52.663  30.708  52.899  0.00  0.00    -0.078 Cl
ENDBRANCH  11  13
ENDBRANCH   1  11
TORSDOF 2
ENDMDL
MODEL 5
REMARK VINA RESULT:      -8.3      1.875      2.971
REMARK  2 active torsions:
REMARK  status: ('A' for Active; 'I' for Inactive)
REMARK    1  A    between atoms: C_6  and  C_1 
REMARK    2  A    between atoms: C_11  and  C_6 
ROOT
ATOM      1  C   UNL d   1      52.721  32.958  53.524  0.00  0.00     0.059 A 
ATOM      2  C   UNL d   1      52.995  32.208  53.326  0.00  0.00     0.085 A 
ATOM      3  N   UNL d   1      53.701  32.041  53.728  0.00  0.00    -0.245 NA
ATOM      4  C   UNL d   1      53.269  33.279  54.069  0.00  0.00     0.022 A 
ATOM      5  C   UNL d   1      53.872  32.721  54.198  0.00  0.00     0.082 A 
ATOM      6  C   UNL d   1      52.586  31.733  52.797  0.00  0.00     0.021 C 
ATOM      7  C   UNL d   1      53.290  34.004  54.459  0.00  0.00     0.002 A 
ATOM      8  C   UNL d   1      54.495  32.888  54.716  0.00  0.00     0.019 A 
ATOM      9  C   UNL d   1      53.926  34.160  54.980  0.00  0.00     0.000 A 
ATOM     10  C   UNL d   1      54.503  33.619  55.099  0.00  0.00     0.002 A 
ENDROOT
BRANCH   1  11
ATOM     11  C   UNL d   1      52.032  33.319  53.233  0.00  0.00     0.208 C 
ATOM     12  O   UNL d   1      51.315  33.234  53.620  0.00  0.00    -0.286 OA
BRANCH  11  13
ATOM     13  C   UNL d   1      52.070  33.762  52.554  0.00  0.00     0.110 C 
ATOM     14 CL   UNL d   1      51.410  34.153  52.303  0.00  0.00    -0.078 Cl
ENDBRANCH  11  13
ENDBRANCH   1  11
TORSDOF 2
ENDMDL
MODEL 6
REMARK VINA RESULT:      -8.2      2.148      2.907
REMARK  2 active torsions:
REMARK  status: ('A' for Active; 'I' for Inactive)
REMARK    1  A    between atoms: C_6  and  C_1 
REMARK    2  A    between atoms: C_11  and  C_6 
ROOT
ATOM      1  C   UNL d   1      52.914  34.323  53.863  0.00  0.00     0.059 A 
ATOM      2  C   UNL d   1      53.119  34.869  54.442  0.00  0.00     0.085 A 
ATOM      3  N   UNL d   1      53.635  34.526  54.995  0.00  0.00    -0.245 NA
ATOM      4  C   UNL d   1      53.311  33.611  54.051  0.00  0.00     0.022 A 
ATOM      5  C   UNL d   1      53.754  33.730  54.744  0.00  0.00     0.082 A 
ATOM      6  C   UNL d   1      52.825  35.635  54.428  0.00  0.00     0.021 C 
ATOM      7  C   UNL d   1      53.321  32.876  53.678  0.00  0.00     0.002 A 
ATOM      8  C   UNL d   1      54.207  33.115  55.064  0.00  0.00     0.019 A 
ATOM      9  C   UNL d   1      53.783  32.263  54.012  0.00  0.00     0.000 A 
ATOM     10  C   UNL d   1      54.208  32.385  54.680  0.00  0.00     0.002 A 
ENDROOT
BRANCH   1  11
ATOM     11  C   UNL d   1      52.409  34.461  53.218  0.00  0.00     0.208 C 
ATOM     12  O   UNL d   1      52.695  34.774  52.517  0.00  0.00    -0.286 OA
BRANCH  11  13
ATOM     13  C   UNL d   1      51.620  34.284  53.285  0.00  0.00     0.110 C 
ATOM     14 CL   UNL d   1      51.143  34.365  52.639  0.00  0.00    -0.078 Cl
ENDBRANCH  11  13
ENDBRANCH   1  11
TORSDOF 2
ENDMDL
