MODEL 1
REMARK VINA RESULT:      32.2      0.000      0.000
REMARK  3 active torsions:
REMARK  status: ('A' for Active; 'I' for Inactive)
REMARK    1  A    between atoms: C_2  and  N_1 
REMARK    2  A    between atoms: O_14  and  C_5 
REMARK    3  A    between atoms: O_15  and  C_12 
ROOT
ATOM      1  C   UNL d   1     -56.077-100.617 -44.397  0.00  0.00     0.092 A 
ATOM      2  C   UNL d   1     -55.806 -99.849 -44.475  0.00  0.00     0.112 A 
ATOM      3  C   UNL d   1     -56.344 -99.223 -44.496  0.00  0.00     0.050 A 
ATOM      4  C   UNL d   1     -56.880-100.776 -44.337  0.00  0.00     0.022 A 
ATOM      5  C   UNL d   1     -57.152 -99.382 -44.437  0.00  0.00     0.096 A 
ATOM      6  C   UNL d   1     -57.418-100.160 -44.357  0.00  0.00     0.026 A 
ENDROOT
BRANCH   1   7
ATOM      7  N   UNL d   1     -55.537-101.246 -44.375  0.00  0.00    -0.240 N 
ATOM      8  C   UNL d   1     -55.216-101.643 -45.020  0.00  0.00     0.267 A 
ATOM      9  C   UNL d   1     -54.712-102.223 -44.746  0.00  0.00     0.066 A 
ATOM     10  O   UNL d   1     -55.380-101.480 -45.816  0.00  0.00    -0.267 OA
ATOM     11  C   UNL d   1     -54.712-102.194 -43.916  0.00  0.00     0.066 A 
ATOM     12  C   UNL d   1     -55.223-101.589 -43.687  0.00  0.00     0.267 A 
ATOM     13  O   UNL d   1     -55.400-101.353 -42.856  0.00  0.00    -0.267 OA
ENDBRANCH   1   7
BRANCH   2  14
ATOM     14  O   UNL d   1     -54.995 -99.689 -44.535  0.00  0.00    -0.327 OA
ATOM     15  C   UNL d   1     -54.724 -98.908 -44.559  0.00  0.00     0.181 C 
ENDBRANCH   2  14
BRANCH   5  16
ATOM     16  O   UNL d   1     -57.699 -98.755 -44.457  0.00  0.00    -0.328 OA
ATOM     17  C   UNL d   1     -58.381 -98.779 -43.990  0.00  0.00     0.181 C 
ENDBRANCH   5  16
TORSDOF 3
ENDMDL
