MODEL 1
REMARK VINA RESULT:      17.1      0.000      0.000
REMARK  6 active torsions:
REMARK  status: ('A' for Active; 'I' for Inactive)
REMARK       I    between atoms: N_2  and  C_1 
REMARK    1  A    between atoms: C_5  and  C_1 
REMARK    2  A    between atoms: C_3  and  N_2 
REMARK    3  A    between atoms: O_14  and  C_10 
REMARK    4  A    between atoms: C_18  and  O_14 
REMARK    5  A    between atoms: C_19  and  C_18 
REMARK    6  A    between atoms: C_20  and  C_19 
ROOT
ATOM      1  C   UNL d   1      46.226 -19.023  44.214  0.00  0.00     0.058 A 
ATOM      2  C   UNL d   1      45.723 -18.757  44.812  0.00  0.00     0.007 A 
ATOM      3  C   UNL d   1      46.644 -18.489  43.771  0.00  0.00     0.007 A 
ATOM      4  C   UNL d   1      46.065 -17.401  44.518  0.00  0.00     0.100 A 
ATOM      5  C   UNL d   1      45.651 -17.950  44.955  0.00  0.00     0.025 A 
ATOM      6  C   UNL d   1      46.578 -17.692  43.906  0.00  0.00     0.025 A 
ENDROOT
BRANCH   1   7
ATOM      7  C   UNL d   1      46.285 -19.845  44.085  0.00  0.00     0.281 C 
ATOM      8  N   UNL d   1      46.071 -20.182  43.365  0.00  0.00    -0.189 NA
ATOM      9  O   UNL d   1      46.563 -20.325  44.690  0.00  0.00    -0.265 OA
BRANCH   8  10
ATOM     10  C   UNL d   1      45.785 -19.689  42.744  0.00  0.00     0.166 A 
ATOM     11  N   UNL d   1      46.352 -19.365  42.229  0.00  0.00    -0.227 NA
ATOM     12  C   UNL d   1      46.108 -18.891  41.627  0.00  0.00     0.083 A 
ATOM     13  C   UNL d   1      46.642 -18.519  41.052  0.00  0.00     0.021 C 
ATOM     14  C   UNL d   1      45.285 -18.737  41.537  0.00  0.00     0.019 A 
ATOM     15  C   UNL d   1      44.737 -19.072  42.064  0.00  0.00     0.005 A 
ATOM     16  C   UNL d   1      45.013 -19.541  42.655  0.00  0.00     0.039 A 
ENDBRANCH   8  10
ENDBRANCH   1   7
BRANCH   4  17
ATOM     17  O   UNL d   1      45.994 -16.587  44.659  0.00  0.00    -0.305 OA
BRANCH  17  18
ATOM     18  C   UNL d   1      45.324 -16.169  44.429  0.00  0.00     0.123 C 
BRANCH  18  19
ATOM     19  C   UNL d   1      45.398 -15.382  44.199  0.00  0.00     0.027 C 
BRANCH  19  20
ATOM     20  C   UNL d   1      45.248 -14.788  44.772  0.00  0.00     0.002 C 
ATOM     21  C   UNL d   1      44.954 -14.051  44.540  0.00  0.00     0.000 C 
ENDBRANCH  19  20
ENDBRANCH  18  19
ENDBRANCH  17  18
ENDBRANCH   4  17
TORSDOF 6
ENDMDL
MODEL 2
REMARK VINA RESULT:      18.4      1.210      2.145
REMARK  6 active torsions:
REMARK  status: ('A' for Active; 'I' for Inactive)
REMARK       I    between atoms: N_2  and  C_1 
REMARK    1  A    between atoms: C_5  and  C_1 
REMARK    2  A    between atoms: C_3  and  N_2 
REMARK    3  A    between atoms: O_14  and  C_10 
REMARK    4  A    between atoms: C_18  and  O_14 
REMARK    5  A    between atoms: C_19  and  C_18 
REMARK    6  A    between atoms: C_20  and  C_19 
ROOT
ATOM      1  C   UNL d   1      45.997 -18.165  42.856  0.00  0.00     0.058 A 
ATOM      2  C   UNL d   1      46.644 -17.825  43.239  0.00  0.00     0.007 A 
ATOM      3  C   UNL d   1      45.245 -17.940  43.055  0.00  0.00     0.007 A 
ATOM      4  C   UNL d   1      45.770 -17.023  44.036  0.00  0.00     0.100 A 
ATOM      5  C   UNL d   1      46.520 -17.260  43.824  0.00  0.00     0.025 A 
ATOM      6  C   UNL d   1      45.115 -17.382  43.631  0.00  0.00     0.025 A 
ENDROOT
BRANCH   1   7
ATOM      7  C   UNL d   1      46.143 -18.737  42.266  0.00  0.00     0.281 C 
ATOM      8  N   UNL d   1      46.158 -19.540  42.444  0.00  0.00    -0.189 NA
ATOM      9  O   UNL d   1      46.275 -18.490  41.494  0.00  0.00    -0.265 OA
BRANCH   8  10
ATOM     10  C   UNL d   1      46.023 -19.793  43.235  0.00  0.00     0.166 A 
ATOM     11  N   UNL d   1      45.233 -19.927  43.459  0.00  0.00    -0.227 NA
ATOM     12  C   UNL d   1      45.075 -20.170  44.209  0.00  0.00     0.083 A 
ATOM     13  C   UNL d   1      44.276 -20.328  44.511  0.00  0.00     0.021 C 
ATOM     14  C   UNL d   1      45.714 -20.280  44.746  0.00  0.00     0.019 A 
ATOM     15  C   UNL d   1      46.494 -20.140  44.500  0.00  0.00     0.005 A 
ATOM     16  C   UNL d   1      46.619 -19.899  43.744  0.00  0.00     0.039 A 
ENDBRANCH   8  10
ENDBRANCH   1   7
BRANCH   4  17
ATOM     17  O   UNL d   1      45.642 -16.453  44.624  0.00  0.00    -0.305 OA
BRANCH  17  18
ATOM     18  C   UNL d   1      45.811 -15.657  44.495  0.00  0.00     0.123 C 
BRANCH  18  19
ATOM     19  C   UNL d   1      45.292 -15.084  44.776  0.00  0.00     0.027 C 
BRANCH  19  20
ATOM     20  C   UNL d   1      45.575 -14.297  44.847  0.00  0.00     0.002 C 
ATOM     21  C   UNL d   1      45.341 -13.720  44.303  0.00  0.00     0.000 C 
ENDBRANCH  19  20
ENDBRANCH  18  19
ENDBRANCH  17  18
ENDBRANCH   4  17
TORSDOF 6
ENDMDL
