MODEL 1
REMARK VINA RESULT:      -4.8      0.000      0.000
REMARK  4 active torsions:
REMARK  status: ('A' for Active; 'I' for Inactive)
REMARK    1  A    between atoms: S_6  and  C_2 
REMARK    2  A    between atoms: C_8  and  C_3 
REMARK    3  A    between atoms: C_10  and  S_6 
REMARK    4  A    between atoms: C_7  and  C_10 
ROOT
ATOM      1  N   UNL d   1     -41.532-122.507 -52.484  0.00  0.00    -0.282 N 
ATOM      2  C   UNL d   1     -41.471-123.058 -51.871  0.00  0.00     0.180 A 
ATOM      3  C   UNL d   1     -41.614-122.919 -53.189  0.00  0.00     0.085 A 
ATOM      4  N   UNL d   1     -41.517-123.817 -52.202  0.00  0.00    -0.219 NA
ATOM      5  C   UNL d   1     -41.606-123.725 -53.023  0.00  0.00     0.119 A 
ATOM      6  C   UNL d   1     -41.511-121.664 -52.390  0.00  0.00     0.101 C 
ENDROOT
BRANCH   3   7
ATOM      7  C   UNL d   1     -41.694-122.614 -53.951  0.00  0.00     0.018 A 
ATOM      8  C   UNL d   1     -41.127-122.795 -54.519  0.00  0.00     0.002 A 
ATOM      9  C   UNL d   1     -41.205-122.491 -55.285  0.00  0.00     0.000 A 
ATOM     10  C   UNL d   1     -41.860-122.004 -55.469  0.00  0.00     0.000 A 
ATOM     11  C   UNL d   1     -42.413-121.832 -54.902  0.00  0.00     0.000 A 
ATOM     12  C   UNL d   1     -42.337-122.136 -54.132  0.00  0.00     0.002 A 
ENDBRANCH   3   7
BRANCH   2  13
ATOM     13  S   UNL d   1     -41.380-122.887 -51.058  0.00  0.00    -0.044 SA
BRANCH  13  14
ATOM     14  C   UNL d   1     -41.673-123.418 -50.491  0.00  0.00     0.102 C 
BRANCH  14  15
ATOM     15  C   UNL d   1     -41.768-123.173 -49.713  0.00  0.00     0.303 C 
ATOM     16  O   UNL d   1     -42.521-122.920 -49.456  0.00  0.00    -0.263 OA
ATOM     17  N   UNL d   1     -41.128-123.178 -49.198  0.00  0.00    -0.102 N 
ENDBRANCH  14  15
ENDBRANCH  13  14
ENDBRANCH   2  13
TORSDOF 4
ENDMDL
MODEL 2
REMARK VINA RESULT:      -4.6      1.678      4.146
REMARK  4 active torsions:
REMARK  status: ('A' for Active; 'I' for Inactive)
REMARK    1  A    between atoms: S_6  and  C_2 
REMARK    2  A    between atoms: C_8  and  C_3 
REMARK    3  A    between atoms: C_10  and  S_6 
REMARK    4  A    between atoms: C_7  and  C_10 
ROOT
ATOM      1  N   UNL d   1     -41.660-122.489 -51.702  0.00  0.00    -0.282 N 
ATOM      2  C   UNL d   1     -41.544-122.790 -52.462  0.00  0.00     0.180 A 
ATOM      3  C   UNL d   1     -41.687-123.121 -51.179  0.00  0.00     0.085 A 
ATOM      4  N   UNL d   1     -41.499-123.616 -52.409  0.00  0.00    -0.219 NA
ATOM      5  C   UNL d   1     -41.588-123.817 -51.607  0.00  0.00     0.119 A 
ATOM      6  C   UNL d   1     -41.737-121.668 -51.505  0.00  0.00     0.101 C 
ENDROOT
BRANCH   3   7
ATOM      7  C   UNL d   1     -41.792-123.103 -50.362  0.00  0.00     0.018 A 
ATOM      8  C   UNL d   1     -42.545-122.980 -50.055  0.00  0.00     0.002 A 
ATOM      9  C   UNL d   1     -42.654-122.962 -49.234  0.00  0.00     0.000 A 
ATOM     10  C   UNL d   1     -41.996-123.068 -48.731  0.00  0.00     0.000 A 
ATOM     11  C   UNL d   1     -41.258-123.189 -49.043  0.00  0.00     0.000 A 
ATOM     12  C   UNL d   1     -41.146-123.208 -49.866  0.00  0.00     0.002 A 
ENDBRANCH   3   7
BRANCH   2  13
ATOM     13  S   UNL d   1     -41.482-122.345 -53.167  0.00  0.00    -0.044 SA
BRANCH  13  14
ATOM     14  C   UNL d   1     -41.791-122.651 -53.875  0.00  0.00     0.102 C 
BRANCH  14  15
ATOM     15  C   UNL d   1     -41.858-122.167 -54.535  0.00  0.00     0.303 C 
ATOM     16  O   UNL d   1     -42.510-121.648 -54.593  0.00  0.00    -0.263 OA
ATOM     17  N   UNL d   1     -41.289-122.195 -55.126  0.00  0.00    -0.102 N 
ENDBRANCH  14  15
ENDBRANCH  13  14
ENDBRANCH   2  13
TORSDOF 4
ENDMDL
MODEL 3
REMARK VINA RESULT:      -3.9      1.693      4.572
REMARK  4 active torsions:
REMARK  status: ('A' for Active; 'I' for Inactive)
REMARK    1  A    between atoms: S_6  and  C_2 
REMARK    2  A    between atoms: C_8  and  C_3 
REMARK    3  A    between atoms: C_10  and  S_6 
REMARK    4  A    between atoms: C_7  and  C_10 
ROOT
ATOM      1  N   UNL d   1     -41.864-123.110 -50.746  0.00  0.00    -0.282 N 
ATOM      2  C   UNL d   1     -41.505-122.652 -51.333  0.00  0.00     0.180 A 
ATOM      3  C   UNL d   1     -41.707-122.760 -50.020  0.00  0.00     0.085 A 
ATOM      4  N   UNL d   1     -41.124-122.014 -50.965  0.00  0.00    -0.219 NA
ATOM      5  C   UNL d   1     -41.253-122.086 -50.147  0.00  0.00     0.119 A 
ATOM      6  C   UNL d   1     -42.313-123.816 -50.880  0.00  0.00     0.101 C 
ENDROOT
BRANCH   3   7
ATOM      7  C   UNL d   1     -41.946-123.010 -49.271  0.00  0.00     0.018 A 
ATOM      8  C   UNL d   1     -42.667-122.751 -48.971  0.00  0.00     0.002 A 
ATOM      9  C   UNL d   1     -42.910-123.000 -48.219  0.00  0.00     0.000 A 
ATOM     10  C   UNL d   1     -42.417-123.511 -47.778  0.00  0.00     0.000 A 
ATOM     11  C   UNL d   1     -41.709-123.761 -48.083  0.00  0.00     0.000 A 
ATOM     12  C   UNL d   1     -41.463-123.512 -48.837  0.00  0.00     0.002 A 
ENDBRANCH   3   7
BRANCH   2  13
ATOM     13  S   UNL d   1     -41.520-122.801 -52.155  0.00  0.00    -0.044 SA
BRANCH  13  14
ATOM     14  C   UNL d   1     -41.379-122.180 -52.688  0.00  0.00     0.102 C 
BRANCH  14  15
ATOM     15  C   UNL d   1     -41.486-122.300 -53.493  0.00  0.00     0.303 C 
ATOM     16  O   UNL d   1     -41.961-121.766 -53.924  0.00  0.00    -0.263 OA
ATOM     17  N   UNL d   1     -41.129-122.939 -53.866  0.00  0.00    -0.102 N 
ENDBRANCH  14  15
ENDBRANCH  13  14
ENDBRANCH   2  13
TORSDOF 4
ENDMDL
MODEL 4
REMARK VINA RESULT:      -3.8      1.474      2.311
REMARK  4 active torsions:
REMARK  status: ('A' for Active; 'I' for Inactive)
REMARK    1  A    between atoms: S_6  and  C_2 
REMARK    2  A    between atoms: C_8  and  C_3 
REMARK    3  A    between atoms: C_10  and  S_6 
REMARK    4  A    between atoms: C_7  and  C_10 
ROOT
ATOM      1  N   UNL d   1     -42.043-122.843 -50.517  0.00  0.00    -0.282 N 
ATOM      2  C   UNL d   1     -41.949-123.221 -49.788  0.00  0.00     0.180 A 
ATOM      3  C   UNL d   1     -41.535-123.199 -51.055  0.00  0.00     0.085 A 
ATOM      4  N   UNL d   1     -41.378-123.815 -49.877  0.00  0.00    -0.219 NA
ATOM      5  C   UNL d   1     -41.123-123.798 -50.667  0.00  0.00     0.119 A 
ATOM      6  C   UNL d   1     -42.574-122.201 -50.674  0.00  0.00     0.101 C 
ENDROOT
BRANCH   3   7
ATOM      7  C   UNL d   1     -41.426-123.018 -51.852  0.00  0.00     0.018 A 
ATOM      8  C   UNL d   1     -41.380-122.230 -52.083  0.00  0.00     0.002 A 
ATOM      9  C   UNL d   1     -41.271-122.044 -52.883  0.00  0.00     0.000 A 
ATOM     10  C   UNL d   1     -41.211-122.663 -53.442  0.00  0.00     0.000 A 
ATOM     11  C   UNL d   1     -41.258-123.435 -53.204  0.00  0.00     0.000 A 
ATOM     12  C   UNL d   1     -41.367-123.624 -52.402  0.00  0.00     0.002 A 
ENDBRANCH   3   7
BRANCH   2  13
ATOM     13  S   UNL d   1     -42.357-123.040 -49.081  0.00  0.00    -0.044 SA
BRANCH  13  14
ATOM     14  C   UNL d   1     -42.135-123.411 -48.372  0.00  0.00     0.102 C 
BRANCH  14  15
ATOM     15  C   UNL d   1     -42.573-123.284 -47.690  0.00  0.00     0.303 C 
ATOM     16  O   UNL d   1     -42.415-122.609 -47.225  0.00  0.00    -0.263 OA
ATOM     17  N   UNL d   1     -43.159-123.817 -47.471  0.00  0.00    -0.102 N 
ENDBRANCH  14  15
ENDBRANCH  13  14
ENDBRANCH   2  13
TORSDOF 4
ENDMDL
