MODEL 1
REMARK VINA RESULT:      -5.6      0.000      0.000
REMARK  5 active torsions:
REMARK  status: ('A' for Active; 'I' for Inactive)
REMARK    1  A    between atoms: N_10  and  C_2 
REMARK    2  A    between atoms: C_7  and  C_5 
REMARK    3  A    between atoms: C_6  and  C_9 
REMARK    4  A    between atoms: C_8  and  C_7 
REMARK       I    between atoms: N_11  and  C_8 
REMARK    5  A    between atoms: C_14  and  N_11 
ROOT
ATOM      1  C   UNL d   1      58.112   0.092  30.498  0.00  0.00     0.280 C 
ATOM      2  N   UNL d   1      57.323   0.155  30.724  0.00  0.00    -0.208 NA
ATOM      3  O   UNL d   1      58.694  -0.018  31.071  0.00  0.00    -0.265 OA
ENDROOT
BRANCH   1   4
ATOM      4  C   UNL d   1      58.321   0.138  29.704  0.00  0.00     0.074 C 
BRANCH   4   5
ATOM      5  C   UNL d   1      58.894  -0.367  29.394  0.00  0.00     0.093 A 
ATOM      6  C   UNL d   1      59.609  -0.134  29.055  0.00  0.00     0.272 A 
ATOM      7  N   UNL d   1      60.007  -0.811  28.821  0.00  0.00    -0.251 N 
ATOM      8  O   UNL d   1      59.875   0.641  28.967  0.00  0.00    -0.266 OA
ATOM      9  C   UNL d   1      59.540  -1.464  29.015  0.00  0.00     0.182 A 
ATOM     10  C   UNL d   1      60.748  -0.839  28.455  0.00  0.00     0.104 C 
ATOM     11  S   UNL d   1      58.853  -1.186  29.368  0.00  0.00    -0.045 SA
BRANCH   9  12
ATOM     12  N   UNL d   1      59.730  -2.254  28.878  0.00  0.00    -0.219 NA
ATOM     13  C   UNL d   1      59.147  -2.837  28.935  0.00  0.00     0.122 C 
ENDBRANCH   9  12
ENDBRANCH   4   5
ENDBRANCH   1   4
BRANCH   2  14
ATOM     14  C   UNL d   1      57.119   0.108  31.523  0.00  0.00     0.085 A 
ATOM     15  C   UNL d   1      56.639  -0.508  31.797  0.00  0.00     0.023 A 
ATOM     16  C   UNL d   1      56.438  -0.549  32.598  0.00  0.00     0.073 A 
ATOM     17  C   UNL d   1      56.716   0.021  33.120  0.00  0.00     0.004 A 
ATOM     18  C   UNL d   1      57.197   0.637  32.845  0.00  0.00     0.002 A 
ATOM     19  C   UNL d   1      57.398   0.682  32.050  0.00  0.00     0.019 A 
BRANCH  16  20
ATOM     20  C   UNL d   1      55.959  -1.164  32.872  0.00  0.00     0.419 C 
ATOM     21  F   UNL d   1      55.523  -1.722  33.121  0.00  0.00    -0.166 F 
ATOM     22  F   UNL d   1      56.183  -1.936  33.179  0.00  0.00    -0.166 F 
ATOM     23  F   UNL d   1      55.098  -1.202  32.926  0.00  0.00    -0.166 F 
ENDBRANCH  16  20
ENDBRANCH   2  14
TORSDOF 5
ENDMDL
MODEL 2
REMARK VINA RESULT:      -5.0      1.132      1.559
REMARK  5 active torsions:
REMARK  status: ('A' for Active; 'I' for Inactive)
REMARK    1  A    between atoms: N_10  and  C_2 
REMARK    2  A    between atoms: C_7  and  C_5 
REMARK    3  A    between atoms: C_6  and  C_9 
REMARK    4  A    between atoms: C_8  and  C_7 
REMARK       I    between atoms: N_11  and  C_8 
REMARK    5  A    between atoms: C_14  and  N_11 
ROOT
ATOM      1  C   UNL d   1      57.599   0.105  30.769  0.00  0.00     0.280 C 
ATOM      2  N   UNL d   1      57.216   0.681  31.215  0.00  0.00    -0.208 NA
ATOM      3  O   UNL d   1      57.793  -0.617  31.114  0.00  0.00    -0.265 OA
ENDROOT
BRANCH   1   4
ATOM      4  C   UNL d   1      57.788   0.248  29.981  0.00  0.00     0.074 C 
BRANCH   4   5
ATOM      5  C   UNL d   1      58.560   0.142  29.712  0.00  0.00     0.093 A 
ATOM      6  C   UNL d   1      58.796  -0.381  29.120  0.00  0.00     0.272 A 
ATOM      7  N   UNL d   1      59.607  -0.308  29.029  0.00  0.00    -0.251 N 
ATOM      8  O   UNL d   1      58.303  -0.889  28.696  0.00  0.00    -0.266 OA
ATOM      9  C   UNL d   1      59.874   0.261  29.564  0.00  0.00     0.182 A 
ATOM     10  C   UNL d   1      60.079  -0.728  28.496  0.00  0.00     0.104 C 
ATOM     11  S   UNL d   1      59.225   0.537  29.985  0.00  0.00    -0.045 SA
BRANCH   9  12
ATOM     12  N   UNL d   1      60.655   0.509  29.660  0.00  0.00    -0.219 NA
ATOM     13  C   UNL d   1      60.988   0.548  30.415  0.00  0.00     0.122 C 
ENDBRANCH   9  12
ENDBRANCH   4   5
ENDBRANCH   1   4
BRANCH   2  14
ATOM     14  C   UNL d   1      57.029   0.532  32.006  0.00  0.00     0.085 A 
ATOM     15  C   UNL d   1      56.284   0.235  32.211  0.00  0.00     0.023 A 
ATOM     16  C   UNL d   1      56.104   0.088  33.004  0.00  0.00     0.073 A 
ATOM     17  C   UNL d   1      56.663   0.237  33.586  0.00  0.00     0.004 A 
ATOM     18  C   UNL d   1      57.408   0.534  33.381  0.00  0.00     0.002 A 
ATOM     19  C   UNL d   1      57.592   0.682  32.593  0.00  0.00     0.019 A 
BRANCH  16  20
ATOM     20  C   UNL d   1      55.359  -0.209  33.209  0.00  0.00     0.419 C 
ATOM     21  F   UNL d   1      54.685  -0.478  33.395  0.00  0.00    -0.166 F 
ATOM     22  F   UNL d   1      54.713   0.177  33.626  0.00  0.00    -0.166 F 
ATOM     23  F   UNL d   1      55.024  -0.991  33.062  0.00  0.00    -0.166 F 
ENDBRANCH  16  20
ENDBRANCH   2  14
TORSDOF 5
ENDMDL
MODEL 3
REMARK VINA RESULT:      -4.8      1.262      1.524
REMARK  5 active torsions:
REMARK  status: ('A' for Active; 'I' for Inactive)
REMARK    1  A    between atoms: N_10  and  C_2 
REMARK    2  A    between atoms: C_7  and  C_5 
REMARK    3  A    between atoms: C_6  and  C_9 
REMARK    4  A    between atoms: C_8  and  C_7 
REMARK       I    between atoms: N_11  and  C_8 
REMARK    5  A    between atoms: C_14  and  N_11 
ROOT
ATOM      1  C   UNL d   1      57.429  -0.037  30.972  0.00  0.00     0.280 C 
ATOM      2  N   UNL d   1      57.048   0.361  31.584  0.00  0.00    -0.208 NA
ATOM      3  O   UNL d   1      57.341  -0.853  30.899  0.00  0.00    -0.265 OA
ENDROOT
BRANCH   1   4
ATOM      4  C   UNL d   1      57.896   0.376  30.435  0.00  0.00     0.074 C 
BRANCH   4   5
ATOM      5  C   UNL d   1      58.506  -0.006  30.034  0.00  0.00     0.093 A 
ATOM      6  C   UNL d   1      59.312   0.121  30.149  0.00  0.00     0.272 A 
ATOM      7  N   UNL d   1      59.720  -0.372  29.638  0.00  0.00    -0.251 N 
ATOM      8  O   UNL d   1      59.648   0.651  30.685  0.00  0.00    -0.266 OA
ATOM      9  C   UNL d   1      59.167  -0.805  29.205  0.00  0.00     0.182 A 
ATOM     10  C   UNL d   1      60.542  -0.428  29.565  0.00  0.00     0.104 C 
ATOM     11  S   UNL d   1      58.418  -0.577  29.452  0.00  0.00    -0.045 SA
BRANCH   9  12
ATOM     12  N   UNL d   1      59.337  -1.368  28.626  0.00  0.00    -0.219 NA
ATOM     13  C   UNL d   1      58.862  -2.040  28.550  0.00  0.00     0.122 C 
ENDBRANCH   9  12
ENDBRANCH   4   5
ENDBRANCH   1   4
BRANCH   2  14
ATOM     14  C   UNL d   1      56.581  -0.059  32.120  0.00  0.00     0.085 A 
ATOM     15  C   UNL d   1      56.090   0.343  32.652  0.00  0.00     0.023 A 
ATOM     16  C   UNL d   1      55.625  -0.083  33.186  0.00  0.00     0.073 A 
ATOM     17  C   UNL d   1      55.650  -0.904  33.187  0.00  0.00     0.004 A 
ATOM     18  C   UNL d   1      56.141  -1.305  32.654  0.00  0.00     0.002 A 
ATOM     19  C   UNL d   1      56.605  -0.885  32.122  0.00  0.00     0.019 A 
BRANCH  16  20
ATOM     20  C   UNL d   1      55.134   0.317  33.717  0.00  0.00     0.419 C 
ATOM     21  F   UNL d   1      54.690   0.681  34.200  0.00  0.00    -0.166 F 
ATOM     22  F   UNL d   1      55.285   0.545  34.534  0.00  0.00    -0.166 F 
ATOM     23  F   UNL d   1      54.334   0.620  33.601  0.00  0.00    -0.166 F 
ENDBRANCH  16  20
ENDBRANCH   2  14
TORSDOF 5
ENDMDL
MODEL 4
REMARK VINA RESULT:      -3.0      2.400      4.518
REMARK  5 active torsions:
REMARK  status: ('A' for Active; 'I' for Inactive)
REMARK    1  A    between atoms: N_10  and  C_2 
REMARK    2  A    between atoms: C_7  and  C_5 
REMARK    3  A    between atoms: C_6  and  C_9 
REMARK    4  A    between atoms: C_8  and  C_7 
REMARK       I    between atoms: N_11  and  C_8 
REMARK    5  A    between atoms: C_14  and  N_11 
ROOT
ATOM      1  C   UNL d   1      58.023   0.259  30.675  0.00  0.00     0.280 C 
ATOM      2  N   UNL d   1      57.906  -0.064  29.927  0.00  0.00    -0.208 NA
ATOM      3  O   UNL d   1      58.747   0.158  31.055  0.00  0.00    -0.265 OA
ENDROOT
BRANCH   1   4
ATOM      4  C   UNL d   1      57.420   0.681  31.043  0.00  0.00     0.074 C 
BRANCH   4   5
ATOM      5  C   UNL d   1      57.204   0.507  31.819  0.00  0.00     0.093 A 
ATOM      6  C   UNL d   1      56.510   0.127  32.052  0.00  0.00     0.272 A 
ATOM      7  N   UNL d   1      56.518   0.067  32.868  0.00  0.00    -0.251 N 
ATOM      8  O   UNL d   1      55.913  -0.143  31.550  0.00  0.00    -0.266 OA
ATOM      9  C   UNL d   1      57.218   0.409  33.143  0.00  0.00     0.182 A 
ATOM     10  C   UNL d   1      55.931  -0.276  33.339  0.00  0.00     0.104 C 
ATOM     11  S   UNL d   1      57.639   0.680  32.493  0.00  0.00    -0.045 SA
BRANCH   9  12
ATOM     12  N   UNL d   1      57.452   0.469  33.932  0.00  0.00    -0.219 NA
ATOM     13  C   UNL d   1      58.228   0.681  34.119  0.00  0.00     0.122 C 
ENDBRANCH   9  12
ENDBRANCH   4   5
ENDBRANCH   1   4
BRANCH   2  14
ATOM     14  C   UNL d   1      58.514  -0.487  29.562  0.00  0.00     0.085 A 
ATOM     15  C   UNL d   1      58.498  -1.315  29.546  0.00  0.00     0.023 A 
ATOM     16  C   UNL d   1      59.110  -1.732  29.180  0.00  0.00     0.073 A 
ATOM     17  C   UNL d   1      59.733  -1.325  28.832  0.00  0.00     0.004 A 
ATOM     18  C   UNL d   1      59.749  -0.497  28.848  0.00  0.00     0.002 A 
ATOM     19  C   UNL d   1      59.142  -0.078  29.211  0.00  0.00     0.019 A 
BRANCH  16  20
ATOM     20  C   UNL d   1      59.094  -2.559  29.164  0.00  0.00     0.419 C 
ATOM     21  F   UNL d   1      59.080  -3.308  29.149  0.00  0.00    -0.166 F 
ATOM     22  F   UNL d   1      58.582  -3.086  28.718  0.00  0.00    -0.166 F 
ATOM     23  F   UNL d   1      59.589  -3.122  29.592  0.00  0.00    -0.166 F 
ENDBRANCH  16  20
ENDBRANCH   2  14
TORSDOF 5
ENDMDL
MODEL 5
REMARK VINA RESULT:      -2.6      2.869      5.001
REMARK  5 active torsions:
REMARK  status: ('A' for Active; 'I' for Inactive)
REMARK    1  A    between atoms: N_10  and  C_2 
REMARK    2  A    between atoms: C_7  and  C_5 
REMARK    3  A    between atoms: C_6  and  C_9 
REMARK    4  A    between atoms: C_8  and  C_7 
REMARK       I    between atoms: N_11  and  C_8 
REMARK    5  A    between atoms: C_14  and  N_11 
ROOT
ATOM      1  C   UNL d   1      57.263  -0.388  31.229  0.00  0.00     0.280 C 
ATOM      2  N   UNL d   1      57.774  -0.736  30.686  0.00  0.00    -0.208 NA
ATOM      3  O   UNL d   1      57.173   0.431  31.238  0.00  0.00    -0.265 OA
ENDROOT
BRANCH   1   4
ATOM      4  C   UNL d   1      56.841  -0.853  31.761  0.00  0.00     0.074 C 
BRANCH   4   5
ATOM      5  C   UNL d   1      56.582  -0.536  32.476  0.00  0.00     0.093 A 
ATOM      6  C   UNL d   1      55.866  -0.709  32.847  0.00  0.00     0.272 A 
ATOM      7  N   UNL d   1      55.832  -0.275  33.541  0.00  0.00    -0.251 N 
ATOM      8  O   UNL d   1      55.287  -1.227  32.569  0.00  0.00    -0.266 OA
ATOM      9  C   UNL d   1      56.527   0.167  33.601  0.00  0.00     0.182 A 
ATOM     10  C   UNL d   1      55.213  -0.277  34.089  0.00  0.00     0.104 C 
ATOM     11  S   UNL d   1      56.988   0.003  32.941  0.00  0.00    -0.045 SA
BRANCH   9  12
ATOM     12  N   UNL d   1      56.723   0.682  34.215  0.00  0.00    -0.219 NA
ATOM     13  C   UNL d   1      57.366   0.515  34.706  0.00  0.00     0.122 C 
ENDBRANCH   9  12
ENDBRANCH   4   5
ENDBRANCH   1   4
BRANCH   2  14
ATOM     14  C   UNL d   1      58.194  -0.264  30.155  0.00  0.00     0.085 A 
ATOM     15  C   UNL d   1      59.020  -0.224  30.192  0.00  0.00     0.023 A 
ATOM     16  C   UNL d   1      59.434   0.250  29.657  0.00  0.00     0.073 A 
ATOM     17  C   UNL d   1      59.026   0.681  29.090  0.00  0.00     0.004 A 
ATOM     18  C   UNL d   1      58.200   0.641  29.053  0.00  0.00     0.002 A 
ATOM     19  C   UNL d   1      57.784   0.170  29.583  0.00  0.00     0.019 A 
BRANCH  16  20
ATOM     20  C   UNL d   1      60.259   0.291  29.694  0.00  0.00     0.419 C 
ATOM     21  F   UNL d   1      61.008   0.327  29.728  0.00  0.00    -0.166 F 
ATOM     22  F   UNL d   1      60.768   0.458  30.368  0.00  0.00    -0.166 F 
ATOM     23  F   UNL d   1      60.841   0.176  29.066  0.00  0.00    -0.166 F 
ENDBRANCH  16  20
ENDBRANCH   2  14
TORSDOF 5
ENDMDL
