MODEL 1
REMARK VINA RESULT:      -6.1      0.000      0.000
REMARK  7 active torsions:
REMARK  status: ('A' for Active; 'I' for Inactive)
REMARK    1  A    between atoms: C_7  and  C_1 
REMARK    2  A    between atoms: S_8  and  C_3 
REMARK       I    between atoms: C_6  and  N_13 
REMARK    3  A    between atoms: C_10  and  C_6 
REMARK    4  A    between atoms: C_20  and  S_8 
REMARK    5  A    between atoms: N_13  and  C_21 
REMARK    6  A    between atoms: O_19  and  C_14 
REMARK    7  A    between atoms: C_21  and  C_20 
ROOT
ATOM      1  C   UNL d   1     -45.973  12.430  23.129  0.00  0.00     0.087 A 
ATOM      2  N   UNL d   1     -45.184  12.234  23.013  0.00  0.00    -0.245 NA
ATOM      3  C   UNL d   1     -46.367  11.760  23.404  0.00  0.00     0.049 A 
ATOM      4  C   UNL d   1     -45.825  11.147  23.461  0.00  0.00     0.025 A 
ATOM      5  C   UNL d   1     -45.088  11.439  23.217  0.00  0.00     0.082 A 
ATOM      6  C   UNL d   1     -45.898  10.366  23.698  0.00  0.00     0.002 A 
ATOM      7  C   UNL d   1     -44.427  10.945  23.214  0.00  0.00     0.019 A 
ATOM      8  C   UNL d   1     -45.237   9.871  23.695  0.00  0.00     0.000 A 
ATOM      9  C   UNL d   1     -44.508  10.162  23.454  0.00  0.00     0.002 A 
ENDROOT
BRANCH   3  10
ATOM     10  S   UNL d   1     -47.170  11.711  23.593  0.00  0.00    -0.083 SA
BRANCH  10  11
ATOM     11  C   UNL d   1     -47.669  11.223  23.137  0.00  0.00     0.056 C 
BRANCH  11  12
ATOM     12  C   UNL d   1     -48.442  11.468  22.978  0.00  0.00     0.109 C 
BRANCH  12  13
ATOM     13  N   UNL d   1     -49.061  11.113  23.373  0.00  0.00    -0.206 NA
ATOM     14  C   UNL d   1     -49.821  11.416  23.294  0.00  0.00     0.279 C 
ATOM     15  O   UNL d   1     -50.455  11.052  23.698  0.00  0.00    -0.265 OA
BRANCH  14  16
ATOM     16  C   UNL d   1     -49.959  12.077  22.817  0.00  0.00     0.058 A 
ATOM     17  C   UNL d   1     -50.165  12.804  23.167  0.00  0.00     0.005 A 
ATOM     18  C   UNL d   1     -50.303  13.466  22.690  0.00  0.00     0.000 A 
ATOM     19  C   UNL d   1     -50.234  13.402  21.866  0.00  0.00     0.000 A 
ATOM     20  C   UNL d   1     -50.030  12.683  21.520  0.00  0.00     0.000 A 
ATOM     21  C   UNL d   1     -49.893  12.023  21.997  0.00  0.00     0.005 A 
ENDBRANCH  14  16
ENDBRANCH  12  13
ENDBRANCH  11  12
ENDBRANCH  10  11
ENDBRANCH   3  10
BRANCH   1  22
ATOM     22  C   UNL d   1     -46.275  13.178  22.982  0.00  0.00     0.018 A 
ATOM     23  C   UNL d   1     -46.458  13.683  23.611  0.00  0.00     0.004 A 
ATOM     24  C   UNL d   1     -46.761  14.432  23.468  0.00  0.00     0.024 A 
ATOM     25  C   UNL d   1     -46.882  14.682  22.694  0.00  0.00     0.094 A 
ATOM     26  C   UNL d   1     -46.700  14.178  22.059  0.00  0.00     0.024 A 
ATOM     27  C   UNL d   1     -46.397  13.429  22.201  0.00  0.00     0.004 A 
BRANCH  25  28
ATOM     28  O   UNL d   1     -47.190  15.444  22.549  0.00  0.00    -0.328 OA
ATOM     29  C   UNL d   1     -47.418  15.661  21.781  0.00  0.00     0.181 C 
ENDBRANCH  25  28
ENDBRANCH   1  22
TORSDOF 7
ENDMDL
