MODEL 1
REMARK VINA RESULT:      -4.4      0.000      0.000
REMARK  8 active torsions:
REMARK  status: ('A' for Active; 'I' for Inactive)
REMARK    1  A    between atoms: N_2  and  S_1 
REMARK    2  A    between atoms: C_3  and  S_1 
REMARK    3  A    between atoms: C_4  and  C_7 
REMARK    4  A    between atoms: O_17  and  C_4 
REMARK    5  A    between atoms: C_23  and  O_17 
REMARK    6  A    between atoms: C_18  and  C_24 
REMARK    7  A    between atoms: C_27  and  C_23 
REMARK    8  A    between atoms: C_24  and  C_27 
ROOT
ATOM      1  C   UNL d   1      56.688   0.146  32.346  0.00  0.00     0.104 A 
ATOM      2  C   UNL d   1      57.534  -0.108  30.961  0.00  0.00     0.064 A 
ATOM      3  C   UNL d   1      57.249   0.682  32.094  0.00  0.00     0.013 A 
ATOM      4  C   UNL d   1      56.545  -0.537  31.892  0.00  0.00     0.013 A 
ATOM      5  C   UNL d   1      57.678   0.573  31.411  0.00  0.00     0.006 A 
ATOM      6  C   UNL d   1      56.968  -0.660  31.204  0.00  0.00     0.006 A 
ENDROOT
BRANCH   2   7
ATOM      7  C   UNL d   1      57.969  -0.220  30.267  0.00  0.00     0.300 C 
ATOM      8  O   UNL d   1      58.271   0.468  29.895  0.00  0.00    -0.259 OA
BRANCH   7   9
ATOM      9  O   UNL d   1      58.106  -0.938  29.949  0.00  0.00    -0.271 OA
BRANCH   9  10
ATOM     10  C   UNL d   1      58.803  -1.116  29.545  0.00  0.00     0.126 C 
BRANCH  10  11
ATOM     11  C   UNL d   1      59.038  -1.893  29.376  0.00  0.00     0.027 C 
BRANCH  11  12
ATOM     12  C   UNL d   1      59.747  -2.049  29.019  0.00  0.00     0.002 C 
BRANCH  12  13
ATOM     13  C   UNL d   1      59.968  -2.834  28.838  0.00  0.00     0.003 A 
ATOM     14  C   UNL d   1      60.743  -2.995  28.636  0.00  0.00     0.021 A 
ATOM     15  C   UNL d   1      60.968  -3.762  28.457  0.00  0.00     0.099 A 
ATOM     16  N   UNL d   1      60.410  -4.380  28.480  0.00  0.00    -0.242 NA
ATOM     17  C   UNL d   1      59.636  -4.215  28.682  0.00  0.00     0.099 A 
ATOM     18  C   UNL d   1      59.433  -3.435  28.858  0.00  0.00     0.021 A 
ENDBRANCH  12  13
ENDBRANCH  11  12
ENDBRANCH  10  11
ENDBRANCH   9  10
ENDBRANCH   7   9
ENDBRANCH   2   7
BRANCH   1  19
ATOM     19  S   UNL d   1      56.260   0.276  33.047  0.00  0.00     0.272 S 
ATOM     20  O   UNL d   1      55.571   0.447  32.603  0.00  0.00    -0.200 OA
ATOM     21  O   UNL d   1      56.935   0.109  33.516  0.00  0.00    -0.200 OA
BRANCH  19  22
ATOM     22  N   UNL d   1      55.838   0.404  33.757  0.00  0.00    -0.225 N 
ATOM     23  C   UNL d   1      56.217   0.422  34.480  0.00  0.00     0.118 A 
ATOM     24  C   UNL d   1      55.775   0.552  35.172  0.00  0.00     0.142 A 
ATOM     25  O   UNL d   1      54.963   0.662  35.136  0.00  0.00    -0.300 OA
ATOM     26  C   UNL d   1      54.585   0.643  34.401  0.00  0.00     0.142 A 
ATOM     27  C   UNL d   1      54.996   0.518  33.716  0.00  0.00     0.118 A 
ENDBRANCH  19  22
ENDBRANCH   1  19
TORSDOF 8
ENDMDL
MODEL 2
REMARK VINA RESULT:      -2.5      1.980      6.151
REMARK  8 active torsions:
REMARK  status: ('A' for Active; 'I' for Inactive)
REMARK    1  A    between atoms: N_2  and  S_1 
REMARK    2  A    between atoms: C_3  and  S_1 
REMARK    3  A    between atoms: C_4  and  C_7 
REMARK    4  A    between atoms: O_17  and  C_4 
REMARK    5  A    between atoms: C_23  and  O_17 
REMARK    6  A    between atoms: C_18  and  C_24 
REMARK    7  A    between atoms: C_27  and  C_23 
REMARK    8  A    between atoms: C_24  and  C_27 
ROOT
ATOM      1  C   UNL d   1      59.163  -1.990  29.215  0.00  0.00     0.104 A 
ATOM      2  C   UNL d   1      58.480  -0.530  29.529  0.00  0.00     0.064 A 
ATOM      3  C   UNL d   1      58.516  -1.928  29.709  0.00  0.00     0.013 A 
ATOM      4  C   UNL d   1      59.477  -1.302  28.867  0.00  0.00     0.013 A 
ATOM      5  C   UNL d   1      58.165  -1.213  29.876  0.00  0.00     0.006 A 
ATOM      6  C   UNL d   1      59.134  -0.577  29.026  0.00  0.00     0.006 A 
ENDROOT
BRANCH   2   7
ATOM      7  C   UNL d   1      58.124   0.197  29.697  0.00  0.00     0.300 C 
ATOM      8  O   UNL d   1      57.894   0.667  29.041  0.00  0.00    -0.259 OA
BRANCH   7   9
ATOM      9  O   UNL d   1      57.996   0.460  30.439  0.00  0.00    -0.271 OA
BRANCH   9  10
ATOM     10  C   UNL d   1      57.244   0.656  30.714  0.00  0.00     0.126 C 
BRANCH  10  11
ATOM     11  C   UNL d   1      57.044   0.649  31.519  0.00  0.00     0.027 C 
BRANCH  11  12
ATOM     12  C   UNL d   1      56.279   0.540  31.761  0.00  0.00     0.002 C 
BRANCH  12  13
ATOM     13  C   UNL d   1      56.113   0.213  32.511  0.00  0.00     0.003 A 
ATOM     14  C   UNL d   1      56.121  -0.598  32.604  0.00  0.00     0.021 A 
ATOM     15  C   UNL d   1      55.959  -0.928  33.337  0.00  0.00     0.099 A 
ATOM     16  N   UNL d   1      55.787  -0.438  33.988  0.00  0.00    -0.242 NA
ATOM     17  C   UNL d   1      55.780   0.373  33.891  0.00  0.00     0.099 A 
ATOM     18  C   UNL d   1      55.946   0.681  33.144  0.00  0.00     0.021 A 
ENDBRANCH  12  13
ENDBRANCH  11  12
ENDBRANCH  10  11
ENDBRANCH   9  10
ENDBRANCH   7   9
ENDBRANCH   2   7
BRANCH   1  19
ATOM     19  S   UNL d   1      59.508  -2.731  29.057  0.00  0.00     0.272 S 
ATOM     20  O   UNL d   1      58.749  -3.069  28.954  0.00  0.00    -0.200 OA
ATOM     21  O   UNL d   1      60.279  -2.417  29.154  0.00  0.00    -0.200 OA
BRANCH  19  22
ATOM     22  N   UNL d   1      59.863  -3.470  28.899  0.00  0.00    -0.225 N 
ATOM     23  C   UNL d   1      60.662  -3.591  29.014  0.00  0.00     0.118 A 
ATOM     24  C   UNL d   1      60.992  -4.337  28.849  0.00  0.00     0.142 A 
ATOM     25  O   UNL d   1      60.523  -4.951  28.574  0.00  0.00    -0.300 OA
ATOM     26  C   UNL d   1      59.715  -4.822  28.460  0.00  0.00     0.142 A 
ATOM     27  C   UNL d   1      59.374  -4.105  28.613  0.00  0.00     0.118 A 
ENDBRANCH  19  22
ENDBRANCH   1  19
TORSDOF 8
ENDMDL
