MODEL 1
REMARK VINA RESULT:      -8.8      0.000      0.000
REMARK  6 active torsions:
REMARK  status: ('A' for Active; 'I' for Inactive)
REMARK    1  A    between atoms: C_6  and  N_2 
REMARK    2  A    between atoms: C_7  and  C_6 
REMARK    3  A    between atoms: C_8  and  C_7 
REMARK       I    between atoms: N_13  and  C_8 
REMARK    4  A    between atoms: C_10  and  C_17 
REMARK    5  A    between atoms: C_14  and  N_13 
REMARK    6  A    between atoms: C_17  and  C_14 
ROOT
ATOM      1  C   UNL d   1      51.556  33.524  52.976  0.00  0.00     0.082 C 
ENDROOT
BRANCH   1   2
ATOM      2  C   UNL d   1      52.367  33.636  52.903  0.00  0.00     0.088 C 
BRANCH   2   3
ATOM      3  N   UNL d   1      52.892  33.131  53.287  0.00  0.00    -0.268 N 
ATOM      4  C   UNL d   1      53.029  32.342  53.102  0.00  0.00     0.296 A 
ATOM      5  S   UNL d   1      53.619  32.061  53.657  0.00  0.00    -0.025 SA
ATOM      6  O   UNL d   1      52.663  31.916  52.497  0.00  0.00    -0.259 OA
ATOM      7  C   UNL d   1      53.808  32.664  54.136  0.00  0.00     0.050 A 
ATOM      8  C   UNL d   1      54.345  32.699  54.767  0.00  0.00     0.008 A 
ATOM      9  C   UNL d   1      53.374  33.334  53.927  0.00  0.00     0.073 A 
ATOM     10  C   UNL d   1      54.446  33.407  55.188  0.00  0.00     0.001 A 
ATOM     11  C   UNL d   1      54.005  34.071  54.970  0.00  0.00     0.002 A 
ATOM     12  C   UNL d   1      53.471  34.032  54.341  0.00  0.00     0.018 A 
ENDBRANCH   2   3
ENDBRANCH   1   2
BRANCH   1  13
ATOM     13  C   UNL d   1      51.028  34.070  52.656  0.00  0.00     0.281 C 
ATOM     14  O   UNL d   1      51.239  34.500  51.983  0.00  0.00    -0.265 OA
ATOM     15  N   UNL d   1      50.292  34.191  53.001  0.00  0.00    -0.206 NA
BRANCH  15  16
ATOM     16  C   UNL d   1      49.768  34.734  52.682  0.00  0.00     0.102 C 
BRANCH  16  17
ATOM     17  C   UNL d   1      49.099  34.963  53.101  0.00  0.00     0.021 C 
BRANCH  17  18
ATOM     18  C   UNL d   1      48.512  35.414  52.740  0.00  0.00     0.002 A 
ATOM     19  C   UNL d   1      48.242  36.112  53.111  0.00  0.00     0.000 A 
ATOM     20  C   UNL d   1      47.650  36.564  52.745  0.00  0.00     0.000 A 
ATOM     21  C   UNL d   1      47.333  36.329  52.026  0.00  0.00     0.000 A 
ATOM     22  C   UNL d   1      47.603  35.636  51.661  0.00  0.00     0.000 A 
ATOM     23  C   UNL d   1      48.189  35.172  52.006  0.00  0.00     0.000 A 
ENDBRANCH  17  18
ENDBRANCH  16  17
ENDBRANCH  15  16
ENDBRANCH   1  13
TORSDOF 6
ENDMDL
MODEL 2
REMARK VINA RESULT:      -8.4      0.919      1.574
REMARK  6 active torsions:
REMARK  status: ('A' for Active; 'I' for Inactive)
REMARK    1  A    between atoms: C_6  and  N_2 
REMARK    2  A    between atoms: C_7  and  C_6 
REMARK    3  A    between atoms: C_8  and  C_7 
REMARK       I    between atoms: N_13  and  C_8 
REMARK    4  A    between atoms: C_10  and  C_17 
REMARK    5  A    between atoms: C_14  and  N_13 
REMARK    6  A    between atoms: C_17  and  C_14 
ROOT
ATOM      1  C   UNL d   1      51.730  33.715  53.133  0.00  0.00     0.082 C 
ENDROOT
BRANCH   1   2
ATOM      2  C   UNL d   1      52.296  33.279  52.727  0.00  0.00     0.088 C 
BRANCH   2   3
ATOM      3  N   UNL d   1      52.869  32.855  53.140  0.00  0.00    -0.268 N 
ATOM      4  C   UNL d   1      53.470  33.175  53.601  0.00  0.00     0.296 A 
ATOM      5  S   UNL d   1      53.917  32.512  53.911  0.00  0.00    -0.025 SA
ATOM      6  O   UNL d   1      53.604  33.978  53.731  0.00  0.00    -0.259 OA
ATOM      7  C   UNL d   1      53.584  31.846  53.637  0.00  0.00     0.050 A 
ATOM      8  C   UNL d   1      53.792  31.053  53.763  0.00  0.00     0.008 A 
ATOM      9  C   UNL d   1      52.937  32.032  53.161  0.00  0.00     0.073 A 
ATOM     10  C   UNL d   1      53.349  30.447  53.410  0.00  0.00     0.001 A 
ATOM     11  C   UNL d   1      52.703  30.645  52.935  0.00  0.00     0.002 A 
ATOM     12  C   UNL d   1      52.500  31.436  52.812  0.00  0.00     0.018 A 
ENDBRANCH   2   3
ENDBRANCH   1   2
BRANCH   1  13
ATOM     13  C   UNL d   1      51.136  34.114  52.724  0.00  0.00     0.281 C 
ATOM     14  O   UNL d   1      51.257  34.335  51.937  0.00  0.00    -0.265 OA
ATOM     15  N   UNL d   1      50.424  34.295  53.092  0.00  0.00    -0.206 NA
BRANCH  15  16
ATOM     16  C   UNL d   1      49.835  34.692  52.684  0.00  0.00     0.102 C 
BRANCH  16  17
ATOM     17  C   UNL d   1      49.145  34.921  53.067  0.00  0.00     0.021 C 
BRANCH  17  18
ATOM     18  C   UNL d   1      48.559  35.338  52.663  0.00  0.00     0.002 A 
ATOM     19  C   UNL d   1      48.235  36.027  53.006  0.00  0.00     0.000 A 
ATOM     20  C   UNL d   1      47.646  36.445  52.598  0.00  0.00     0.000 A 
ATOM     21  C   UNL d   1      47.384  36.185  51.865  0.00  0.00     0.000 A 
ATOM     22  C   UNL d   1      47.710  35.501  51.529  0.00  0.00     0.000 A 
ATOM     23  C   UNL d   1      48.294  35.071  51.915  0.00  0.00     0.000 A 
ENDBRANCH  17  18
ENDBRANCH  16  17
ENDBRANCH  15  16
ENDBRANCH   1  13
TORSDOF 6
ENDMDL
MODEL 3
REMARK VINA RESULT:      -8.2      1.750      5.669
REMARK  6 active torsions:
REMARK  status: ('A' for Active; 'I' for Inactive)
REMARK    1  A    between atoms: C_6  and  N_2 
REMARK    2  A    between atoms: C_7  and  C_6 
REMARK    3  A    between atoms: C_8  and  C_7 
REMARK       I    between atoms: N_13  and  C_8 
REMARK    4  A    between atoms: C_10  and  C_17 
REMARK    5  A    between atoms: C_14  and  N_13 
REMARK    6  A    between atoms: C_17  and  C_14 
ROOT
ATOM      1  C   UNL d   1      50.191  34.551  52.476  0.00  0.00     0.082 C 
ENDROOT
BRANCH   1   2
ATOM      2  C   UNL d   1      49.397  34.470  52.670  0.00  0.00     0.088 C 
BRANCH   2   3
ATOM      3  N   UNL d   1      48.828  34.926  52.288  0.00  0.00    -0.268 N 
ATOM      4  C   UNL d   1      48.626  34.884  51.492  0.00  0.00     0.296 A 
ATOM      5  S   UNL d   1      48.009  35.467  51.366  0.00  0.00    -0.025 SA
ATOM      6  O   UNL d   1      48.960  34.375  50.935  0.00  0.00    -0.259 OA
ATOM      7  C   UNL d   1      47.868  35.823  52.060  0.00  0.00     0.050 A 
ATOM      8  C   UNL d   1      47.330  36.425  52.253  0.00  0.00     0.008 A 
ATOM      9  C   UNL d   1      48.360  35.507  52.643  0.00  0.00     0.073 A 
ATOM     10  C   UNL d   1      47.287  36.709  53.032  0.00  0.00     0.001 A 
ATOM     11  C   UNL d   1      47.784  36.385  53.607  0.00  0.00     0.002 A 
ATOM     12  C   UNL d   1      48.318  35.785  53.410  0.00  0.00     0.018 A 
ENDBRANCH   2   3
ENDBRANCH   1   2
BRANCH   1  13
ATOM     13  C   UNL d   1      50.768  34.132  52.890  0.00  0.00     0.281 C 
ATOM     14  O   UNL d   1      50.570  33.425  53.268  0.00  0.00    -0.265 OA
ATOM     15  N   UNL d   1      51.539  34.412  52.931  0.00  0.00    -0.206 NA
BRANCH  15  16
ATOM     16  C   UNL d   1      52.111  33.995  53.343  0.00  0.00     0.102 C 
BRANCH  16  17
ATOM     17  C   UNL d   1      52.881  34.278  53.389  0.00  0.00     0.021 C 
BRANCH  17  18
ATOM     18  C   UNL d   1      53.445  33.890  53.849  0.00  0.00     0.002 A 
ATOM     19  C   UNL d   1      53.586  34.149  54.630  0.00  0.00     0.000 A 
ATOM     20  C   UNL d   1      54.154  33.756  55.091  0.00  0.00     0.000 A 
ATOM     21  C   UNL d   1      54.572  33.121  54.783  0.00  0.00     0.000 A 
ATOM     22  C   UNL d   1      54.428  32.868  54.007  0.00  0.00     0.000 A 
ATOM     23  C   UNL d   1      53.870  33.242  53.532  0.00  0.00     0.000 A 
ENDBRANCH  17  18
ENDBRANCH  16  17
ENDBRANCH  15  16
ENDBRANCH   1  13
TORSDOF 6
ENDMDL
MODEL 4
REMARK VINA RESULT:      -6.4      2.443      6.051
REMARK  6 active torsions:
REMARK  status: ('A' for Active; 'I' for Inactive)
REMARK    1  A    between atoms: C_6  and  N_2 
REMARK    2  A    between atoms: C_7  and  C_6 
REMARK    3  A    between atoms: C_8  and  C_7 
REMARK       I    between atoms: N_13  and  C_8 
REMARK    4  A    between atoms: C_10  and  C_17 
REMARK    5  A    between atoms: C_14  and  N_13 
REMARK    6  A    between atoms: C_17  and  C_14 
ROOT
ATOM      1  C   UNL d   1      48.391  34.760  51.911  0.00  0.00     0.082 C 
ENDROOT
BRANCH   1   2
ATOM      2  C   UNL d   1      48.093  35.523  51.844  0.00  0.00     0.088 C 
BRANCH   2   3
ATOM      3  N   UNL d   1      47.287  35.664  51.935  0.00  0.00    -0.268 N 
ATOM      4  C   UNL d   1      46.697  35.467  51.398  0.00  0.00     0.296 A 
ATOM      5  S   UNL d   1      45.956  35.727  51.744  0.00  0.00    -0.025 SA
ATOM      6  O   UNL d   1      46.810  35.093  50.672  0.00  0.00    -0.259 OA
ATOM      7  C   UNL d   1      46.120  36.057  52.446  0.00  0.00     0.050 A 
ATOM      8  C   UNL d   1      45.614  36.397  53.009  0.00  0.00     0.008 A 
ATOM      9  C   UNL d   1      46.933  36.030  52.586  0.00  0.00     0.073 A 
ATOM     10  C   UNL d   1      45.925  36.709  53.712  0.00  0.00     0.001 A 
ATOM     11  C   UNL d   1      46.740  36.676  53.841  0.00  0.00     0.002 A 
ATOM     12  C   UNL d   1      47.241  36.337  53.278  0.00  0.00     0.018 A 
ENDBRANCH   2   3
ENDBRANCH   1   2
BRANCH   1  13
ATOM     13  C   UNL d   1      49.204  34.624  51.885  0.00  0.00     0.281 C 
ATOM     14  O   UNL d   1      49.603  34.662  51.163  0.00  0.00    -0.265 OA
ATOM     15  N   UNL d   1      49.620  34.451  52.572  0.00  0.00    -0.206 NA
BRANCH  15  16
ATOM     16  C   UNL d   1      50.428  34.316  52.544  0.00  0.00     0.102 C 
BRANCH  16  17
ATOM     17  C   UNL d   1      50.841  34.120  53.227  0.00  0.00     0.021 C 
BRANCH  17  18
ATOM     18  C   UNL d   1      51.636  33.904  53.189  0.00  0.00     0.002 A 
ATOM     19  C   UNL d   1      51.839  33.112  53.021  0.00  0.00     0.000 A 
ATOM     20  C   UNL d   1      52.639  32.897  52.984  0.00  0.00     0.000 A 
ATOM     21  C   UNL d   1      53.226  33.457  53.111  0.00  0.00     0.000 A 
ATOM     22  C   UNL d   1      53.019  34.242  53.278  0.00  0.00     0.000 A 
ATOM     23  C   UNL d   1      52.232  34.477  53.320  0.00  0.00     0.000 A 
ENDBRANCH  17  18
ENDBRANCH  16  17
ENDBRANCH  15  16
ENDBRANCH   1  13
TORSDOF 6
ENDMDL
