MODEL 1
REMARK VINA RESULT:      -8.1      0.000      0.000
REMARK  3 active torsions:
REMARK  status: ('A' for Active; 'I' for Inactive)
REMARK       I    between atoms: C_4  and  N_1 
REMARK    1  A    between atoms: C_7  and  C_3 
REMARK    2  A    between atoms: C_9  and  C_4 
REMARK    3  A    between atoms: C_8  and  C_5 
ROOT
ATOM      1  N   UNL d   1     -49.318  13.533  23.157  0.00  0.00    -0.191 N 
ATOM      2  N   UNL d   1     -48.585  13.197  23.024  0.00  0.00    -0.163 NA
ATOM      3  C   UNL d   1     -49.229  14.360  23.015  0.00  0.00     0.110 A 
ATOM      4  C   UNL d   1     -50.000  13.156  23.379  0.00  0.00     0.303 C 
ATOM      5  C   UNL d   1     -48.048  13.785  22.807  0.00  0.00     0.103 A 
ATOM      6  C   UNL d   1     -48.440  14.493  22.802  0.00  0.00     0.042 A 
ATOM      7  O   UNL d   1     -50.722  13.627  23.489  0.00  0.00    -0.263 OA
ENDROOT
BRANCH   3   8
ATOM      8  C   UNL d   1     -49.824  14.929  23.080  0.00  0.00     0.118 A 
ATOM      9  O   UNL d   1     -50.411  15.060  22.532  0.00  0.00    -0.304 OA
ATOM     10  C   UNL d   1     -50.894  15.682  22.815  0.00  0.00     0.123 A 
ATOM     11  C   UNL d   1     -50.586  15.922  23.542  0.00  0.00     0.029 A 
ATOM     12  C   UNL d   1     -49.917  15.444  23.698  0.00  0.00     0.028 A 
ENDBRANCH   3   8
BRANCH   4  13
ATOM     13  C   UNL d   1     -50.034  12.350  23.503  0.00  0.00     0.158 A 
ATOM     14  O   UNL d   1     -49.399  11.836  23.579  0.00  0.00    -0.300 OA
ATOM     15  C   UNL d   1     -49.680  11.075  23.698  0.00  0.00     0.123 A 
ATOM     16  C   UNL d   1     -50.502  11.111  23.697  0.00  0.00     0.029 A 
ATOM     17  C   UNL d   1     -50.728  11.899  23.577  0.00  0.00     0.032 A 
ENDBRANCH   4  13
BRANCH   5  18
ATOM     18  C   UNL d   1     -47.246  13.644  22.630  0.00  0.00     0.019 A 
ATOM     19  C   UNL d   1     -47.073  13.220  21.972  0.00  0.00     0.002 A 
ATOM     20  C   UNL d   1     -46.291  13.062  21.766  0.00  0.00     0.000 A 
ATOM     21  C   UNL d   1     -45.688  13.344  22.241  0.00  0.00     0.000 A 
ATOM     22  C   UNL d   1     -45.849  13.787  22.929  0.00  0.00     0.000 A 
ATOM     23  C   UNL d   1     -44.908  13.183  22.030  0.00  0.00     0.000 C 
ATOM     24  C   UNL d   1     -46.659  13.938  23.124  0.00  0.00     0.002 A 
ENDBRANCH   5  18
TORSDOF 3
ENDMDL
MODEL 2
REMARK VINA RESULT:      -7.9      9.537     10.553
REMARK  3 active torsions:
REMARK  status: ('A' for Active; 'I' for Inactive)
REMARK       I    between atoms: C_4  and  N_1 
REMARK    1  A    between atoms: C_7  and  C_3 
REMARK    2  A    between atoms: C_9  and  C_4 
REMARK    3  A    between atoms: C_8  and  C_5 
ROOT
ATOM      1  N   UNL d   1     -39.716  14.440  18.091  0.00  0.00    -0.191 N 
ATOM      2  N   UNL d   1     -39.410  14.420  18.849  0.00  0.00    -0.163 NA
ATOM      3  C   UNL d   1     -40.255  15.088  18.070  0.00  0.00     0.110 A 
ATOM      4  C   UNL d   1     -39.542  13.942  17.476  0.00  0.00     0.303 C 
ATOM      5  C   UNL d   1     -39.741  15.030  19.295  0.00  0.00     0.103 A 
ATOM      6  C   UNL d   1     -40.255  15.437  18.820  0.00  0.00     0.042 A 
ATOM      7  O   UNL d   1     -39.935  14.066  16.712  0.00  0.00    -0.263 OA
ENDROOT
BRANCH   3   8
ATOM      8  C   UNL d   1     -40.700  15.326  17.416  0.00  0.00     0.118 A 
ATOM      9  O   UNL d   1     -41.461  15.089  17.254  0.00  0.00    -0.304 OA
ATOM     10  C   UNL d   1     -41.700  15.459  16.542  0.00  0.00     0.123 A 
ATOM     11  C   UNL d   1     -41.069  15.922  16.281  0.00  0.00     0.029 A 
ATOM     12  C   UNL d   1     -40.449  15.831  16.835  0.00  0.00     0.028 A 
ENDBRANCH   3   8
BRANCH   4  13
ATOM     13  C   UNL d   1     -39.009  13.326  17.548  0.00  0.00     0.158 A 
ATOM     14  O   UNL d   1     -39.068  12.681  18.052  0.00  0.00    -0.300 OA
ATOM     15  C   UNL d   1     -38.415  12.197  17.947  0.00  0.00     0.123 A 
ATOM     16  C   UNL d   1     -37.940  12.541  17.370  0.00  0.00     0.029 A 
ATOM     17  C   UNL d   1     -38.303  13.243  17.119  0.00  0.00     0.032 A 
ENDBRANCH   4  13
BRANCH   5  18
ATOM     18  C   UNL d   1     -39.558  15.179  20.094  0.00  0.00     0.019 A 
ATOM     19  C   UNL d   1     -38.958  15.686  20.256  0.00  0.00     0.002 A 
ATOM     20  C   UNL d   1     -38.750  15.855  21.036  0.00  0.00     0.000 A 
ATOM     21  C   UNL d   1     -39.162  15.501  21.646  0.00  0.00     0.000 A 
ATOM     22  C   UNL d   1     -39.789  14.971  21.496  0.00  0.00     0.000 A 
ATOM     23  C   UNL d   1     -38.950  15.675  22.423  0.00  0.00     0.000 C 
ATOM     24  C   UNL d   1     -39.988  14.810  20.689  0.00  0.00     0.002 A 
ENDBRANCH   5  18
TORSDOF 3
ENDMDL
MODEL 3
REMARK VINA RESULT:      -6.9      1.693      2.955
REMARK  3 active torsions:
REMARK  status: ('A' for Active; 'I' for Inactive)
REMARK       I    between atoms: C_4  and  N_1 
REMARK    1  A    between atoms: C_7  and  C_3 
REMARK    2  A    between atoms: C_9  and  C_4 
REMARK    3  A    between atoms: C_8  and  C_5 
ROOT
ATOM      1  N   UNL d   1     -48.547  13.110  22.849  0.00  0.00    -0.191 N 
ATOM      2  N   UNL d   1     -47.755  12.926  22.923  0.00  0.00    -0.163 NA
ATOM      3  C   UNL d   1     -48.973  12.409  23.048  0.00  0.00     0.110 A 
ATOM      4  C   UNL d   1     -48.871  13.820  22.629  0.00  0.00     0.303 C 
ATOM      5  C   UNL d   1     -47.675  12.140  23.160  0.00  0.00     0.103 A 
ATOM      6  C   UNL d   1     -48.417  11.825  23.236  0.00  0.00     0.042 A 
ATOM      7  O   UNL d   1     -49.735  13.891  22.587  0.00  0.00    -0.263 OA
ENDROOT
BRANCH   3   8
ATOM      8  C   UNL d   1     -49.795  12.327  23.053  0.00  0.00     0.118 A 
ATOM      9  O   UNL d   1     -50.251  12.130  22.410  0.00  0.00    -0.304 OA
ATOM     10  C   UNL d   1     -51.050  12.107  22.658  0.00  0.00     0.123 A 
ATOM     11  C   UNL d   1     -51.064  12.294  23.461  0.00  0.00     0.029 A 
ATOM     12  C   UNL d   1     -50.273  12.429  23.698  0.00  0.00     0.028 A 
ENDBRANCH   3   8
BRANCH   4  13
ATOM     13  C   UNL d   1     -48.413  14.471  22.445  0.00  0.00     0.158 A 
ATOM     14  O   UNL d   1     -48.029  14.619  21.736  0.00  0.00    -0.300 OA
ATOM     15  C   UNL d   1     -47.633  15.335  21.787  0.00  0.00     0.123 A 
ATOM     16  C   UNL d   1     -47.769  15.641  22.539  0.00  0.00     0.029 A 
ATOM     17  C   UNL d   1     -48.253  15.109  22.952  0.00  0.00     0.032 A 
ENDBRANCH   4  13
BRANCH   5  18
ATOM     18  C   UNL d   1     -46.944  11.761  23.290  0.00  0.00     0.019 A 
ATOM     19  C   UNL d   1     -46.950  10.981  23.472  0.00  0.00     0.002 A 
ATOM     20  C   UNL d   1     -46.246  10.575  23.607  0.00  0.00     0.000 A 
ATOM     21  C   UNL d   1     -45.536  10.977  23.554  0.00  0.00     0.000 A 
ATOM     22  C   UNL d   1     -45.511  11.789  23.366  0.00  0.00     0.000 A 
ATOM     23  C   UNL d   1     -44.835  10.566  23.691  0.00  0.00     0.000 C 
ATOM     24  C   UNL d   1     -46.245  12.189  23.231  0.00  0.00     0.002 A 
ENDBRANCH   5  18
TORSDOF 3
ENDMDL
MODEL 4
REMARK VINA RESULT:      -6.6      1.459      1.797
REMARK  3 active torsions:
REMARK  status: ('A' for Active; 'I' for Inactive)
REMARK       I    between atoms: C_4  and  N_1 
REMARK    1  A    between atoms: C_7  and  C_3 
REMARK    2  A    between atoms: C_9  and  C_4 
REMARK    3  A    between atoms: C_8  and  C_5 
ROOT
ATOM      1  N   UNL d   1     -48.602  13.166  22.957  0.00  0.00    -0.191 N 
ATOM      2  N   UNL d   1     -48.149  12.507  23.119  0.00  0.00    -0.163 NA
ATOM      3  C   UNL d   1     -48.060  13.792  22.792  0.00  0.00     0.110 A 
ATOM      4  C   UNL d   1     -49.411  13.220  22.954  0.00  0.00     0.303 C 
ATOM      5  C   UNL d   1     -47.349  12.700  23.060  0.00  0.00     0.103 A 
ATOM      6  C   UNL d   1     -47.296  13.483  22.861  0.00  0.00     0.042 A 
ATOM      7  O   UNL d   1     -49.779  13.984  22.764  0.00  0.00    -0.263 OA
ENDROOT
BRANCH   3   8
ATOM      8  C   UNL d   1     -48.263  14.568  22.597  0.00  0.00     0.118 A 
ATOM      9  O   UNL d   1     -48.532  15.130  23.121  0.00  0.00    -0.304 OA
ATOM     10  C   UNL d   1     -48.670  15.836  22.694  0.00  0.00     0.123 A 
ATOM     11  C   UNL d   1     -48.480  15.688  21.905  0.00  0.00     0.029 A 
ATOM     12  C   UNL d   1     -48.226  14.892  21.856  0.00  0.00     0.028 A 
ENDBRANCH   3   8
BRANCH   4  13
ATOM     13  C   UNL d   1     -49.893  12.583  23.122  0.00  0.00     0.158 A 
ATOM     14  O   UNL d   1     -49.771  12.011  23.697  0.00  0.00    -0.300 OA
ATOM     15  C   UNL d   1     -50.388  11.472  23.678  0.00  0.00     0.123 A 
ATOM     16  C   UNL d   1     -50.905  11.707  23.083  0.00  0.00     0.029 A 
ATOM     17  C   UNL d   1     -50.604  12.396  22.734  0.00  0.00     0.032 A 
ENDBRANCH   4  13
BRANCH   5  18
ATOM     18  C   UNL d   1     -46.725  12.163  23.189  0.00  0.00     0.019 A 
ATOM     19  C   UNL d   1     -45.995  12.362  22.926  0.00  0.00     0.002 A 
ATOM     20  C   UNL d   1     -45.355  11.854  23.037  0.00  0.00     0.000 A 
ATOM     21  C   UNL d   1     -45.472  11.141  23.418  0.00  0.00     0.000 A 
ATOM     22  C   UNL d   1     -46.225  10.917  23.698  0.00  0.00     0.000 A 
ATOM     23  C   UNL d   1     -44.829  10.637  23.526  0.00  0.00     0.000 C 
ATOM     24  C   UNL d   1     -46.870  11.453  23.575  0.00  0.00     0.002 A 
ENDBRANCH   5  18
TORSDOF 3
ENDMDL
MODEL 5
REMARK VINA RESULT:      -5.3      8.975     11.430
REMARK  3 active torsions:
REMARK  status: ('A' for Active; 'I' for Inactive)
REMARK       I    between atoms: C_4  and  N_1 
REMARK    1  A    between atoms: C_7  and  C_3 
REMARK    2  A    between atoms: C_9  and  C_4 
REMARK    3  A    between atoms: C_8  and  C_5 
ROOT
ATOM      1  N   UNL d   1     -38.753  13.753  17.576  0.00  0.00    -0.191 N 
ATOM      2  N   UNL d   1     -39.135  13.700  18.297  0.00  0.00    -0.163 NA
ATOM      3  C   UNL d   1     -38.926  14.521  17.272  0.00  0.00     0.110 A 
ATOM      4  C   UNL d   1     -38.297  13.188  17.217  0.00  0.00     0.303 C 
ATOM      5  C   UNL d   1     -39.537  14.405  18.448  0.00  0.00     0.103 A 
ATOM      6  C   UNL d   1     -39.409  14.905  17.824  0.00  0.00     0.042 A 
ATOM      7  O   UNL d   1     -37.941  13.365  16.445  0.00  0.00    -0.263 OA
ENDROOT
BRANCH   3   8
ATOM      8  C   UNL d   1     -38.658  14.828  16.554  0.00  0.00     0.118 A 
ATOM      9  O   UNL d   1     -38.999  14.690  15.828  0.00  0.00    -0.304 OA
ATOM     10  C   UNL d   1     -38.555  15.105  15.252  0.00  0.00     0.123 A 
ATOM     11  C   UNL d   1     -37.942  15.493  15.646  0.00  0.00     0.029 A 
ATOM     12  C   UNL d   1     -38.017  15.313  16.459  0.00  0.00     0.028 A 
ENDBRANCH   3   8
BRANCH   4  13
ATOM     13  C   UNL d   1     -38.159  12.457  17.555  0.00  0.00     0.158 A 
ATOM     14  O   UNL d   1     -38.069  12.293  18.354  0.00  0.00    -0.300 OA
ATOM     15  C   UNL d   1     -37.940  11.489  18.452  0.00  0.00     0.123 A 
ATOM     16  C   UNL d   1     -37.949  11.143  17.705  0.00  0.00     0.029 A 
ATOM     17  C   UNL d   1     -38.085  11.739  17.144  0.00  0.00     0.032 A 
ENDBRANCH   4  13
BRANCH   5  18
ATOM     18  C   UNL d   1     -39.988  14.549  19.134  0.00  0.00     0.019 A 
ATOM     19  C   UNL d   1     -40.760  14.746  19.043  0.00  0.00     0.002 A 
ATOM     20  C   UNL d   1     -41.236  14.895  19.699  0.00  0.00     0.000 A 
ATOM     21  C   UNL d   1     -40.912  14.842  20.448  0.00  0.00     0.000 A 
ATOM     22  C   UNL d   1     -40.111  14.639  20.561  0.00  0.00     0.000 A 
ATOM     23  C   UNL d   1     -41.393  14.992  21.100  0.00  0.00     0.000 C 
ATOM     24  C   UNL d   1     -39.639  14.489  19.874  0.00  0.00     0.002 A 
ENDBRANCH   5  18
TORSDOF 3
ENDMDL
MODEL 6
REMARK VINA RESULT:      -5.2      6.691      9.240
REMARK  3 active torsions:
REMARK  status: ('A' for Active; 'I' for Inactive)
REMARK       I    between atoms: C_4  and  N_1 
REMARK    1  A    between atoms: C_7  and  C_3 
REMARK    2  A    between atoms: C_9  and  C_4 
REMARK    3  A    between atoms: C_8  and  C_5 
ROOT
ATOM      1  N   UNL d   1     -40.607  14.274  20.551  0.00  0.00    -0.191 N 
ATOM      2  N   UNL d   1     -40.954  14.422  19.826  0.00  0.00    -0.163 NA
ATOM      3  C   UNL d   1     -39.801  14.515  20.482  0.00  0.00     0.110 A 
ATOM      4  C   UNL d   1     -40.957  13.959  21.210  0.00  0.00     0.303 C 
ATOM      5  C   UNL d   1     -40.394  14.745  19.313  0.00  0.00     0.103 A 
ATOM      6  C   UNL d   1     -39.692  14.801  19.713  0.00  0.00     0.042 A 
ATOM      7  O   UNL d   1     -40.479  13.849  21.927  0.00  0.00    -0.263 OA
ENDROOT
BRANCH   3   8
ATOM      8  C   UNL d   1     -39.231  14.471  21.077  0.00  0.00     0.118 A 
ATOM      9  O   UNL d   1     -38.760  13.825  21.230  0.00  0.00    -0.304 OA
ATOM     10  C   UNL d   1     -38.263  14.016  21.876  0.00  0.00     0.123 A 
ATOM     11  C   UNL d   1     -38.444  14.787  22.107  0.00  0.00     0.029 A 
ATOM     12  C   UNL d   1     -39.051  15.062  21.600  0.00  0.00     0.028 A 
ENDBRANCH   3   8
BRANCH   4  13
ATOM     13  C   UNL d   1     -41.744  13.741  21.226  0.00  0.00     0.158 A 
ATOM     14  O   UNL d   1     -42.389  14.232  21.353  0.00  0.00    -0.300 OA
ATOM     15  C   UNL d   1     -43.078  13.787  21.323  0.00  0.00     0.123 A 
ATOM     16  C   UNL d   1     -42.863  13.006  21.175  0.00  0.00     0.029 A 
ATOM     17  C   UNL d   1     -42.036  12.971  21.114  0.00  0.00     0.032 A 
ENDBRANCH   4  13
BRANCH   5  18
ATOM     18  C   UNL d   1     -40.552  14.965  18.525  0.00  0.00     0.019 A 
ATOM     19  C   UNL d   1     -40.906  15.672  18.394  0.00  0.00     0.002 A 
ATOM     20  C   UNL d   1     -41.076  15.921  17.627  0.00  0.00     0.000 A 
ATOM     21  C   UNL d   1     -40.881  15.439  16.998  0.00  0.00     0.000 A 
ATOM     22  C   UNL d   1     -40.512  14.700  17.115  0.00  0.00     0.000 A 
ATOM     23  C   UNL d   1     -41.054  15.694  16.233  0.00  0.00     0.000 C 
ATOM     24  C   UNL d   1     -40.345  14.462  17.910  0.00  0.00     0.002 A 
ENDBRANCH   5  18
TORSDOF 3
ENDMDL
