MODEL 1
REMARK VINA RESULT:      17.8      0.000      0.000
REMARK  2 active torsions:
REMARK  status: ('A' for Active; 'I' for Inactive)
REMARK    1  A    between atoms: N_2  and  S_1 
REMARK    2  A    between atoms: C_4  and  S_1 
ROOT
ATOM      1  N   UNL d   1      46.275 -18.724  44.136  0.00  0.00    -0.231 N 
ATOM      2  C   UNL d   1      46.371 -19.022  43.367  0.00  0.00     0.075 A 
ATOM      3  C   UNL d   1      46.555 -19.821  43.236  0.00  0.00     0.017 A 
ATOM      4  C   UNL d   1      46.366 -19.245  44.786  0.00  0.00     0.092 A 
ATOM      5  C   UNL d   1      46.280 -18.500  42.718  0.00  0.00     0.018 A 
ATOM      6  C   UNL d   1      46.550 -20.044  44.654  0.00  0.00     0.020 A 
ATOM      7  C   UNL d   1      46.642 -20.322  43.874  0.00  0.00     0.003 A 
ATOM      8  C   UNL d   1      46.647 -20.100  42.460  0.00  0.00     0.002 A 
ATOM      9  C   UNL d   1      46.374 -18.789  41.950  0.00  0.00     0.002 A 
ATOM     10  C   UNL d   1      46.558 -19.589  41.818  0.00  0.00     0.000 A 
ENDROOT
BRANCH   1  11
ATOM     11  S   UNL d   1      46.091 -17.922  44.259  0.00  0.00     0.271 S 
ATOM     12  O   UNL d   1      45.599 -17.906  43.661  0.00  0.00    -0.200 OA
ATOM     13  O   UNL d   1      46.609 -17.894  44.908  0.00  0.00    -0.200 OA
BRANCH  11  14
ATOM     14  C   UNL d   1      45.917 -17.176  44.369  0.00  0.00     0.104 A 
ATOM     15  C   UNL d   1      45.339 -16.980  44.847  0.00  0.00     0.015 A 
ATOM     16  C   UNL d   1      45.168 -16.232  44.955  0.00  0.00     0.022 A 
ATOM     17  C   UNL d   1      45.572 -15.682  44.588  0.00  0.00     0.103 A 
ATOM     18  C   UNL d   1      46.153 -15.888  44.109  0.00  0.00     0.022 A 
ATOM     19  N   UNL d   1      45.399 -14.907  44.697  0.00  0.00    -0.148 N 
ATOM     20  C   UNL d   1      46.325 -16.626  44.000  0.00  0.00     0.015 A 
ENDBRANCH  11  14
ENDBRANCH   1  11
TORSDOF 2
ENDMDL
MODEL 2
REMARK VINA RESULT:      18.9      0.541      1.499
REMARK  2 active torsions:
REMARK  status: ('A' for Active; 'I' for Inactive)
REMARK    1  A    between atoms: N_2  and  S_1 
REMARK    2  A    between atoms: C_4  and  S_1 
ROOT
ATOM      1  N   UNL d   1      46.248 -18.158  43.199  0.00  0.00    -0.231 N 
ATOM      2  C   UNL d   1      46.351 -18.851  43.646  0.00  0.00     0.075 A 
ATOM      3  C   UNL d   1      46.544 -19.572  43.283  0.00  0.00     0.017 A 
ATOM      4  C   UNL d   1      46.343 -18.198  42.367  0.00  0.00     0.092 A 
ATOM      5  C   UNL d   1      46.256 -18.812  44.478  0.00  0.00     0.018 A 
ATOM      6  C   UNL d   1      46.536 -18.919  42.004  0.00  0.00     0.020 A 
ATOM      7  C   UNL d   1      46.635 -19.601  42.473  0.00  0.00     0.003 A 
ATOM      8  C   UNL d   1      46.643 -20.252  43.747  0.00  0.00     0.002 A 
ATOM      9  C   UNL d   1      46.356 -19.496  44.930  0.00  0.00     0.002 A 
ATOM     10  C   UNL d   1      46.550 -20.218  44.566  0.00  0.00     0.000 A 
ENDROOT
BRANCH   1  11
ATOM     11  S   UNL d   1      46.054 -17.441  43.570  0.00  0.00     0.271 S 
ATOM     12  O   UNL d   1      45.514 -17.271  43.042  0.00  0.00    -0.200 OA
ATOM     13  O   UNL d   1      46.623 -17.581  44.159  0.00  0.00    -0.200 OA
BRANCH  11  14
ATOM     14  C   UNL d   1      45.871 -16.771  43.913  0.00  0.00     0.104 A 
ATOM     15  C   UNL d   1      45.454 -16.772  44.567  0.00  0.00     0.015 A 
ATOM     16  C   UNL d   1      45.273 -16.101  44.907  0.00  0.00     0.022 A 
ATOM     17  C   UNL d   1      45.506 -15.430  44.596  0.00  0.00     0.103 A 
ATOM     18  C   UNL d   1      45.925 -15.438  43.938  0.00  0.00     0.022 A 
ATOM     19  N   UNL d   1      45.320 -14.732  44.945  0.00  0.00    -0.148 N 
ATOM     20  C   UNL d   1      46.106 -16.099  43.599  0.00  0.00     0.015 A 
ENDBRANCH  11  14
ENDBRANCH   1  11
TORSDOF 2
ENDMDL
