MODEL 1
REMARK VINA RESULT:      76.1      0.000      0.000
REMARK  3 active torsions:
REMARK  status: ('A' for Active; 'I' for Inactive)
REMARK    1  A    between atoms: N_9  and  C_7 
REMARK       I    between atoms: C_10  and  N_9 
REMARK    2  A    between atoms: C_13  and  C_10 
REMARK    3  A    between atoms: O_23  and  C_18 
ROOT
ATOM      1  C   UNL d   1     -55.305-101.532 -44.244  0.00  0.00     0.081 A 
ATOM      2  C   UNL d   1     -55.439-101.355 -45.032  0.00  0.00     0.301 A 
ATOM      3  C   UNL d   1     -55.518-101.010 -43.645  0.00  0.00     0.090 A 
ATOM      4  O   UNL d   1     -55.799-100.630 -45.230  0.00  0.00    -0.273 OA
ATOM      5  N   UNL d   1     -55.378-101.200 -42.852  0.00  0.00    -0.226 NA
ATOM      6  C   UNL d   1     -55.875-100.293 -43.845  0.00  0.00     0.041 A 
ATOM      7  C   UNL d   1     -55.017-101.926 -42.663  0.00  0.00     0.166 A 
ATOM      8  C   UNL d   1     -54.945-102.255 -44.049  0.00  0.00     0.010 A 
ATOM      9  C   UNL d   1     -56.017-100.100 -44.637  0.00  0.00     0.105 A 
ATOM     10  C   UNL d   1     -54.802-102.452 -43.258  0.00  0.00     0.039 A 
ATOM     11  O   UNL d   1     -55.222-101.883 -45.632  0.00  0.00    -0.259 OA
ATOM     12  C   UNL d   1     -56.092 -99.763 -43.248  0.00  0.00     0.004 A 
ATOM     13  C   UNL d   1     -54.733-102.775 -44.652  0.00  0.00     0.000 C 
ATOM     14  C   UNL d   1     -56.369 -99.391 -44.836  0.00  0.00     0.025 A 
ATOM     15  C   UNL d   1     -56.448 -99.049 -43.453  0.00  0.00     0.000 A 
ATOM     16  C   UNL d   1     -56.587 -98.863 -44.248  0.00  0.00     0.002 A 
ENDROOT
BRANCH   7  17
ATOM     17  N   UNL d   1     -54.874-102.121 -41.863  0.00  0.00    -0.189 NA
ATOM     18  C   UNL d   1     -55.266-101.710 -41.266  0.00  0.00     0.281 C 
ATOM     19  O   UNL d   1     -55.801-101.105 -41.461  0.00  0.00    -0.265 OA
BRANCH  18  20
ATOM     20  C   UNL d   1     -55.129-101.897 -40.486  0.00  0.00     0.058 A 
ATOM     21  C   UNL d   1     -55.084-101.294 -39.911  0.00  0.00     0.007 A 
ATOM     22  C   UNL d   1     -54.944-101.483 -39.118  0.00  0.00     0.024 A 
ATOM     23  C   UNL d   1     -54.853-102.284 -38.918  0.00  0.00     0.094 A 
ATOM     24  C   UNL d   1     -54.897-102.878 -39.482  0.00  0.00     0.024 A 
ATOM     25  C   UNL d   1     -55.035-102.678 -40.264  0.00  0.00     0.007 A 
BRANCH  23  26
ATOM     26  O   UNL d   1     -54.712-102.488 -38.120  0.00  0.00    -0.328 OA
ATOM     27  C   UNL d   1     -55.312-102.798 -37.643  0.00  0.00     0.181 C 
ENDBRANCH  23  26
ENDBRANCH  18  20
ENDBRANCH   7  17
TORSDOF 3
ENDMDL
