MODEL 1
REMARK VINA RESULT:      31.7      0.000      0.000
REMARK  5 active torsions:
REMARK  status: ('A' for Active; 'I' for Inactive)
REMARK    1  A    between atoms: C_8  and  N_1 
REMARK    2  A    between atoms: C_5  and  C_21 
REMARK    3  A    between atoms: C_9  and  C_12 
REMARK       I    between atoms: N_20  and  C_9 
REMARK    4  A    between atoms: C_22  and  N_20 
REMARK    5  A    between atoms: C_21  and  C_22 
ROOT
ATOM      1  C   UNL d   1      46.459 -17.994  40.028  0.00  0.00     0.026 C 
ENDROOT
BRANCH   1   2
ATOM      2  C   UNL d   1      46.502 -18.482  40.687  0.00  0.00     0.059 A 
ATOM      3  C   UNL d   1      46.587 -19.306  40.585  0.00  0.00     0.279 A 
ATOM      4  N   UNL d   1      46.630 -19.802  41.248  0.00  0.00    -0.208 NA
ATOM      5  O   UNL d   1      46.628 -19.626  39.826  0.00  0.00    -0.265 OA
ATOM      6  C   UNL d   1      46.589 -19.476  42.016  0.00  0.00     0.085 A 
ATOM      7  C   UNL d   1      46.504 -18.658  42.109  0.00  0.00     0.018 A 
ATOM      8  C   UNL d   1      46.633 -19.979  42.673  0.00  0.00     0.019 A 
ATOM      9  C   UNL d   1      46.461 -18.163  41.451  0.00  0.00     0.006 A 
ATOM     10  C   UNL d   1      46.463 -18.339  42.876  0.00  0.00     0.002 A 
ATOM     11  C   UNL d   1      46.506 -18.835  43.534  0.00  0.00     0.000 A 
ATOM     12  C   UNL d   1      46.592 -19.659  43.432  0.00  0.00     0.002 A 
ATOM     13  C   UNL d   1      46.466 -18.523  44.292  0.00  0.00     0.000 C 
ATOM     14  C   UNL d   1      46.635 -20.154  44.090  0.00  0.00     0.000 C 
ENDBRANCH   1   2
BRANCH   1  15
ATOM     15  C   UNL d   1      45.738 -17.705  39.764  0.00  0.00     0.102 C 
BRANCH  15  16
ATOM     16  N   UNL d   1      45.678 -17.293  39.049  0.00  0.00    -0.206 NA
ATOM     17  C   UNL d   1      44.964 -16.937  38.829  0.00  0.00     0.279 C 
ATOM     18  O   UNL d   1      44.306 -16.989  39.320  0.00  0.00    -0.265 OA
BRANCH  17  19
ATOM     19  C   UNL d   1      44.913 -16.527  38.111  0.00  0.00     0.059 A 
ATOM     20  C   UNL d   1      45.424 -15.920  37.947  0.00  0.00     0.028 A 
ATOM     21  C   UNL d   1      45.392 -15.504  37.248  0.00  0.00     0.127 A 
ATOM     22  C   UNL d   1      44.823 -15.707  36.693  0.00  0.00     0.024 A 
ATOM     23  C   UNL d   1      44.294 -16.313  36.828  0.00  0.00     0.002 A 
ATOM     24  C   UNL d   1      44.347 -16.727  37.554  0.00  0.00     0.005 A 
BRANCH  21  25
ATOM     25  N   UNL d   1      45.910 -14.885  37.077  0.00  0.00    -0.114 N 
ATOM     26  O   UNL d   1      46.573 -15.035  36.565  0.00  0.00    -0.532 OA
ATOM     27  O   UNL d   1      45.821 -14.115  37.379  0.00  0.00    -0.532 OA
ENDBRANCH  21  25
ENDBRANCH  17  19
ENDBRANCH  15  16
ENDBRANCH   1  15
TORSDOF 5
ENDMDL
MODEL 2
REMARK VINA RESULT:      33.5      0.996      1.137
REMARK  5 active torsions:
REMARK  status: ('A' for Active; 'I' for Inactive)
REMARK    1  A    between atoms: C_8  and  N_1 
REMARK    2  A    between atoms: C_5  and  C_21 
REMARK    3  A    between atoms: C_9  and  C_12 
REMARK       I    between atoms: N_20  and  C_9 
REMARK    4  A    between atoms: C_22  and  N_20 
REMARK    5  A    between atoms: C_21  and  C_22 
ROOT
ATOM      1  C   UNL d   1      46.539 -17.935  40.301  0.00  0.00     0.026 C 
ENDROOT
BRANCH   1   2
ATOM      2  C   UNL d   1      46.558 -18.451  40.938  0.00  0.00     0.059 A 
ATOM      3  C   UNL d   1      46.613 -19.273  40.801  0.00  0.00     0.279 A 
ATOM      4  N   UNL d   1      46.632 -19.798  41.442  0.00  0.00    -0.208 NA
ATOM      5  O   UNL d   1      46.647 -19.562  40.029  0.00  0.00    -0.265 OA
ATOM      6  C   UNL d   1      46.597 -19.503  42.224  0.00  0.00     0.085 A 
ATOM      7  C   UNL d   1      46.544 -18.688  42.352  0.00  0.00     0.018 A 
ATOM      8  C   UNL d   1      46.617 -20.035  42.859  0.00  0.00     0.019 A 
ATOM      9  C   UNL d   1      46.524 -18.163  41.715  0.00  0.00     0.006 A 
ATOM     10  C   UNL d   1      46.509 -18.401  43.131  0.00  0.00     0.002 A 
ATOM     11  C   UNL d   1      46.529 -18.925  43.768  0.00  0.00     0.000 A 
ATOM     12  C   UNL d   1      46.583 -19.747  43.631  0.00  0.00     0.002 A 
ATOM     13  C   UNL d   1      46.495 -18.644  44.538  0.00  0.00     0.000 C 
ATOM     14  C   UNL d   1      46.603 -20.271  44.267  0.00  0.00     0.000 C 
ENDBRANCH   1   2
BRANCH   1  15
ATOM     15  C   UNL d   1      45.828 -17.726  39.948  0.00  0.00     0.102 C 
BRANCH  15  16
ATOM     16  N   UNL d   1      45.798 -17.156  39.349  0.00  0.00    -0.206 NA
ATOM     17  C   UNL d   1      45.159 -17.135  38.823  0.00  0.00     0.279 C 
ATOM     18  O   UNL d   1      44.547 -17.680  38.891  0.00  0.00    -0.265 OA
BRANCH  17  19
ATOM     19  C   UNL d   1      45.137 -16.561  38.226  0.00  0.00     0.059 A 
ATOM     20  C   UNL d   1      44.446 -16.400  37.835  0.00  0.00     0.028 A 
ATOM     21  C   UNL d   1      44.403 -15.841  37.246  0.00  0.00     0.127 A 
ATOM     22  C   UNL d   1      45.081 -15.427  37.042  0.00  0.00     0.024 A 
ATOM     23  C   UNL d   1      45.792 -15.565  37.417  0.00  0.00     0.002 A 
ATOM     24  C   UNL d   1      45.812 -16.146  38.020  0.00  0.00     0.005 A 
BRANCH  21  25
ATOM     25  N   UNL d   1      43.700 -15.674  36.844  0.00  0.00    -0.114 N 
ATOM     26  O   UNL d   1      43.370 -16.266  36.330  0.00  0.00    -0.532 OA
ATOM     27  O   UNL d   1      43.294 -14.952  36.914  0.00  0.00    -0.532 OA
ENDBRANCH  21  25
ENDBRANCH  17  19
ENDBRANCH  15  16
ENDBRANCH   1  15
TORSDOF 5
ENDMDL
