MODEL 1
REMARK VINA RESULT:      -4.3      0.000      0.000
REMARK  6 active torsions:
REMARK  status: ('A' for Active; 'I' for Inactive)
REMARK    1  A    between atoms: N_2  and  S_1 
REMARK    2  A    between atoms: C_3  and  S_1 
REMARK    3  A    between atoms: O_13  and  C_8 
REMARK    4  A    between atoms: C_14  and  O_13 
REMARK    5  A    between atoms: C_15  and  C_14 
REMARK    6  A    between atoms: C_16  and  C_15 
ROOT
ATOM      1  C   UNL d   1      56.626   0.045  32.273  0.00  0.00     0.104 A 
ATOM      2  C   UNL d   1      56.864   0.681  31.803  0.00  0.00     0.015 A 
ATOM      3  C   UNL d   1      56.759  -0.703  32.053  0.00  0.00     0.015 A 
ATOM      4  C   UNL d   1      57.393  -0.222  30.851  0.00  0.00     0.100 A 
ATOM      5  C   UNL d   1      57.241   0.548  31.104  0.00  0.00     0.025 A 
ATOM      6  C   UNL d   1      57.154  -0.859  31.321  0.00  0.00     0.025 A 
ENDROOT
BRANCH   1   7
ATOM      7  S   UNL d   1      56.236   0.198  32.996  0.00  0.00     0.271 S 
ATOM      8  O   UNL d   1      56.870   0.681  33.213  0.00  0.00    -0.200 OA
ATOM      9  O   UNL d   1      55.600  -0.295  32.763  0.00  0.00    -0.200 OA
BRANCH   7  10
ATOM     10  N   UNL d   1      55.840   0.352  33.727  0.00  0.00    -0.229 N 
ATOM     11  C   UNL d   1      55.017   0.422  33.598  0.00  0.00     0.092 A 
ATOM     12  C   UNL d   1      54.433   0.571  34.160  0.00  0.00     0.020 A 
ATOM     13  C   UNL d   1      54.529   0.682  34.954  0.00  0.00     0.002 A 
ATOM     14  C   UNL d   1      55.186   0.682  35.424  0.00  0.00     0.002 A 
ATOM     15  C   UNL d   1      55.965   0.559  35.170  0.00  0.00     0.020 A 
ATOM     16  C   UNL d   1      56.261   0.414  34.431  0.00  0.00     0.092 A 
ENDBRANCH   7  10
ENDBRANCH   1   7
BRANCH   4  17
ATOM     17  O   UNL d   1      57.778  -0.346  30.135  0.00  0.00    -0.305 OA
BRANCH  17  18
ATOM     18  C   UNL d   1      58.548  -0.112  30.049  0.00  0.00     0.123 C 
BRANCH  18  19
ATOM     19  C   UNL d   1      58.956  -0.267  29.336  0.00  0.00     0.027 C 
BRANCH  19  20
ATOM     20  C   UNL d   1      59.713   0.037  29.210  0.00  0.00     0.002 C 
ATOM     21  C   UNL d   1      59.947   0.326  28.462  0.00  0.00     0.000 C 
ENDBRANCH  19  20
ENDBRANCH  18  19
ENDBRANCH  17  18
ENDBRANCH   4  17
TORSDOF 6
ENDMDL
MODEL 2
REMARK VINA RESULT:      -4.0      1.322      5.082
REMARK  6 active torsions:
REMARK  status: ('A' for Active; 'I' for Inactive)
REMARK    1  A    between atoms: N_2  and  S_1 
REMARK    2  A    between atoms: C_3  and  S_1 
REMARK    3  A    between atoms: O_13  and  C_8 
REMARK    4  A    between atoms: C_14  and  O_13 
REMARK    5  A    between atoms: C_15  and  C_14 
REMARK    6  A    between atoms: C_16  and  C_15 
ROOT
ATOM      1  C   UNL d   1      57.192  -0.085  31.297  0.00  0.00     0.104 A 
ATOM      2  C   UNL d   1      56.772   0.602  31.483  0.00  0.00     0.015 A 
ATOM      3  C   UNL d   1      57.069  -0.761  31.688  0.00  0.00     0.015 A 
ATOM      4  C   UNL d   1      56.079  -0.098  32.498  0.00  0.00     0.100 A 
ATOM      5  C   UNL d   1      56.225   0.594  32.075  0.00  0.00     0.025 A 
ATOM      6  C   UNL d   1      56.498  -0.785  32.312  0.00  0.00     0.025 A 
ENDROOT
BRANCH   1   7
ATOM      7  S   UNL d   1      57.756  -0.061  30.682  0.00  0.00     0.271 S 
ATOM      8  O   UNL d   1      57.353  -0.682  30.314  0.00  0.00    -0.200 OA
ATOM      9  O   UNL d   1      58.156   0.568  31.064  0.00  0.00    -0.200 OA
BRANCH   7  10
ATOM     10  N   UNL d   1      58.328  -0.036  30.059  0.00  0.00    -0.229 N 
ATOM     11  C   UNL d   1      58.062   0.465  29.445  0.00  0.00     0.092 A 
ATOM     12  C   UNL d   1      58.450   0.643  28.740  0.00  0.00     0.020 A 
ATOM     13  C   UNL d   1      59.168   0.372  28.490  0.00  0.00     0.002 A 
ATOM     14  C   UNL d   1      59.704  -0.128  28.829  0.00  0.00     0.002 A 
ATOM     15  C   UNL d   1      59.624  -0.500  29.565  0.00  0.00     0.020 A 
ATOM     16  C   UNL d   1      59.026  -0.467  30.110  0.00  0.00     0.092 A 
ENDBRANCH   7  10
ENDBRANCH   1   7
BRANCH   4  17
ATOM     17  O   UNL d   1      55.518  -0.093  33.100  0.00  0.00    -0.305 OA
BRANCH  17  18
ATOM     18  C   UNL d   1      55.621   0.389  33.741  0.00  0.00     0.123 C 
BRANCH  18  19
ATOM     19  C   UNL d   1      55.143   0.294  34.420  0.00  0.00     0.027 C 
BRANCH  19  20
ATOM     20  C   UNL d   1      55.329   0.682  35.124  0.00  0.00     0.002 C 
ATOM     21  C   UNL d   1      54.808   0.675  35.776  0.00  0.00     0.000 C 
ENDBRANCH  19  20
ENDBRANCH  18  19
ENDBRANCH  17  18
ENDBRANCH   4  17
TORSDOF 6
ENDMDL
MODEL 3
REMARK VINA RESULT:      -1.9      9.965     10.824
REMARK  6 active torsions:
REMARK  status: ('A' for Active; 'I' for Inactive)
REMARK    1  A    between atoms: N_2  and  S_1 
REMARK    2  A    between atoms: C_3  and  S_1 
REMARK    3  A    between atoms: O_13  and  C_8 
REMARK    4  A    between atoms: C_14  and  O_13 
REMARK    5  A    between atoms: C_15  and  C_14 
REMARK    6  A    between atoms: C_16  and  C_15 
ROOT
ATOM      1  C   UNL d   1      58.474  -9.752  31.861  0.00  0.00     0.104 A 
ATOM      2  C   UNL d   1      57.955  -9.680  32.500  0.00  0.00     0.015 A 
ATOM      3  C   UNL d   1      59.254  -9.815  31.969  0.00  0.00     0.015 A 
ATOM      4  C   UNL d   1      59.051  -9.738  33.393  0.00  0.00     0.100 A 
ATOM      5  C   UNL d   1      58.241  -9.674  33.253  0.00  0.00     0.025 A 
ATOM      6  C   UNL d   1      59.569  -9.810  32.754  0.00  0.00     0.025 A 
ENDROOT
BRANCH   1   7
ATOM      7  S   UNL d   1      58.164  -9.757  31.086  0.00  0.00     0.271 S 
ATOM      8  O   UNL d   1      58.937  -9.736  30.796  0.00  0.00    -0.200 OA
ATOM      9  O   UNL d   1      57.384  -9.778  31.392  0.00  0.00    -0.200 OA
BRANCH   7  10
ATOM     10  N   UNL d   1      57.848  -9.763  30.301  0.00  0.00    -0.229 N 
ATOM     11  C   UNL d   1      58.467  -9.721  29.742  0.00  0.00     0.092 A 
ATOM     12  C   UNL d   1      58.401  -9.712  28.920  0.00  0.00     0.020 A 
ATOM     13  C   UNL d   1      57.726  -9.742  28.479  0.00  0.00     0.002 A 
ATOM     14  C   UNL d   1      56.947  -9.787  28.687  0.00  0.00     0.002 A 
ATOM     15  C   UNL d   1      56.652  -9.815  29.461  0.00  0.00     0.020 A 
ATOM     16  C   UNL d   1      57.037  -9.805  30.172  0.00  0.00     0.092 A 
ENDBRANCH   7  10
ENDBRANCH   1   7
BRANCH   4  17
ATOM     17  O   UNL d   1      59.330  -9.731  34.167  0.00  0.00    -0.305 OA
BRANCH  17  18
ATOM     18  C   UNL d   1      59.632  -9.047  34.477  0.00  0.00     0.123 C 
BRANCH  18  19
ATOM     19  C   UNL d   1      60.097  -9.071  35.171  0.00  0.00     0.027 C 
BRANCH  19  20
ATOM     20  C   UNL d   1      59.930  -8.573  35.807  0.00  0.00     0.002 C 
ATOM     21  C   UNL d   1      60.468  -7.983  36.052  0.00  0.00     0.000 C 
ENDBRANCH  19  20
ENDBRANCH  18  19
ENDBRANCH  17  18
ENDBRANCH   4  17
TORSDOF 6
ENDMDL
MODEL 4
REMARK VINA RESULT:      -1.4     10.032     10.335
REMARK  6 active torsions:
REMARK  status: ('A' for Active; 'I' for Inactive)
REMARK    1  A    between atoms: N_2  and  S_1 
REMARK    2  A    between atoms: C_3  and  S_1 
REMARK    3  A    between atoms: O_13  and  C_8 
REMARK    4  A    between atoms: C_14  and  O_13 
REMARK    5  A    between atoms: C_15  and  C_14 
REMARK    6  A    between atoms: C_16  and  C_15 
ROOT
ATOM      1  C   UNL d   1      59.006  -9.652  32.915  0.00  0.00     0.104 A 
ATOM      2  C   UNL d   1      58.180  -9.679  32.910  0.00  0.00     0.015 A 
ATOM      3  C   UNL d   1      59.423  -9.678  32.244  0.00  0.00     0.015 A 
ATOM      4  C   UNL d   1      58.193  -9.762  31.498  0.00  0.00     0.100 A 
ATOM      5  C   UNL d   1      57.782  -9.733  32.212  0.00  0.00     0.025 A 
ATOM      6  C   UNL d   1      59.019  -9.735  31.503  0.00  0.00     0.025 A 
ENDROOT
BRANCH   1   7
ATOM      7  S   UNL d   1      59.405  -9.596  33.646  0.00  0.00     0.271 S 
ATOM      8  O   UNL d   1      58.705  -9.818  34.024  0.00  0.00    -0.200 OA
ATOM      9  O   UNL d   1      60.109  -9.372  33.251  0.00  0.00    -0.200 OA
BRANCH   7  10
ATOM     10  N   UNL d   1      59.811  -9.539  34.386  0.00  0.00    -0.229 N 
ATOM     11  C   UNL d   1      59.260  -9.511  35.014  0.00  0.00     0.092 A 
ATOM     12  C   UNL d   1      59.422  -9.455  35.820  0.00  0.00     0.020 A 
ATOM     13  C   UNL d   1      60.144  -9.415  36.177  0.00  0.00     0.002 A 
ATOM     14  C   UNL d   1      60.895  -9.418  35.878  0.00  0.00     0.002 A 
ATOM     15  C   UNL d   1      61.098  -9.465  35.077  0.00  0.00     0.020 A 
ATOM     16  C   UNL d   1      60.632  -9.518  34.417  0.00  0.00     0.092 A 
ENDBRANCH   7  10
ENDBRANCH   1   7
BRANCH   4  17
ATOM     17  O   UNL d   1      57.775  -9.817  30.791  0.00  0.00    -0.305 OA
BRANCH  17  18
ATOM     18  C   UNL d   1      58.163  -9.720  30.088  0.00  0.00     0.123 C 
BRANCH  18  19
ATOM     19  C   UNL d   1      57.752  -9.818  29.366  0.00  0.00     0.027 C 
BRANCH  19  20
ATOM     20  C   UNL d   1      57.504  -9.163  28.931  0.00  0.00     0.002 C 
ATOM     21  C   UNL d   1      56.736  -9.122  28.605  0.00  0.00     0.000 C 
ENDBRANCH  19  20
ENDBRANCH  18  19
ENDBRANCH  17  18
ENDBRANCH   4  17
TORSDOF 6
ENDMDL
