MODEL 1
REMARK VINA RESULT:      -8.3      0.000      0.000
REMARK  2 active torsions:
REMARK  status: ('A' for Active; 'I' for Inactive)
REMARK    1  A    between atoms: N_7  and  C_2 
REMARK    2  A    between atoms: C_10  and  N_7 
ROOT
ATOM      1  N   UNL d   1      53.328  32.279  53.662  0.00  0.00     0.002 N 
ATOM      2  C   UNL d   1      52.787  32.579  53.116  0.00  0.00     0.773 A 
ATOM      3  C   UNL d   1      53.479  31.471  53.675  0.00  0.00     0.317 A 
ATOM      4  N   UNL d   1      52.400  32.068  52.584  0.00  0.00     0.046 NA
ATOM      5  N   UNL d   1      52.558  31.265  52.605  0.00  0.00    -0.127 NA
ATOM      6  C   UNL d   1      53.092  30.960  53.143  0.00  0.00     0.162 A 
ATOM      7  O   UNL d   1      54.038  31.173  54.242  0.00  0.00    -0.263 OA
ATOM      8  N   UNL d   1      53.709  32.780  54.184  0.00  0.00    -0.023 N 
ATOM      9  C   UNL d   1      53.251  30.136  53.161  0.00  0.00     0.028 C 
ENDROOT
BRANCH   2  10
ATOM     10  N   UNL d   1      52.638  33.415  53.111  0.00  0.00    -0.058 NA
BRANCH  10  11
ATOM     11  C   UNL d   1      51.894  33.719  52.890  0.00  0.00     0.100 A 
ATOM     12  C   UNL d   1      51.795  34.023  52.140  0.00  0.00     0.020 A 
ATOM     13  C   UNL d   1      51.048  34.329  51.919  0.00  0.00     0.002 A 
ATOM     14  C   UNL d   1      50.434  34.316  52.458  0.00  0.00     0.000 A 
ATOM     15  C   UNL d   1      50.537  34.012  53.206  0.00  0.00     0.002 A 
ATOM     16  C   UNL d   1      51.285  33.707  53.427  0.00  0.00     0.020 A 
ENDBRANCH  10  11
ENDBRANCH   2  10
TORSDOF 2
ENDMDL
MODEL 2
REMARK VINA RESULT:      -8.2      2.178      2.988
REMARK  2 active torsions:
REMARK  status: ('A' for Active; 'I' for Inactive)
REMARK    1  A    between atoms: N_7  and  C_2 
REMARK    2  A    between atoms: C_10  and  N_7 
ROOT
ATOM      1  N   UNL d   1      52.969  31.751  53.110  0.00  0.00     0.002 N 
ATOM      2  C   UNL d   1      53.363  32.003  53.789  0.00  0.00     0.773 A 
ATOM      3  C   UNL d   1      52.904  30.945  52.960  0.00  0.00     0.317 A 
ATOM      4  N   UNL d   1      53.691  31.448  54.317  0.00  0.00     0.046 NA
ATOM      5  N   UNL d   1      53.620  30.648  54.158  0.00  0.00    -0.127 NA
ATOM      6  C   UNL d   1      53.231  30.390  53.487  0.00  0.00     0.162 A 
ATOM      7  O   UNL d   1      52.496  30.697  52.257  0.00  0.00    -0.263 OA
ATOM      8  N   UNL d   1      52.648  32.297  52.592  0.00  0.00    -0.023 N 
ATOM      9  C   UNL d   1      53.161  29.568  53.329  0.00  0.00     0.028 C 
ENDROOT
BRANCH   2  10
ATOM     10  N   UNL d   1      53.426  32.838  53.935  0.00  0.00    -0.058 NA
BRANCH  10  11
ATOM     11  C   UNL d   1      54.057  33.153  54.378  0.00  0.00     0.100 A 
ATOM     12  C   UNL d   1      53.957  33.283  55.177  0.00  0.00     0.020 A 
ATOM     13  C   UNL d   1      54.591  33.599  55.622  0.00  0.00     0.002 A 
ATOM     14  C   UNL d   1      55.297  33.771  55.248  0.00  0.00     0.000 A 
ATOM     15  C   UNL d   1      55.393  33.640  54.451  0.00  0.00     0.002 A 
ATOM     16  C   UNL d   1      54.758  33.324  54.006  0.00  0.00     0.020 A 
ENDBRANCH  10  11
ENDBRANCH   2  10
TORSDOF 2
ENDMDL
MODEL 3
REMARK VINA RESULT:      -8.2      1.303      2.034
REMARK  2 active torsions:
REMARK  status: ('A' for Active; 'I' for Inactive)
REMARK    1  A    between atoms: N_7  and  C_2 
REMARK    2  A    between atoms: C_10  and  N_7 
ROOT
ATOM      1  N   UNL d   1      53.714  32.725  53.618  0.00  0.00     0.002 N 
ATOM      2  C   UNL d   1      52.969  33.060  53.733  0.00  0.00     0.773 A 
ATOM      3  C   UNL d   1      54.339  32.962  54.098  0.00  0.00     0.317 A 
ATOM      4  N   UNL d   1      52.851  33.631  54.328  0.00  0.00     0.046 NA
ATOM      5  N   UNL d   1      53.480  33.860  54.800  0.00  0.00    -0.127 NA
ATOM      6  C   UNL d   1      54.221  33.533  54.693  0.00  0.00     0.162 A 
ATOM      7  O   UNL d   1      55.102  32.611  53.970  0.00  0.00    -0.263 OA
ATOM      8  N   UNL d   1      53.830  32.164  53.034  0.00  0.00    -0.023 N 
ATOM      9  C   UNL d   1      54.863  33.771  55.179  0.00  0.00     0.028 C 
ENDROOT
BRANCH   2  10
ATOM     10  N   UNL d   1      52.330  32.808  53.232  0.00  0.00    -0.058 NA
BRANCH  10  11
ATOM     11  C   UNL d   1      51.729  33.337  53.001  0.00  0.00     0.100 A 
ATOM     12  C   UNL d   1      51.021  33.336  53.405  0.00  0.00     0.020 A 
ATOM     13  C   UNL d   1      50.417  33.868  53.172  0.00  0.00     0.002 A 
ATOM     14  C   UNL d   1      50.550  34.375  52.546  0.00  0.00     0.000 A 
ATOM     15  C   UNL d   1      51.258  34.373  52.145  0.00  0.00     0.002 A 
ATOM     16  C   UNL d   1      51.862  33.842  52.378  0.00  0.00     0.020 A 
ENDBRANCH  10  11
ENDBRANCH   2  10
TORSDOF 2
ENDMDL
MODEL 4
REMARK VINA RESULT:      -8.1      1.887      3.421
REMARK  2 active torsions:
REMARK  status: ('A' for Active; 'I' for Inactive)
REMARK    1  A    between atoms: N_7  and  C_2 
REMARK    2  A    between atoms: C_10  and  N_7 
ROOT
ATOM      1  N   UNL d   1      52.111  32.757  53.228  0.00  0.00     0.002 N 
ATOM      2  C   UNL d   1      52.806  33.176  53.379  0.00  0.00     0.773 A 
ATOM      3  C   UNL d   1      51.424  33.173  53.051  0.00  0.00     0.317 A 
ATOM      4  N   UNL d   1      52.811  34.008  53.351  0.00  0.00     0.046 NA
ATOM      5  N   UNL d   1      52.120  34.412  53.174  0.00  0.00    -0.127 NA
ATOM      6  C   UNL d   1      51.428  34.005  53.023  0.00  0.00     0.162 A 
ATOM      7  O   UNL d   1      50.714  32.731  52.898  0.00  0.00    -0.263 OA
ATOM      8  N   UNL d   1      52.107  31.940  53.255  0.00  0.00    -0.023 N 
ATOM      9  C   UNL d   1      50.723  34.423  52.842  0.00  0.00     0.028 C 
ENDROOT
BRANCH   2  10
ATOM     10  N   UNL d   1      53.511  32.738  53.561  0.00  0.00    -0.058 NA
BRANCH  10  11
ATOM     11  C   UNL d   1      54.060  33.018  54.121  0.00  0.00     0.100 A 
ATOM     12  C   UNL d   1      54.736  33.395  53.863  0.00  0.00     0.020 A 
ATOM     13  C   UNL d   1      55.288  33.676  54.426  0.00  0.00     0.002 A 
ATOM     14  C   UNL d   1      55.139  33.567  55.222  0.00  0.00     0.000 A 
ATOM     15  C   UNL d   1      54.464  33.191  55.475  0.00  0.00     0.002 A 
ATOM     16  C   UNL d   1      53.912  32.909  54.912  0.00  0.00     0.020 A 
ENDBRANCH  10  11
ENDBRANCH   2  10
TORSDOF 2
ENDMDL
MODEL 5
REMARK VINA RESULT:      -8.0      1.915      3.383
REMARK  2 active torsions:
REMARK  status: ('A' for Active; 'I' for Inactive)
REMARK    1  A    between atoms: N_7  and  C_2 
REMARK    2  A    between atoms: C_10  and  N_7 
ROOT
ATOM      1  N   UNL d   1      54.089  33.316  54.380  0.00  0.00     0.002 N 
ATOM      2  C   UNL d   1      53.714  32.779  53.878  0.00  0.00     0.773 A 
ATOM      3  C   UNL d   1      53.725  34.036  54.539  0.00  0.00     0.317 A 
ATOM      4  N   UNL d   1      52.977  32.964  53.537  0.00  0.00     0.046 NA
ATOM      5  N   UNL d   1      52.624  33.685  53.702  0.00  0.00    -0.127 NA
ATOM      6  C   UNL d   1      52.988  34.222  54.198  0.00  0.00     0.162 A 
ATOM      7  O   UNL d   1      54.120  34.582  55.058  0.00  0.00    -0.263 OA
ATOM      8  N   UNL d   1      54.812  33.134  54.714  0.00  0.00    -0.023 N 
ATOM      9  C   UNL d   1      52.622  34.959  54.365  0.00  0.00     0.028 C 
ENDROOT
BRANCH   2  10
ATOM     10  N   UNL d   1      54.098  32.037  53.719  0.00  0.00    -0.058 NA
BRANCH  10  11
ATOM     11  C   UNL d   1      53.657  31.341  53.595  0.00  0.00     0.100 A 
ATOM     12  C   UNL d   1      53.561  30.816  54.212  0.00  0.00     0.020 A 
ATOM     13  C   UNL d   1      53.119  30.117  54.087  0.00  0.00     0.002 A 
ATOM     14  C   UNL d   1      52.792  29.974  53.352  0.00  0.00     0.000 A 
ATOM     15  C   UNL d   1      52.890  30.501  52.739  0.00  0.00     0.002 A 
ATOM     16  C   UNL d   1      53.333  31.201  52.864  0.00  0.00     0.020 A 
ENDBRANCH  10  11
ENDBRANCH   2  10
TORSDOF 2
ENDMDL
