MODEL 1
REMARK VINA RESULT:      65.2      0.000      0.000
REMARK  2 active torsions:
REMARK  status: ('A' for Active; 'I' for Inactive)
REMARK    1  A    between atoms: N_9  and  C_3 
REMARK    2  A    between atoms: C_11  and  C_4 
ROOT
ATOM      1  N   UNL d   1     -50.675  26.094  33.756  0.00  0.00    -0.196 N 
ATOM      2  C   UNL d   1     -51.244  25.468  33.658  0.00  0.00     0.167 A 
ATOM      3  C   UNL d   1     -49.889  25.912  33.720  0.00  0.00     0.153 A 
ATOM      4  C   UNL d   1     -52.038  25.632  33.691  0.00  0.00     0.057 A 
ATOM      5  N   UNL d   1     -51.742  27.021  33.917  0.00  0.00    -0.161 NA
ATOM      6  N   UNL d   1     -50.989  24.703  33.530  0.00  0.00    -0.227 NA
ATOM      7  C   UNL d   1     -49.621  25.143  33.591  0.00  0.00     0.057 A 
ATOM      8  C   UNL d   1     -52.293  26.415  33.822  0.00  0.00     0.124 A 
ATOM      9  C   UNL d   1     -50.182  24.528  33.495  0.00  0.00     0.086 A 
ATOM     10  C   UNL d   1     -49.913  23.722  33.360  0.00  0.00     0.021 C 
ENDROOT
BRANCH   4  11
ATOM     11  C   UNL d   1     -52.589  25.026  33.596  0.00  0.00     0.005 A 
ATOM     12  C   UNL d   1     -53.379  25.207  33.509  0.00  0.00     0.001 A 
ATOM     13  C   UNL d   1     -53.930  24.600  33.414  0.00  0.00     0.011 A 
ATOM     14  C   UNL d   1     -53.683  23.824  33.407  0.00  0.00     0.058 A 
ATOM     15  C   UNL d   1     -52.884  23.653  33.496  0.00  0.00     0.011 A 
ATOM     16 CL   UNL d   1     -54.261  23.188  33.308  0.00  0.00    -0.082 Cl
ATOM     17  C   UNL d   1     -52.341  24.250  33.589  0.00  0.00     0.001 A 
ENDBRANCH   4  11
BRANCH   3  18
ATOM     18  N   UNL d   1     -49.311  26.541  33.819  0.00  0.00    -0.285 N 
ATOM     19  C   UNL d   1     -48.473  26.366  33.757  0.00  0.00     0.108 A 
ATOM     20  C   UNL d   1     -47.904  26.991  33.855  0.00  0.00     0.142 A 
ATOM     21  O   UNL d   1     -48.161  27.805  34.017  0.00  0.00    -0.300 OA
ATOM     22  C   UNL d   1     -49.007  27.960  34.076  0.00  0.00     0.142 A 
ATOM     23  C   UNL d   1     -49.576  27.335  33.977  0.00  0.00     0.108 A 
ENDBRANCH   3  18
TORSDOF 2
ENDMDL
