MODEL 1
REMARK VINA RESULT:      48.2      0.000      0.000
REMARK  5 active torsions:
REMARK  status: ('A' for Active; 'I' for Inactive)
REMARK       I    between atoms: C_2  and  N_1 
REMARK    1  A    between atoms: C_10  and  C_2 
REMARK    2  A    between atoms: C_7  and  C_3 
REMARK       I    between atoms: C_5  and  N_8 
REMARK    3  A    between atoms: C_15  and  C_5 
REMARK    4  A    between atoms: N_8  and  C_7 
REMARK    5  A    between atoms: N_9  and  C_10 
ROOT
ATOM      1  N   UNL d   1      13.837  14.206  -3.150  0.00  0.00    -0.271 N 
ATOM      2  C   UNL d   1      14.130  14.583  -2.468  0.00  0.00     0.282 C 
ATOM      3  C   UNL d   1      13.705  13.395  -3.119  0.00  0.00     0.086 A 
ATOM      4  C   UNL d   1      13.423  13.011  -3.764  0.00  0.00     0.018 A 
ATOM      5  C   UNL d   1      13.675  14.628  -3.863  0.00  0.00     0.083 A 
ATOM      6  C   UNL d   1      13.266  13.421  -4.456  0.00  0.00     0.003 A 
ATOM      7  O   UNL d   1      14.288  14.172  -1.774  0.00  0.00    -0.265 OA
ATOM      8  C   UNL d   1      13.388  14.219  -4.511  0.00  0.00     0.019 A 
ATOM      9  C   UNL d   1      13.288  12.193  -3.736  0.00  0.00     0.002 A 
ATOM     10  C   UNL d   1      12.972  13.017  -5.128  0.00  0.00     0.000 A 
ATOM     11  C   UNL d   1      13.000  11.788  -4.391  0.00  0.00     0.000 A 
ATOM     12  C   UNL d   1      12.837  12.210  -5.104  0.00  0.00     0.000 A 
ENDROOT
BRANCH   3  13
ATOM     13  C   UNL d   1      13.863  12.983  -2.423  0.00  0.00     0.120 C 
BRANCH  13  14
ATOM     14  N   UNL d   1      13.246  12.629  -2.007  0.00  0.00    -0.205 NA
ATOM     15  C   UNL d   1      13.415  12.139  -1.346  0.00  0.00     0.279 C 
ATOM     16  O   UNL d   1      12.811  11.779  -0.922  0.00  0.00    -0.265 OA
BRANCH  15  17
ATOM     17  C   UNL d   1      14.193  12.027  -1.132  0.00  0.00     0.058 A 
ATOM     18  C   UNL d   1      14.782  11.899  -1.675  0.00  0.00     0.005 A 
ATOM     19  C   UNL d   1      15.570  11.785  -1.464  0.00  0.00     0.000 A 
ATOM     20  C   UNL d   1      15.771  11.802  -0.644  0.00  0.00     0.000 A 
ATOM     21  C   UNL d   1      15.171  11.932  -0.082  0.00  0.00     0.000 A 
ATOM     22  C   UNL d   1      14.408  12.040  -0.332  0.00  0.00     0.005 A 
ENDBRANCH  15  17
ENDBRANCH  13  14
ENDBRANCH   3  13
BRANCH   2  23
ATOM     23  C   UNL d   1      14.277  15.412  -2.467  0.00  0.00     0.142 C 
BRANCH  23  24
ATOM     24  N   UNL d   1      14.674  15.740  -1.822  0.00  0.00    -0.295 N 
ATOM     25  C   UNL d   1      14.750  15.288  -1.131  0.00  0.00     0.107 A 
ATOM     26  C   UNL d   1      15.147  15.594  -0.465  0.00  0.00     0.142 A 
ATOM     27  O   UNL d   1      15.461  16.356  -0.509  0.00  0.00    -0.300 OA
ATOM     28  C   UNL d   1      15.390  16.824  -1.202  0.00  0.00     0.142 A 
ATOM     29  C   UNL d   1      14.992  16.506  -1.860  0.00  0.00     0.107 A 
ENDBRANCH  23  24
ENDBRANCH   2  23
TORSDOF 5
ENDMDL
