MODEL 1
REMARK VINA RESULT:      -8.9      0.000      0.000
REMARK  4 active torsions:
REMARK  status: ('A' for Active; 'I' for Inactive)
REMARK    1  A    between atoms: N_6  and  C_1 
REMARK    2  A    between atoms: C_10  and  C_2 
REMARK       I    between atoms: C_9  and  N_6 
REMARK    3  A    between atoms: C_11  and  C_9 
REMARK    4  A    between atoms: O_20  and  C_10 
ROOT
ATOM      1  C   UNL d   1     -46.630  12.194  23.418  0.00  0.00     0.119 A 
ATOM      2  C   UNL d   1     -46.809  12.976  23.231  0.00  0.00     0.087 A 
ATOM      3  C   UNL d   1     -47.625  13.055  23.250  0.00  0.00     0.008 A 
ATOM      4  C   UNL d   1     -47.953  12.336  23.445  0.00  0.00     0.028 A 
ATOM      5  S   UNL d   1     -47.339  11.792  23.552  0.00  0.00    -0.070 SA
ATOM      6  C   UNL d   1     -48.775  12.249  23.505  0.00  0.00     0.104 A 
ATOM      7  N   UNL d   1     -49.264  12.897  23.367  0.00  0.00    -0.294 NA
ATOM      8  C   UNL d   1     -48.931  13.628  23.168  0.00  0.00     0.099 A 
ATOM      9  C   UNL d   1     -48.110  13.711  23.109  0.00  0.00    -0.004 A 
ATOM     10  C   UNL d   1     -49.547  11.973  23.611  0.00  0.00     0.029 C 
ATOM     11  C   UNL d   1     -48.474  11.502  23.678  0.00  0.00     0.029 C 
ATOM     12  C   UNL d   1     -48.598  14.358  22.970  0.00  0.00     0.029 C 
ATOM     13  C   UNL d   1     -49.748  13.552  23.226  0.00  0.00     0.029 C 
ENDROOT
BRANCH   1  14
ATOM     14  N   UNL d   1     -45.874  11.862  23.465  0.00  0.00    -0.200 NA
ATOM     15  C   UNL d   1     -45.784  11.043  23.506  0.00  0.00     0.302 C 
ATOM     16  O   UNL d   1     -46.449  10.556  23.499  0.00  0.00    -0.263 OA
BRANCH  15  17
ATOM     17  C   UNL d   1     -45.031  10.714  23.553  0.00  0.00     0.158 A 
ATOM     18  O   UNL d   1     -44.318  11.110  23.467  0.00  0.00    -0.300 OA
ATOM     19  C   UNL d   1     -43.702  10.548  23.559  0.00  0.00     0.123 A 
ATOM     20  C   UNL d   1     -44.043   9.822  23.698  0.00  0.00     0.029 A 
ATOM     21  C   UNL d   1     -44.871   9.902  23.698  0.00  0.00     0.032 A 
ENDBRANCH  15  17
ENDBRANCH   1  14
BRANCH   2  22
ATOM     22  C   UNL d   1     -46.260  13.559  23.059  0.00  0.00     0.298 C 
ATOM     23  O   UNL d   1     -46.022  14.075  23.661  0.00  0.00    -0.259 OA
BRANCH  22  24
ATOM     24  O   UNL d   1     -45.945  13.631  22.292  0.00  0.00    -0.296 OA
ATOM     25  C   UNL d   1     -45.309  14.134  22.155  0.00  0.00     0.185 C 
ENDBRANCH  22  24
ENDBRANCH   2  22
TORSDOF 4
ENDMDL
MODEL 2
REMARK VINA RESULT:      -8.8      1.635      2.956
REMARK  4 active torsions:
REMARK  status: ('A' for Active; 'I' for Inactive)
REMARK    1  A    between atoms: N_6  and  C_1 
REMARK    2  A    between atoms: C_10  and  C_2 
REMARK       I    between atoms: C_9  and  N_6 
REMARK    3  A    between atoms: C_11  and  C_9 
REMARK    4  A    between atoms: O_20  and  C_10 
ROOT
ATOM      1  C   UNL d   1     -48.072  13.494  22.700  0.00  0.00     0.119 A 
ATOM      2  C   UNL d   1     -48.745  13.076  22.925  0.00  0.00     0.087 A 
ATOM      3  C   UNL d   1     -49.330  13.624  23.100  0.00  0.00     0.008 A 
ATOM      4  C   UNL d   1     -49.029  14.372  22.988  0.00  0.00     0.028 A 
ATOM      5  S   UNL d   1     -48.245  14.300  22.739  0.00  0.00    -0.070 SA
ATOM      6  C   UNL d   1     -49.500  15.041  23.124  0.00  0.00     0.104 A 
ATOM      7  N   UNL d   1     -50.278  14.946  23.375  0.00  0.00    -0.294 NA
ATOM      8  C   UNL d   1     -50.584  14.186  23.489  0.00  0.00     0.099 A 
ATOM      9  C   UNL d   1     -50.112  13.521  23.352  0.00  0.00    -0.004 A 
ATOM     10  C   UNL d   1     -49.803  15.806  23.205  0.00  0.00     0.029 C 
ATOM     11  C   UNL d   1     -48.772  15.343  22.885  0.00  0.00     0.029 C 
ATOM     12  C   UNL d   1     -50.890  13.426  23.603  0.00  0.00     0.029 C 
ATOM     13  C   UNL d   1     -51.060  14.844  23.627  0.00  0.00     0.029 C 
ENDROOT
BRANCH   1  14
ATOM     14  N   UNL d   1     -47.346  13.168  22.475  0.00  0.00    -0.200 NA
ATOM     15  C   UNL d   1     -46.642  13.497  22.753  0.00  0.00     0.302 C 
ATOM     16  O   UNL d   1     -46.663  14.150  23.255  0.00  0.00    -0.263 OA
BRANCH  15  17
ATOM     17  C   UNL d   1     -45.919  13.172  22.529  0.00  0.00     0.158 A 
ATOM     18  O   UNL d   1     -45.511  12.575  22.915  0.00  0.00    -0.300 OA
ATOM     19  C   UNL d   1     -44.806  12.429  22.486  0.00  0.00     0.123 A 
ATOM     20  C   UNL d   1     -44.792  12.934  21.847  0.00  0.00     0.029 A 
ATOM     21  C   UNL d   1     -45.476  13.406  21.855  0.00  0.00     0.032 A 
ENDBRANCH  15  17
ENDBRANCH   1  14
BRANCH   2  22
ATOM     22  C   UNL d   1     -48.805  12.260  22.961  0.00  0.00     0.298 C 
ATOM     23  O   UNL d   1     -48.984  11.840  22.271  0.00  0.00    -0.259 OA
BRANCH  22  24
ATOM     24  O   UNL d   1     -48.688  11.859  23.681  0.00  0.00    -0.296 OA
ATOM     25  C   UNL d   1     -48.685  11.037  23.697  0.00  0.00     0.185 C 
ENDBRANCH  22  24
ENDBRANCH   2  22
TORSDOF 4
ENDMDL
MODEL 3
REMARK VINA RESULT:      -7.7      1.417      3.881
REMARK  4 active torsions:
REMARK  status: ('A' for Active; 'I' for Inactive)
REMARK    1  A    between atoms: N_6  and  C_1 
REMARK    2  A    between atoms: C_10  and  C_2 
REMARK       I    between atoms: C_9  and  N_6 
REMARK    3  A    between atoms: C_11  and  C_9 
REMARK    4  A    between atoms: O_20  and  C_10 
ROOT
ATOM      1  C   UNL d   1     -47.655  12.432  23.216  0.00  0.00     0.119 A 
ATOM      2  C   UNL d   1     -47.173  12.946  22.789  0.00  0.00     0.087 A 
ATOM      3  C   UNL d   1     -46.416  12.630  22.784  0.00  0.00     0.008 A 
ATOM      4  C   UNL d   1     -46.423  11.930  23.200  0.00  0.00     0.028 A 
ATOM      5  S   UNL d   1     -47.191  11.799  23.473  0.00  0.00    -0.070 SA
ATOM      6  C   UNL d   1     -45.728  11.485  23.287  0.00  0.00     0.104 A 
ATOM      7  N   UNL d   1     -45.028  11.753  22.949  0.00  0.00    -0.294 NA
ATOM      8  C   UNL d   1     -45.021  12.464  22.527  0.00  0.00     0.099 A 
ATOM      9  C   UNL d   1     -45.715  12.907  22.442  0.00  0.00    -0.004 A 
ATOM     10  C   UNL d   1     -45.158  10.918  23.477  0.00  0.00     0.029 C 
ATOM     11  C   UNL d   1     -46.305  11.054  23.688  0.00  0.00     0.029 C 
ATOM     12  C   UNL d   1     -45.015  13.175  22.105  0.00  0.00     0.029 C 
ATOM     13  C   UNL d   1     -44.327  12.030  22.607  0.00  0.00     0.029 C 
ENDROOT
BRANCH   1  14
ATOM     14  N   UNL d   1     -48.463  12.528  23.365  0.00  0.00    -0.200 NA
ATOM     15  C   UNL d   1     -48.975  11.885  23.296  0.00  0.00     0.302 C 
ATOM     16  O   UNL d   1     -48.680  11.146  23.077  0.00  0.00    -0.263 OA
BRANCH  15  17
ATOM     17  C   UNL d   1     -49.779  11.980  23.444  0.00  0.00     0.158 A 
ATOM     18  O   UNL d   1     -50.185  12.691  23.492  0.00  0.00    -0.300 OA
ATOM     19  C   UNL d   1     -50.990  12.514  23.651  0.00  0.00     0.123 A 
ATOM     20  C   UNL d   1     -51.064  11.705  23.698  0.00  0.00     0.029 A 
ATOM     21  C   UNL d   1     -50.321  11.352  23.572  0.00  0.00     0.032 A 
ENDBRANCH  15  17
ENDBRANCH   1  14
BRANCH   2  22
ATOM     22  C   UNL d   1     -47.420  13.644  22.439  0.00  0.00     0.298 C 
ATOM     23  O   UNL d   1     -47.694  13.626  21.659  0.00  0.00    -0.259 OA
BRANCH  22  24
ATOM     24  O   UNL d   1     -47.395  14.362  22.861  0.00  0.00    -0.296 OA
ATOM     25  C   UNL d   1     -47.753  15.033  22.550  0.00  0.00     0.185 C 
ENDBRANCH  22  24
ENDBRANCH   2  22
TORSDOF 4
ENDMDL
MODEL 4
REMARK VINA RESULT:      -7.4      1.224      2.308
REMARK  4 active torsions:
REMARK  status: ('A' for Active; 'I' for Inactive)
REMARK    1  A    between atoms: N_6  and  C_1 
REMARK    2  A    between atoms: C_10  and  C_2 
REMARK       I    between atoms: C_9  and  N_6 
REMARK    3  A    between atoms: C_11  and  C_9 
REMARK    4  A    between atoms: O_20  and  C_10 
ROOT
ATOM      1  C   UNL d   1     -46.871  12.601  23.176  0.00  0.00     0.119 A 
ATOM      2  C   UNL d   1     -47.670  12.564  22.979  0.00  0.00     0.087 A 
ATOM      3  C   UNL d   1     -47.912  13.323  22.782  0.00  0.00     0.008 A 
ATOM      4  C   UNL d   1     -47.277  13.827  22.855  0.00  0.00     0.028 A 
ATOM      5  S   UNL d   1     -46.623  13.385  23.101  0.00  0.00    -0.070 SA
ATOM      6  C   UNL d   1     -47.359  14.635  22.691  0.00  0.00     0.104 A 
ATOM      7  N   UNL d   1     -48.089  14.930  22.452  0.00  0.00    -0.294 NA
ATOM      8  C   UNL d   1     -48.734  14.418  22.378  0.00  0.00     0.099 A 
ATOM      9  C   UNL d   1     -48.650  13.612  22.542  0.00  0.00    -0.004 A 
ATOM     10  C   UNL d   1     -47.245  15.446  22.576  0.00  0.00     0.029 C 
ATOM     11  C   UNL d   1     -46.569  14.546  22.908  0.00  0.00     0.029 C 
ATOM     12  C   UNL d   1     -49.380  13.906  22.303  0.00  0.00     0.029 C 
ATOM     13  C   UNL d   1     -48.826  15.219  22.212  0.00  0.00     0.029 C 
ENDROOT
BRANCH   1  14
ATOM     14  N   UNL d   1     -46.395  11.966  23.411  0.00  0.00    -0.200 NA
ATOM     15  C   UNL d   1     -45.672  11.833  23.037  0.00  0.00     0.302 C 
ATOM     16  O   UNL d   1     -45.424  12.333  22.430  0.00  0.00    -0.263 OA
BRANCH  15  17
ATOM     17  C   UNL d   1     -45.198  11.201  23.270  0.00  0.00     0.158 A 
ATOM     18  O   UNL d   1     -45.456  10.463  23.518  0.00  0.00    -0.300 OA
ATOM     19  C   UNL d   1     -44.777  10.004  23.698  0.00  0.00     0.123 A 
ATOM     20  C   UNL d   1     -44.119  10.463  23.559  0.00  0.00     0.029 A 
ATOM     21  C   UNL d   1     -44.359  11.214  23.292  0.00  0.00     0.032 A 
ENDBRANCH  15  17
ENDBRANCH   1  14
BRANCH   2  22
ATOM     22  C   UNL d   1     -48.127  11.885  22.982  0.00  0.00     0.298 C 
ATOM     23  O   UNL d   1     -48.297  11.512  22.264  0.00  0.00    -0.259 OA
BRANCH  22  24
ATOM     24  O   UNL d   1     -48.418  11.573  23.698  0.00  0.00    -0.296 OA
ATOM     25  C   UNL d   1     -49.036  11.032  23.689  0.00  0.00     0.185 C 
ENDBRANCH  22  24
ENDBRANCH   2  22
TORSDOF 4
ENDMDL
MODEL 5
REMARK VINA RESULT:      -7.3      1.604      2.345
REMARK  4 active torsions:
REMARK  status: ('A' for Active; 'I' for Inactive)
REMARK    1  A    between atoms: N_6  and  C_1 
REMARK    2  A    between atoms: C_10  and  C_2 
REMARK       I    between atoms: C_9  and  N_6 
REMARK    3  A    between atoms: C_11  and  C_9 
REMARK    4  A    between atoms: O_20  and  C_10 
ROOT
ATOM      1  C   UNL d   1     -47.895  12.983  22.523  0.00  0.00     0.119 A 
ATOM      2  C   UNL d   1     -48.571  13.453  22.478  0.00  0.00     0.087 A 
ATOM      3  C   UNL d   1     -49.195  13.020  22.787  0.00  0.00     0.008 A 
ATOM      4  C   UNL d   1     -48.918  12.291  23.020  0.00  0.00     0.028 A 
ATOM      5  S   UNL d   1     -48.108  12.259  22.859  0.00  0.00    -0.070 SA
ATOM      6  C   UNL d   1     -49.430  11.732  23.355  0.00  0.00     0.104 A 
ATOM      7  N   UNL d   1     -50.226  11.917  23.451  0.00  0.00    -0.294 NA
ATOM      8  C   UNL d   1     -50.509  12.657  23.214  0.00  0.00     0.099 A 
ATOM      9  C   UNL d   1     -49.995  13.213  22.880  0.00  0.00    -0.004 A 
ATOM     10  C   UNL d   1     -49.774  11.063  23.698  0.00  0.00     0.029 C 
ATOM     11  C   UNL d   1     -48.695  11.362  23.346  0.00  0.00     0.029 C 
ATOM     12  C   UNL d   1     -50.791  13.397  22.977  0.00  0.00     0.029 C 
ATOM     13  C   UNL d   1     -51.026  12.109  23.545  0.00  0.00     0.029 C 
ENDROOT
BRANCH   1  14
ATOM     14  N   UNL d   1     -47.135  13.193  22.275  0.00  0.00    -0.200 NA
ATOM     15  C   UNL d   1     -46.475  12.860  22.640  0.00  0.00     0.302 C 
ATOM     16  O   UNL d   1     -46.574  12.316  23.252  0.00  0.00    -0.263 OA
BRANCH  15  17
ATOM     17  C   UNL d   1     -45.718  13.069  22.393  0.00  0.00     0.158 A 
ATOM     18  O   UNL d   1     -45.439  13.829  22.266  0.00  0.00    -0.300 OA
ATOM     19  C   UNL d   1     -44.639  13.770  22.021  0.00  0.00     0.123 A 
ATOM     20  C   UNL d   1     -44.441  12.980  22.001  0.00  0.00     0.029 A 
ATOM     21  C   UNL d   1     -45.099  12.526  22.230  0.00  0.00     0.032 A 
ENDBRANCH  15  17
ENDBRANCH   1  14
BRANCH   2  22
ATOM     22  C   UNL d   1     -48.597  14.215  22.178  0.00  0.00     0.298 C 
ATOM     23  O   UNL d   1     -48.631  14.321  21.358  0.00  0.00    -0.259 OA
BRANCH  22  24
ATOM     24  O   UNL d   1     -48.591  14.872  22.689  0.00  0.00    -0.296 OA
ATOM     25  C   UNL d   1     -48.391  15.615  22.399  0.00  0.00     0.185 C 
ENDBRANCH  22  24
ENDBRANCH   2  22
TORSDOF 4
ENDMDL
MODEL 6
REMARK VINA RESULT:      -6.6      7.529      9.687
REMARK  4 active torsions:
REMARK  status: ('A' for Active; 'I' for Inactive)
REMARK    1  A    between atoms: N_6  and  C_1 
REMARK    2  A    between atoms: C_10  and  C_2 
REMARK       I    between atoms: C_9  and  N_6 
REMARK    3  A    between atoms: C_11  and  C_9 
REMARK    4  A    between atoms: O_20  and  C_10 
ROOT
ATOM      1  C   UNL d   1     -40.055  14.084  18.212  0.00  0.00     0.119 A 
ATOM      2  C   UNL d   1     -39.998  14.512  17.510  0.00  0.00     0.087 A 
ATOM      3  C   UNL d   1     -39.419  14.157  17.049  0.00  0.00     0.008 A 
ATOM      4  C   UNL d   1     -39.118  13.518  17.455  0.00  0.00     0.028 A 
ATOM      5  S   UNL d   1     -39.509  13.465  18.181  0.00  0.00    -0.070 SA
ATOM      6  C   UNL d   1     -38.520  13.051  17.122  0.00  0.00     0.104 A 
ATOM      7  N   UNL d   1     -38.228  13.235  16.375  0.00  0.00    -0.294 NA
ATOM      8  C   UNL d   1     -38.533  13.884  15.963  0.00  0.00     0.099 A 
ATOM      9  C   UNL d   1     -39.131  14.348  16.298  0.00  0.00    -0.004 A 
ATOM     10  C   UNL d   1     -37.940  12.483  16.963  0.00  0.00     0.029 C 
ATOM     11  C   UNL d   1     -38.668  12.708  17.856  0.00  0.00     0.029 C 
ATOM     12  C   UNL d   1     -38.839  14.533  15.551  0.00  0.00     0.029 C 
ATOM     13  C   UNL d   1     -37.940  13.426  15.623  0.00  0.00     0.029 C 
ENDROOT
BRANCH   1  14
ATOM     14  N   UNL d   1     -40.568  14.242  18.841  0.00  0.00    -0.200 NA
ATOM     15  C   UNL d   1     -40.289  14.220  19.617  0.00  0.00     0.302 C 
ATOM     16  O   UNL d   1     -39.497  14.040  19.764  0.00  0.00    -0.263 OA
BRANCH  15  17
ATOM     17  C   UNL d   1     -40.799  14.378  20.243  0.00  0.00     0.158 A 
ATOM     18  O   UNL d   1     -41.427  13.911  20.490  0.00  0.00    -0.300 OA
ATOM     19  C   UNL d   1     -41.785  14.293  21.145  0.00  0.00     0.123 A 
ATOM     20  C   UNL d   1     -41.376  14.982  21.289  0.00  0.00     0.029 A 
ATOM     21  C   UNL d   1     -40.757  15.054  20.738  0.00  0.00     0.032 A 
ENDBRANCH  15  17
ENDBRANCH   1  14
BRANCH   2  22
ATOM     22  C   UNL d   1     -40.445  15.171  17.320  0.00  0.00     0.298 C 
ATOM     23  O   UNL d   1     -40.149  15.922  17.499  0.00  0.00    -0.259 OA
BRANCH  22  24
ATOM     24  O   UNL d   1     -41.187  15.087  16.951  0.00  0.00    -0.296 OA
ATOM     25  C   UNL d   1     -41.607  15.754  16.717  0.00  0.00     0.185 C 
ENDBRANCH  22  24
ENDBRANCH   2  22
TORSDOF 4
ENDMDL
MODEL 7
REMARK VINA RESULT:      -6.5      7.368      8.782
REMARK  4 active torsions:
REMARK  status: ('A' for Active; 'I' for Inactive)
REMARK    1  A    between atoms: N_6  and  C_1 
REMARK    2  A    between atoms: C_10  and  C_2 
REMARK       I    between atoms: C_9  and  N_6 
REMARK    3  A    between atoms: C_11  and  C_9 
REMARK    4  A    between atoms: O_20  and  C_10 
ROOT
ATOM      1  C   UNL d   1     -39.309  14.411  20.418  0.00  0.00     0.119 A 
ATOM      2  C   UNL d   1     -40.010  14.605  20.031  0.00  0.00     0.087 A 
ATOM      3  C   UNL d   1     -39.891  14.488  19.228  0.00  0.00     0.008 A 
ATOM      4  C   UNL d   1     -39.129  14.225  19.113  0.00  0.00     0.028 A 
ATOM      5  S   UNL d   1     -38.759  14.174  19.850  0.00  0.00    -0.070 SA
ATOM      6  C   UNL d   1     -38.851  14.059  18.349  0.00  0.00     0.104 A 
ATOM      7  N   UNL d   1     -39.350  14.162  17.703  0.00  0.00    -0.294 NA
ATOM      8  C   UNL d   1     -40.124  14.429  17.820  0.00  0.00     0.099 A 
ATOM      9  C   UNL d   1     -40.399  14.594  18.583  0.00  0.00    -0.004 A 
ATOM     10  C   UNL d   1     -38.404  13.848  17.687  0.00  0.00     0.029 C 
ATOM     11  C   UNL d   1     -38.213  13.896  18.844  0.00  0.00     0.029 C 
ATOM     12  C   UNL d   1     -40.898  14.696  17.937  0.00  0.00     0.029 C 
ATOM     13  C   UNL d   1     -39.858  14.268  17.059  0.00  0.00     0.029 C 
ENDROOT
BRANCH   1  14
ATOM     14  N   UNL d   1     -39.174  14.445  21.233  0.00  0.00    -0.200 NA
ATOM     15  C   UNL d   1     -38.688  13.885  21.595  0.00  0.00     0.302 C 
ATOM     16  O   UNL d   1     -38.338  13.291  21.143  0.00  0.00    -0.263 OA
BRANCH  15  17
ATOM     17  C   UNL d   1     -38.554  13.919  22.406  0.00  0.00     0.158 A 
ATOM     18  O   UNL d   1     -38.251  14.556  22.825  0.00  0.00    -0.300 OA
ATOM     19  C   UNL d   1     -38.213  14.335  23.633  0.00  0.00     0.123 A 
ATOM     20  C   UNL d   1     -38.491  13.573  23.698  0.00  0.00     0.029 A 
ATOM     21  C   UNL d   1     -38.709  13.294  22.945  0.00  0.00     0.032 A 
ENDBRANCH  15  17
ENDBRANCH   1  14
BRANCH   2  22
ATOM     22  C   UNL d   1     -40.695  14.867  20.396  0.00  0.00     0.298 C 
ATOM     23  O   UNL d   1     -41.285  14.318  20.582  0.00  0.00    -0.259 OA
BRANCH  22  24
ATOM     24  O   UNL d   1     -40.796  15.673  20.578  0.00  0.00    -0.296 OA
ATOM     25  C   UNL d   1     -41.466  15.921  20.984  0.00  0.00     0.185 C 
ENDBRANCH  22  24
ENDBRANCH   2  22
TORSDOF 4
ENDMDL
MODEL 8
REMARK VINA RESULT:      -6.0      8.243     10.480
REMARK  4 active torsions:
REMARK  status: ('A' for Active; 'I' for Inactive)
REMARK    1  A    between atoms: N_6  and  C_1 
REMARK    2  A    between atoms: C_10  and  C_2 
REMARK       I    between atoms: C_9  and  N_6 
REMARK    3  A    between atoms: C_11  and  C_9 
REMARK    4  A    between atoms: O_20  and  C_10 
ROOT
ATOM      1  C   UNL d   1     -39.040  14.539  18.102  0.00  0.00     0.119 A 
ATOM      2  C   UNL d   1     -38.747  13.893  17.683  0.00  0.00     0.087 A 
ATOM      3  C   UNL d   1     -38.566  14.150  16.925  0.00  0.00     0.008 A 
ATOM      4  C   UNL d   1     -38.743  14.943  16.870  0.00  0.00     0.028 A 
ATOM      5  S   UNL d   1     -39.039  15.194  17.599  0.00  0.00    -0.070 SA
ATOM      6  C   UNL d   1     -38.615  15.355  16.161  0.00  0.00     0.104 A 
ATOM      7  N   UNL d   1     -38.308  14.958  15.509  0.00  0.00    -0.294 NA
ATOM      8  C   UNL d   1     -38.128  14.152  15.566  0.00  0.00     0.099 A 
ATOM      9  C   UNL d   1     -38.256  13.744  16.274  0.00  0.00    -0.004 A 
ATOM     10  C   UNL d   1     -38.561  15.921  15.561  0.00  0.00     0.029 C 
ATOM     11  C   UNL d   1     -38.921  15.919  16.678  0.00  0.00     0.029 C 
ATOM     12  C   UNL d   1     -37.949  13.347  15.623  0.00  0.00     0.029 C 
ATOM     13  C   UNL d   1     -37.998  14.552  14.858  0.00  0.00     0.029 C 
ENDROOT
BRANCH   1  14
ATOM     14  N   UNL d   1     -39.294  14.538  18.889  0.00  0.00    -0.200 NA
ATOM     15  C   UNL d   1     -39.935  15.004  19.118  0.00  0.00     0.302 C 
ATOM     16  O   UNL d   1     -40.323  15.471  18.559  0.00  0.00    -0.263 OA
BRANCH  15  17
ATOM     17  C   UNL d   1     -40.187  15.002  19.901  0.00  0.00     0.158 A 
ATOM     18  O   UNL d   1     -39.771  15.287  20.548  0.00  0.00    -0.300 OA
ATOM     19  C   UNL d   1     -40.247  15.168  21.229  0.00  0.00     0.123 A 
ATOM     20  C   UNL d   1     -40.942  14.816  20.991  0.00  0.00     0.029 A 
ATOM     21  C   UNL d   1     -40.926  14.704  20.167  0.00  0.00     0.032 A 
ENDBRANCH  15  17
ENDBRANCH   1  14
BRANCH   2  22
ATOM     22  C   UNL d   1     -38.658  13.136  17.983  0.00  0.00     0.298 C 
ATOM     23  O   UNL d   1     -39.249  12.576  17.838  0.00  0.00    -0.259 OA
BRANCH  22  24
ATOM     24  O   UNL d   1     -37.983  12.933  18.426  0.00  0.00    -0.296 OA
ATOM     25  C   UNL d   1     -37.939  12.200  18.796  0.00  0.00     0.185 C 
ENDBRANCH  22  24
ENDBRANCH   2  22
TORSDOF 4
ENDMDL
MODEL 9
REMARK VINA RESULT:      -6.0      8.066      9.023
REMARK  4 active torsions:
REMARK  status: ('A' for Active; 'I' for Inactive)
REMARK    1  A    between atoms: N_6  and  C_1 
REMARK    2  A    between atoms: C_10  and  C_2 
REMARK       I    between atoms: C_9  and  N_6 
REMARK    3  A    between atoms: C_11  and  C_9 
REMARK    4  A    between atoms: O_20  and  C_10 
ROOT
ATOM      1  C   UNL d   1     -39.559  14.301  19.395  0.00  0.00     0.119 A 
ATOM      2  C   UNL d   1     -39.303  14.182  18.621  0.00  0.00     0.087 A 
ATOM      3  C   UNL d   1     -39.809  14.597  18.126  0.00  0.00     0.008 A 
ATOM      4  C   UNL d   1     -40.372  14.970  18.581  0.00  0.00     0.028 A 
ATOM      5  S   UNL d   1     -40.223  14.791  19.374  0.00  0.00    -0.070 SA
ATOM      6  C   UNL d   1     -40.961  15.433  18.227  0.00  0.00     0.104 A 
ATOM      7  N   UNL d   1     -40.976  15.516  17.408  0.00  0.00    -0.294 NA
ATOM      8  C   UNL d   1     -40.404  15.137  16.946  0.00  0.00     0.099 A 
ATOM      9  C   UNL d   1     -39.818  14.676  17.302  0.00  0.00    -0.004 A 
ATOM     10  C   UNL d   1     -41.608  15.922  18.064  0.00  0.00     0.029 C 
ATOM     11  C   UNL d   1     -41.118  15.477  19.034  0.00  0.00     0.029 C 
ATOM     12  C   UNL d   1     -39.833  14.759  16.484  0.00  0.00     0.029 C 
ATOM     13  C   UNL d   1     -40.985  15.595  16.585  0.00  0.00     0.029 C 
ENDROOT
BRANCH   1  14
ATOM     14  N   UNL d   1     -39.214  13.988  20.079  0.00  0.00    -0.200 NA
ATOM     15  C   UNL d   1     -39.177  14.441  20.767  0.00  0.00     0.302 C 
ATOM     16  O   UNL d   1     -39.486  15.206  20.774  0.00  0.00    -0.263 OA
BRANCH  15  17
ATOM     17  C   UNL d   1     -38.834  14.129  21.447  0.00  0.00     0.158 A 
ATOM     18  O   UNL d   1     -38.043  14.172  21.658  0.00  0.00    -0.300 OA
ATOM     19  C   UNL d   1     -37.954  13.777  22.393  0.00  0.00     0.123 A 
ATOM     20  C   UNL d   1     -38.685  13.501  22.620  0.00  0.00     0.029 A 
ATOM     21  C   UNL d   1     -39.249  13.709  22.045  0.00  0.00     0.032 A 
ENDBRANCH  15  17
ENDBRANCH   1  14
BRANCH   2  22
ATOM     22  C   UNL d   1     -38.658  13.728  18.401  0.00  0.00     0.298 C 
ATOM     23  O   UNL d   1     -37.940  14.105  18.238  0.00  0.00    -0.259 OA
BRANCH  22  24
ATOM     24  O   UNL d   1     -38.723  12.900  18.341  0.00  0.00    -0.296 OA
ATOM     25  C   UNL d   1     -38.088  12.457  18.065  0.00  0.00     0.185 C 
ENDBRANCH  22  24
ENDBRANCH   2  22
TORSDOF 4
ENDMDL
