MODEL 1
REMARK VINA RESULT:      57.2      0.000      0.000
REMARK  4 active torsions:
REMARK  status: ('A' for Active; 'I' for Inactive)
REMARK    1  A    between atoms: C_6  and  N_2 
REMARK    2  A    between atoms: C_11  and  C_6 
REMARK    3  A    between atoms: C_10  and  C_11 
REMARK       I    between atoms: N_14  and  C_10 
REMARK    4  A    between atoms: C_16  and  N_14 
ROOT
ATOM      1  C   UNL d   1     -49.455  27.134  33.362  0.00  0.00     0.082 C 
ENDROOT
BRANCH   1   2
ATOM      2  C   UNL d   1     -49.125  27.628  33.801  0.00  0.00     0.281 C 
ATOM      3  N   UNL d   1     -49.340  28.270  34.266  0.00  0.00    -0.208 NA
ATOM      4  O   UNL d   1     -48.491  27.247  33.608  0.00  0.00    -0.265 OA
BRANCH   3   5
ATOM      5  C   UNL d   1     -48.754  28.684  34.684  0.00  0.00     0.087 A 
ATOM      6  C   UNL d   1     -48.679  29.494  34.576  0.00  0.00     0.046 A 
ATOM      7  C   UNL d   1     -48.093  29.907  34.995  0.00  0.00     0.124 A 
ATOM      8  O   UNL d   1     -48.018  30.718  34.887  0.00  0.00    -0.301 OA
ATOM      9  C   UNL d   1     -47.595  29.518  35.509  0.00  0.00     0.123 A 
ATOM     10  C   UNL d   1     -47.444  31.139  35.294  0.00  0.00     0.149 A 
ATOM     11  C   UNL d   1     -46.944  30.738  35.812  0.00  0.00     0.149 A 
ATOM     12  O   UNL d   1     -47.019  29.927  35.921  0.00  0.00    -0.301 OA
ATOM     13  C   UNL d   1     -47.680  28.704  35.610  0.00  0.00     0.028 A 
ATOM     14  C   UNL d   1     -48.254  28.283  35.203  0.00  0.00     0.021 A 
ENDBRANCH   3   5
ENDBRANCH   1   2
BRANCH   1  15
ATOM     15  C   UNL d   1     -49.928  26.466  33.372  0.00  0.00     0.100 C 
BRANCH  15  16
ATOM     16  N   UNL d   1     -50.718  26.309  33.350  0.00  0.00    -0.197 N 
ATOM     17  S   UNL d   1     -51.555  26.210  33.327  0.00  0.00     0.274 S 
ATOM     18  C   UNL d   1     -51.718  25.377  33.328  0.00  0.00     0.109 A 
ATOM     19  O   UNL d   1     -52.355  25.847  33.306  0.00  0.00    -0.200 OA
ATOM     20  O   UNL d   1     -52.079  26.866  33.307  0.00  0.00    -0.200 OA
ATOM     21  C   UNL d   1     -50.983  24.970  33.352  0.00  0.00     0.069 A 
ATOM     22  C   UNL d   1     -52.435  24.945  33.311  0.00  0.00     0.013 A 
ATOM     23  C   UNL d   1     -50.963  24.128  33.359  0.00  0.00     0.005 A 
ATOM     24  C   UNL d   1     -50.368  25.541  33.366  0.00  0.00     0.275 A 
ATOM     25  C   UNL d   1     -51.683  23.708  33.341  0.00  0.00     0.000 A 
ATOM     26  C   UNL d   1     -52.417  24.115  33.317  0.00  0.00     0.001 A 
ATOM     27  O   UNL d   1     -49.663  25.498  33.386  0.00  0.00    -0.266 OA
ENDBRANCH  15  16
ENDBRANCH   1  15
TORSDOF 4
ENDMDL
