MODEL 1
REMARK VINA RESULT:      36.0      0.000      0.000
REMARK  5 active torsions:
REMARK  status: ('A' for Active; 'I' for Inactive)
REMARK    1  A    between atoms: C_9  and  C_5 
REMARK    2  A    between atoms: N_14  and  C_6 
REMARK    3  A    between atoms: N_11  and  C_9 
REMARK    4  A    between atoms: C_15  and  N_11 
REMARK    5  A    between atoms: C_16  and  C_15 
ROOT
ATOM      1  N   UNL d   1     -58.094 -98.781 -45.362  0.00  0.00    -0.258 N 
ATOM      2  N   UNL d   1     -57.823 -98.769 -44.010  0.00  0.00    -0.209 NA
ATOM      3  C   UNL d   1     -58.358 -98.778 -44.615  0.00  0.00     0.152 A 
ATOM      4  C   UNL d   1     -57.297 -98.776 -45.553  0.00  0.00     0.270 A 
ATOM      5  C   UNL d   1     -56.738 -98.767 -44.921  0.00  0.00     0.111 A 
ATOM      6  C   UNL d   1     -57.036 -98.764 -44.167  0.00  0.00     0.170 A 
ATOM      7  C   UNL d   1     -59.179 -98.783 -44.452  0.00  0.00     0.035 A 
ATOM      8  C   UNL d   1     -58.665 -98.790 -46.008  0.00  0.00     0.084 A 
ATOM      9  O   UNL d   1     -57.011 -98.779 -46.320  0.00  0.00    -0.266 OA
ATOM     10  C   UNL d   1     -59.439 -98.795 -45.837  0.00  0.00     0.019 A 
ATOM     11  C   UNL d   1     -59.729 -98.791 -45.074  0.00  0.00     0.005 A 
ATOM     12  C   UNL d   1     -59.457 -98.779 -43.675  0.00  0.00     0.003 C 
ENDROOT
BRANCH   5  13
ATOM     13  C   UNL d   1     -55.910 -98.762 -45.075  0.00  0.00     0.107 C 
BRANCH  13  14
ATOM     14  N   UNL d   1     -55.388 -99.224 -44.622  0.00  0.00    -0.242 NA
BRANCH  14  15
ATOM     15  C   UNL d   1     -54.973 -99.840 -44.988  0.00  0.00     0.099 C 
BRANCH  15  16
ATOM     16  C   UNL d   1     -54.888-100.556 -44.613  0.00  0.00     0.019 A 
ATOM     17  C   UNL d   1     -54.863-100.599 -43.795  0.00  0.00     0.002 A 
ATOM     18  C   UNL d   1     -54.779-101.310 -43.407  0.00  0.00     0.000 A 
ATOM     19  C   UNL d   1     -54.718-102.007 -43.856  0.00  0.00     0.000 A 
ATOM     20  C   UNL d   1     -54.743-101.962 -44.692  0.00  0.00     0.000 A 
ATOM     21  C   UNL d   1     -54.827-101.252 -45.062  0.00  0.00     0.002 A 
ENDBRANCH  15  16
ENDBRANCH  14  15
ENDBRANCH  13  14
ENDBRANCH   5  13
BRANCH   6  22
ATOM     22  N   UNL d   1     -56.478 -98.755 -43.535  0.00  0.00    -0.223 NA
ATOM     23  C   UNL d   1     -56.743 -98.878 -42.760  0.00  0.00     0.121 C 
ENDBRANCH   6  22
TORSDOF 5
ENDMDL
