MODEL 1
REMARK VINA RESULT:       0.4      0.000      0.000
REMARK  7 active torsions:
REMARK  status: ('A' for Active; 'I' for Inactive)
REMARK    1  A    between atoms: C_3  and  C_1 
REMARK    2  A    between atoms: C_5  and  C_3 
REMARK    3  A    between atoms: C_14  and  C_3 
REMARK    4  A    between atoms: N_6  and  C_14 
REMARK    5  A    between atoms: O_17  and  C_9 
REMARK    6  A    between atoms: O_18  and  C_10 
REMARK    7  A    between atoms: O_19  and  C_11 
ROOT
ATOM      1  C   UNL d   1     -42.394-122.365 -50.086  0.00  0.00     0.025 C 
ENDROOT
BRANCH   1   2
ATOM      2  C   UNL d   1     -41.941-122.829 -49.575  0.00  0.00     0.021 A 
ATOM      3  C   UNL d   1     -41.495-123.507 -49.798  0.00  0.00     0.082 A 
ATOM      4  N   UNL d   1     -41.134-123.800 -49.134  0.00  0.00    -0.246 NA
ATOM      5  C   UNL d   1     -41.439-123.817 -50.563  0.00  0.00     0.021 C 
ATOM      6  C   UNL d   1     -41.342-123.321 -48.496  0.00  0.00     0.081 A 
ATOM      7  C   UNL d   1     -41.841-122.726 -48.783  0.00  0.00     0.019 A 
ATOM      8  C   UNL d   1     -41.153-123.342 -47.708  0.00  0.00     0.019 A 
ATOM      9  C   UNL d   1     -42.141-122.157 -48.264  0.00  0.00     0.002 A 
ATOM     10  C   UNL d   1     -41.947-122.182 -47.470  0.00  0.00     0.000 A 
ATOM     11  C   UNL d   1     -41.449-122.778 -47.183  0.00  0.00     0.002 A 
ENDBRANCH   1   2
BRANCH   1  12
ATOM     12  C   UNL d   1     -42.081-122.152 -50.823  0.00  0.00     0.006 A 
ATOM     13  C   UNL d   1     -41.778-121.400 -50.935  0.00  0.00     0.026 A 
ATOM     14  C   UNL d   1     -41.465-121.180 -51.662  0.00  0.00     0.118 A 
ATOM     15  C   UNL d   1     -41.460-121.723 -52.275  0.00  0.00     0.138 A 
ATOM     16  C   UNL d   1     -41.764-122.484 -52.172  0.00  0.00     0.118 A 
ATOM     17  C   UNL d   1     -42.076-122.694 -51.436  0.00  0.00     0.026 A 
BRANCH  14  18
ATOM     18  O   UNL d   1     -41.163-120.430 -51.774  0.00  0.00    -0.326 OA
ATOM     19  C   UNL d   1     -41.123-119.903 -51.148  0.00  0.00     0.181 C 
ENDBRANCH  14  18
BRANCH  15  20
ATOM     20  O   UNL d   1     -41.150-121.506 -53.001  0.00  0.00    -0.324 OA
ATOM     21  C   UNL d   1     -41.524-120.911 -53.438  0.00  0.00     0.182 C 
ENDBRANCH  15  20
BRANCH  16  22
ATOM     22  O   UNL d   1     -41.761-123.027 -52.780  0.00  0.00    -0.326 OA
ATOM     23  C   UNL d   1     -41.180-123.607 -52.819  0.00  0.00     0.181 C 
ENDBRANCH  16  22
ENDBRANCH   1  12
BRANCH   1  24
ATOM     24  C   UNL d   1     -43.152-122.113 -49.870  0.00  0.00     0.148 C 
BRANCH  24  25
ATOM     25  N   UNL d   1     -43.791-122.488 -50.241  0.00  0.00    -0.112 N 
ATOM     26  O   UNL d   1     -44.234-122.068 -50.810  0.00  0.00    -0.532 OA
ATOM     27  O   UNL d   1     -43.984-123.262 -50.048  0.00  0.00    -0.532 OA
ENDBRANCH  24  25
ENDBRANCH   1  24
TORSDOF 7
ENDMDL
MODEL 2
REMARK VINA RESULT:       1.5      1.452      4.026
REMARK  7 active torsions:
REMARK  status: ('A' for Active; 'I' for Inactive)
REMARK    1  A    between atoms: C_3  and  C_1 
REMARK    2  A    between atoms: C_5  and  C_3 
REMARK    3  A    between atoms: C_14  and  C_3 
REMARK    4  A    between atoms: N_6  and  C_14 
REMARK    5  A    between atoms: O_17  and  C_9 
REMARK    6  A    between atoms: O_18  and  C_10 
REMARK    7  A    between atoms: O_19  and  C_11 
ROOT
ATOM      1  C   UNL d   1     -41.566-122.092 -51.509  0.00  0.00     0.025 C 
ENDROOT
BRANCH   1   2
ATOM      2  C   UNL d   1     -41.666-122.503 -52.217  0.00  0.00     0.021 A 
ATOM      3  C   UNL d   1     -41.459-123.309 -52.346  0.00  0.00     0.082 A 
ATOM      4  N   UNL d   1     -41.646-123.497 -53.113  0.00  0.00    -0.246 NA
ATOM      5  C   UNL d   1     -41.123-123.817 -51.785  0.00  0.00     0.021 C 
ATOM      6  C   UNL d   1     -41.967-122.827 -53.470  0.00  0.00     0.081 A 
ATOM      7  C   UNL d   1     -41.973-122.221 -52.906  0.00  0.00     0.019 A 
ATOM      8  C   UNL d   1     -42.250-122.684 -54.216  0.00  0.00     0.019 A 
ATOM      9  C   UNL d   1     -42.267-121.476 -53.107  0.00  0.00     0.002 A 
ATOM     10  C   UNL d   1     -42.552-121.337 -53.862  0.00  0.00     0.000 A 
ATOM     11  C   UNL d   1     -42.546-121.943 -54.426  0.00  0.00     0.002 A 
ENDBRANCH   1   2
BRANCH   1  12
ATOM     12  C   UNL d   1     -41.915-122.385 -50.817  0.00  0.00     0.006 A 
ATOM     13  C   UNL d   1     -42.722-122.310 -50.704  0.00  0.00     0.026 A 
ATOM     14  C   UNL d   1     -43.077-122.598 -50.022  0.00  0.00     0.118 A 
ATOM     15  C   UNL d   1     -42.613-122.963 -49.454  0.00  0.00     0.138 A 
ATOM     16  C   UNL d   1     -41.798-123.044 -49.559  0.00  0.00     0.118 A 
ATOM     17  C   UNL d   1     -41.452-122.750 -50.250  0.00  0.00     0.026 A 
BRANCH  14  18
ATOM     18  O   UNL d   1     -43.882-122.523 -49.910  0.00  0.00    -0.326 OA
ATOM     19  C   UNL d   1     -44.391-122.525 -50.551  0.00  0.00     0.181 C 
ENDBRANCH  14  18
BRANCH  15  20
ATOM     20  O   UNL d   1     -42.964-123.251 -48.773  0.00  0.00    -0.324 OA
ATOM     21  C   UNL d   1     -42.884-122.826 -48.068  0.00  0.00     0.182 C 
ENDBRANCH  15  20
BRANCH  16  22
ATOM     22  O   UNL d   1     -41.333-123.406 -48.996  0.00  0.00    -0.326 OA
ATOM     23  C   UNL d   1     -41.263-123.086 -48.243  0.00  0.00     0.181 C 
ENDBRANCH  16  22
ENDBRANCH   1  12
BRANCH   1  24
ATOM     24  C   UNL d   1     -41.123-121.393 -51.484  0.00  0.00     0.148 C 
BRANCH  24  25
ATOM     25  N   UNL d   1     -41.458-120.751 -51.079  0.00  0.00    -0.112 N 
ATOM     26  O   UNL d   1     -42.113-120.358 -51.413  0.00  0.00    -0.532 OA
ATOM     27  O   UNL d   1     -41.145-120.509 -50.360  0.00  0.00    -0.532 OA
ENDBRANCH  24  25
ENDBRANCH   1  24
TORSDOF 7
ENDMDL
MODEL 3
REMARK VINA RESULT:       1.9      1.680      3.011
REMARK  7 active torsions:
REMARK  status: ('A' for Active; 'I' for Inactive)
REMARK    1  A    between atoms: C_3  and  C_1 
REMARK    2  A    between atoms: C_5  and  C_3 
REMARK    3  A    between atoms: C_14  and  C_3 
REMARK    4  A    between atoms: N_6  and  C_14 
REMARK    5  A    between atoms: O_17  and  C_9 
REMARK    6  A    between atoms: O_18  and  C_10 
REMARK    7  A    between atoms: O_19  and  C_11 
ROOT
ATOM      1  C   UNL d   1     -41.727-121.715 -52.005  0.00  0.00     0.025 C 
ENDROOT
BRANCH   1   2
ATOM      2  C   UNL d   1     -42.189-122.089 -51.433  0.00  0.00     0.021 A 
ATOM      3  C   UNL d   1     -43.009-121.953 -51.303  0.00  0.00     0.082 A 
ATOM      4  N   UNL d   1     -43.250-122.430 -50.692  0.00  0.00    -0.246 NA
ATOM      5  C   UNL d   1     -43.484-121.423 -51.726  0.00  0.00     0.021 C 
ATOM      6  C   UNL d   1     -42.599-122.865 -50.434  0.00  0.00     0.081 A 
ATOM      7  C   UNL d   1     -41.951-122.644 -50.900  0.00  0.00     0.019 A 
ATOM      8  C   UNL d   1     -42.505-123.420 -49.851  0.00  0.00     0.019 A 
ATOM      9  C   UNL d   1     -41.213-122.992 -50.767  0.00  0.00     0.002 A 
ATOM     10  C   UNL d   1     -41.123-123.552 -50.178  0.00  0.00     0.000 A 
ATOM     11  C   UNL d   1     -41.771-123.773 -49.712  0.00  0.00     0.002 A 
ENDBRANCH   1   2
BRANCH   1  12
ATOM     12  C   UNL d   1     -41.873-121.868 -52.806  0.00  0.00     0.006 A 
ATOM     13  C   UNL d   1     -41.793-122.628 -53.097  0.00  0.00     0.026 A 
ATOM     14  C   UNL d   1     -41.936-122.789 -53.890  0.00  0.00     0.118 A 
ATOM     15  C   UNL d   1     -42.159-122.178 -54.387  0.00  0.00     0.138 A 
ATOM     16  C   UNL d   1     -42.242-121.408 -54.103  0.00  0.00     0.118 A 
ATOM     17  C   UNL d   1     -42.096-121.257 -53.303  0.00  0.00     0.026 A 
BRANCH  14  18
ATOM     18  O   UNL d   1     -41.856-123.548 -54.179  0.00  0.00    -0.326 OA
ATOM     19  C   UNL d   1     -41.130-123.814 -54.449  0.00  0.00     0.181 C 
ENDBRANCH  14  18
BRANCH  15  20
ATOM     20  O   UNL d   1     -42.301-122.336 -55.177  0.00  0.00    -0.324 OA
ATOM     21  C   UNL d   1     -42.981-122.758 -55.388  0.00  0.00     0.182 C 
ENDBRANCH  15  20
BRANCH  16  22
ATOM     22  O   UNL d   1     -42.464-120.796 -54.595  0.00  0.00    -0.326 OA
ATOM     23  C   UNL d   1     -41.904-120.269 -54.884  0.00  0.00     0.181 C 
ENDBRANCH  16  22
ENDBRANCH   1  12
BRANCH   1  24
ATOM     24  C   UNL d   1     -41.124-121.192 -51.786  0.00  0.00     0.148 C 
BRANCH  24  25
ATOM     25  N   UNL d   1     -41.355-120.433 -51.543  0.00  0.00    -0.112 N 
ATOM     26  O   UNL d   1     -41.191-119.781 -52.036  0.00  0.00    -0.532 OA
ATOM     27  O   UNL d   1     -41.740-120.330 -50.826  0.00  0.00    -0.532 OA
ENDBRANCH  24  25
ENDBRANCH   1  24
TORSDOF 7
ENDMDL
