MODEL 1
REMARK VINA RESULT:      -9.1      0.000      0.000
REMARK  5 active torsions:
REMARK  status: ('A' for Active; 'I' for Inactive)
REMARK    1  A    between atoms: C_2  and  C_1 
REMARK       I    between atoms: N_4  and  C_2 
REMARK    2  A    between atoms: C_7  and  N_4 
REMARK    3  A    between atoms: C_12  and  C_6 
REMARK    4  A    between atoms: S_11  and  C_12 
REMARK    5  A    between atoms: C_14  and  S_11 
ROOT
ATOM      1  C   UNL d   1      53.436  34.082  54.459  0.00  0.00     0.158 A 
ATOM      2  O   UNL d   1      53.187  33.321  54.655  0.00  0.00    -0.302 OA
ATOM      3  C   UNL d   1      54.097  34.007  53.963  0.00  0.00     0.032 A 
ATOM      4  C   UNL d   1      53.682  32.783  54.289  0.00  0.00     0.107 A 
ATOM      5  C   UNL d   1      54.248  33.203  53.858  0.00  0.00     0.027 A 
ENDROOT
BRANCH   1   6
ATOM      6  C   UNL d   1      53.097  34.794  54.707  0.00  0.00     0.302 C 
ATOM      7  N   UNL d   1      52.525  35.165  54.247  0.00  0.00    -0.204 NA
ATOM      8  O   UNL d   1      53.338  35.128  55.417  0.00  0.00    -0.263 OA
BRANCH   7   9
ATOM      9  C   UNL d   1      52.290  34.815  53.528  0.00  0.00     0.112 A 
ATOM     10  C   UNL d   1      51.535  34.480  53.478  0.00  0.00     0.158 A 
ATOM     11  F   UNL d   1      51.032  34.494  54.127  0.00  0.00    -0.203 F 
ATOM     12  C   UNL d   1      51.298  34.133  52.771  0.00  0.00     0.031 A 
ATOM     13  C   UNL d   1      51.809  34.121  52.118  0.00  0.00     0.002 A 
ATOM     14  C   UNL d   1      52.559  34.457  52.175  0.00  0.00     0.002 A 
ATOM     15  C   UNL d   1      52.797  34.805  52.886  0.00  0.00     0.021 A 
ENDBRANCH   7   9
ENDBRANCH   1   6
BRANCH   4  16
ATOM     16  C   UNL d   1      53.632  31.959  54.335  0.00  0.00     0.060 C 
BRANCH  16  17
ATOM     17  S   UNL d   1      53.751  31.503  53.661  0.00  0.00    -0.084 SA
BRANCH  17  18
ATOM     18  C   UNL d   1      53.421  30.754  53.599  0.00  0.00     0.029 A 
ATOM     19  C   UNL d   1      53.644  30.158  54.121  0.00  0.00     0.006 A 
ATOM     20  C   UNL d   1      53.314  29.409  54.060  0.00  0.00     0.001 A 
ATOM     21  C   UNL d   1      52.755  29.258  53.468  0.00  0.00     0.000 A 
ATOM     22  C   UNL d   1      52.534  29.857  52.947  0.00  0.00     0.001 A 
ATOM     23  C   UNL d   1      52.864  30.607  53.009  0.00  0.00     0.006 A 
ENDBRANCH  17  18
ENDBRANCH  16  17
ENDBRANCH   4  16
TORSDOF 5
ENDMDL
MODEL 2
REMARK VINA RESULT:      -8.5      2.047      4.214
REMARK  5 active torsions:
REMARK  status: ('A' for Active; 'I' for Inactive)
REMARK    1  A    between atoms: C_2  and  C_1 
REMARK       I    between atoms: N_4  and  C_2 
REMARK    2  A    between atoms: C_7  and  N_4 
REMARK    3  A    between atoms: C_12  and  C_6 
REMARK    4  A    between atoms: S_11  and  C_12 
REMARK    5  A    between atoms: C_14  and  S_11 
ROOT
ATOM      1  C   UNL d   1      52.875  32.142  53.208  0.00  0.00     0.158 A 
ATOM      2  O   UNL d   1      52.147  32.429  53.469  0.00  0.00    -0.302 OA
ATOM      3  C   UNL d   1      53.164  32.677  52.645  0.00  0.00     0.032 A 
ATOM      4  C   UNL d   1      51.986  33.127  53.076  0.00  0.00     0.107 A 
ATOM      5  C   UNL d   1      52.614  33.287  52.563  0.00  0.00     0.027 A 
ENDROOT
BRANCH   1   6
ATOM      6  C   UNL d   1      53.254  31.451  53.457  0.00  0.00     0.302 C 
ATOM      7  N   UNL d   1      53.882  31.488  53.987  0.00  0.00    -0.204 NA
ATOM      8  O   UNL d   1      52.997  30.727  53.169  0.00  0.00    -0.263 OA
BRANCH   7   9
ATOM      9  C   UNL d   1      54.133  32.230  54.271  0.00  0.00     0.112 A 
ATOM     10  C   UNL d   1      53.998  32.417  55.065  0.00  0.00     0.158 A 
ATOM     11  F   UNL d   1      53.624  31.879  55.559  0.00  0.00    -0.203 F 
ATOM     12  C   UNL d   1      54.243  33.149  55.351  0.00  0.00     0.031 A 
ATOM     13  C   UNL d   1      54.620  33.690  54.849  0.00  0.00     0.002 A 
ATOM     14  C   UNL d   1      54.751  33.497  54.059  0.00  0.00     0.002 A 
ATOM     15  C   UNL d   1      54.505  32.761  53.772  0.00  0.00     0.021 A 
ENDBRANCH   7   9
ENDBRANCH   1   6
BRANCH   4  16
ATOM     16  C   UNL d   1      51.314  33.599  53.168  0.00  0.00     0.060 C 
BRANCH  16  17
ATOM     17  S   UNL d   1      51.067  34.086  52.552  0.00  0.00    -0.084 SA
BRANCH  17  18
ATOM     18  C   UNL d   1      50.321  34.428  52.564  0.00  0.00     0.029 A 
ATOM     19  C   UNL d   1      50.057  34.826  53.233  0.00  0.00     0.006 A 
ATOM     20  C   UNL d   1      49.312  35.169  53.246  0.00  0.00     0.001 A 
ATOM     21  C   UNL d   1      48.827  35.111  52.576  0.00  0.00     0.000 A 
ATOM     22  C   UNL d   1      49.094  34.711  51.907  0.00  0.00     0.001 A 
ATOM     23  C   UNL d   1      49.841  34.368  51.896  0.00  0.00     0.006 A 
ENDBRANCH  17  18
ENDBRANCH  16  17
ENDBRANCH   4  16
TORSDOF 5
ENDMDL
MODEL 3
REMARK VINA RESULT:      -8.2      1.765      3.846
REMARK  5 active torsions:
REMARK  status: ('A' for Active; 'I' for Inactive)
REMARK    1  A    between atoms: C_2  and  C_1 
REMARK       I    between atoms: N_4  and  C_2 
REMARK    2  A    between atoms: C_7  and  N_4 
REMARK    3  A    between atoms: C_12  and  C_6 
REMARK    4  A    between atoms: S_11  and  C_12 
REMARK    5  A    between atoms: C_14  and  S_11 
ROOT
ATOM      1  C   UNL d   1      53.129  34.429  54.309  0.00  0.00     0.158 A 
ATOM      2  O   UNL d   1      52.388  34.139  54.093  0.00  0.00    -0.302 OA
ATOM      3  C   UNL d   1      53.437  34.835  53.655  0.00  0.00     0.032 A 
ATOM      4  C   UNL d   1      52.237  34.360  53.321  0.00  0.00     0.107 A 
ATOM      5  C   UNL d   1      52.884  34.793  53.044  0.00  0.00     0.027 A 
ENDROOT
BRANCH   1   6
ATOM      6  C   UNL d   1      53.505  34.336  55.040  0.00  0.00     0.302 C 
ATOM      7  N   UNL d   1      54.011  33.701  55.171  0.00  0.00    -0.204 NA
ATOM      8  O   UNL d   1      53.367  34.885  55.634  0.00  0.00    -0.263 OA
BRANCH   7   9
ATOM      9  C   UNL d   1      54.142  33.151  54.559  0.00  0.00     0.112 A 
ATOM     10  C   UNL d   1      53.850  32.382  54.647  0.00  0.00     0.158 A 
ATOM     11  F   UNL d   1      53.440  32.171  55.327  0.00  0.00    -0.203 F 
ATOM     12  C   UNL d   1      53.976  31.835  54.046  0.00  0.00     0.031 A 
ATOM     13  C   UNL d   1      54.390  32.052  53.361  0.00  0.00     0.002 A 
ATOM     14  C   UNL d   1      54.678  32.820  53.280  0.00  0.00     0.002 A 
ATOM     15  C   UNL d   1      54.551  33.370  53.885  0.00  0.00     0.021 A 
ENDBRANCH   7   9
ENDBRANCH   1   6
BRANCH   4  16
ATOM     16  C   UNL d   1      51.557  34.186  52.884  0.00  0.00     0.060 C 
BRANCH  16  17
ATOM     17  S   UNL d   1      50.820  34.425  53.161  0.00  0.00    -0.084 SA
BRANCH  17  18
ATOM     18  C   UNL d   1      50.185  34.502  52.646  0.00  0.00     0.029 A 
ATOM     19  C   UNL d   1      50.218  34.170  51.895  0.00  0.00     0.006 A 
ATOM     20  C   UNL d   1      49.583  34.246  51.380  0.00  0.00     0.001 A 
ATOM     21  C   UNL d   1      48.909  34.662  51.624  0.00  0.00     0.000 A 
ATOM     22  C   UNL d   1      48.880  34.993  52.378  0.00  0.00     0.001 A 
ATOM     23  C   UNL d   1      49.516  34.917  52.893  0.00  0.00     0.006 A 
ENDBRANCH  17  18
ENDBRANCH  16  17
ENDBRANCH   4  16
TORSDOF 5
ENDMDL
MODEL 4
REMARK VINA RESULT:      -7.8      1.166      2.075
REMARK  5 active torsions:
REMARK  status: ('A' for Active; 'I' for Inactive)
REMARK    1  A    between atoms: C_2  and  C_1 
REMARK       I    between atoms: N_4  and  C_2 
REMARK    2  A    between atoms: C_7  and  N_4 
REMARK    3  A    between atoms: C_12  and  C_6 
REMARK    4  A    between atoms: S_11  and  C_12 
REMARK    5  A    between atoms: C_14  and  S_11 
ROOT
ATOM      1  C   UNL d   1      52.585  33.975  53.433  0.00  0.00     0.158 A 
ATOM      2  O   UNL d   1      52.295  33.247  53.688  0.00  0.00    -0.302 OA
ATOM      3  C   UNL d   1      53.008  33.842  52.732  0.00  0.00     0.032 A 
ATOM      4  C   UNL d   1      52.533  32.672  53.159  0.00  0.00     0.107 A 
ATOM      5  C   UNL d   1      52.976  33.035  52.563  0.00  0.00     0.027 A 
ENDROOT
BRANCH   1   6
ATOM      6  C   UNL d   1      52.478  34.708  53.800  0.00  0.00     0.302 C 
ATOM      7  N   UNL d   1      53.011  34.971  54.369  0.00  0.00    -0.204 NA
ATOM      8  O   UNL d   1      51.833  35.172  53.591  0.00  0.00    -0.263 OA
BRANCH   7   9
ATOM      9  C   UNL d   1      53.660  34.490  54.572  0.00  0.00     0.112 A 
ATOM     10  C   UNL d   1      53.668  34.126  55.314  0.00  0.00     0.158 A 
ATOM     11  F   UNL d   1      53.046  34.240  55.837  0.00  0.00    -0.203 F 
ATOM     12  C   UNL d   1      54.307  33.650  55.519  0.00  0.00     0.031 A 
ATOM     13  C   UNL d   1      54.934  33.538  54.989  0.00  0.00     0.002 A 
ATOM     14  C   UNL d   1      54.919  33.904  54.251  0.00  0.00     0.002 A 
ATOM     15  C   UNL d   1      54.277  34.382  54.045  0.00  0.00     0.021 A 
ENDBRANCH   7   9
ENDBRANCH   1   6
BRANCH   4  16
ATOM     16  C   UNL d   1      52.365  31.863  53.202  0.00  0.00     0.060 C 
BRANCH  16  17
ATOM     17  S   UNL d   1      52.920  31.315  52.940  0.00  0.00    -0.084 SA
BRANCH  17  18
ATOM     18  C   UNL d   1      52.958  30.567  53.275  0.00  0.00     0.029 A 
ATOM     19  C   UNL d   1      52.371  30.013  53.122  0.00  0.00     0.006 A 
ATOM     20  C   UNL d   1      52.408  29.264  53.457  0.00  0.00     0.001 A 
ATOM     21  C   UNL d   1      53.045  29.073  53.952  0.00  0.00     0.000 A 
ATOM     22  C   UNL d   1      53.632  29.631  54.103  0.00  0.00     0.001 A 
ATOM     23  C   UNL d   1      53.594  30.379  53.767  0.00  0.00     0.006 A 
ENDBRANCH  17  18
ENDBRANCH  16  17
ENDBRANCH   4  16
TORSDOF 5
ENDMDL
MODEL 5
REMARK VINA RESULT:      -7.2      1.842      4.029
REMARK  5 active torsions:
REMARK  status: ('A' for Active; 'I' for Inactive)
REMARK    1  A    between atoms: C_2  and  C_1 
REMARK       I    between atoms: N_4  and  C_2 
REMARK    2  A    between atoms: C_7  and  N_4 
REMARK    3  A    between atoms: C_12  and  C_6 
REMARK    4  A    between atoms: S_11  and  C_12 
REMARK    5  A    between atoms: C_14  and  S_11 
ROOT
ATOM      1  C   UNL d   1      53.440  32.843  54.059  0.00  0.00     0.158 A 
ATOM      2  O   UNL d   1      52.631  32.980  54.147  0.00  0.00    -0.302 OA
ATOM      3  C   UNL d   1      53.656  33.112  53.305  0.00  0.00     0.032 A 
ATOM      4  C   UNL d   1      52.350  33.327  53.462  0.00  0.00     0.107 A 
ATOM      5  C   UNL d   1      52.982  33.412  52.936  0.00  0.00     0.027 A 
ENDROOT
BRANCH   1   6
ATOM      6  C   UNL d   1      53.948  32.501  54.614  0.00  0.00     0.302 C 
ATOM      7  N   UNL d   1      54.100  31.693  54.598  0.00  0.00    -0.204 NA
ATOM      8  O   UNL d   1      54.300  32.978  55.183  0.00  0.00    -0.263 OA
BRANCH   7   9
ATOM      9  C   UNL d   1      53.736  31.221  54.016  0.00  0.00     0.112 A 
ATOM     10  C   UNL d   1      53.219  30.623  54.256  0.00  0.00     0.158 A 
ATOM     11  F   UNL d   1      53.070  30.500  55.054  0.00  0.00    -0.203 F 
ATOM     12  C   UNL d   1      52.857  30.154  53.685  0.00  0.00     0.031 A 
ATOM     13  C   UNL d   1      53.009  30.281  52.880  0.00  0.00     0.002 A 
ATOM     14  C   UNL d   1      53.526  30.879  52.648  0.00  0.00     0.002 A 
ATOM     15  C   UNL d   1      53.890  31.350  53.222  0.00  0.00     0.021 A 
ENDBRANCH   7   9
ENDBRANCH   1   6
BRANCH   4  16
ATOM     16  C   UNL d   1      51.571  33.557  53.312  0.00  0.00     0.060 C 
BRANCH  16  17
ATOM     17  S   UNL d   1      51.415  34.127  52.739  0.00  0.00    -0.084 SA
BRANCH  17  18
ATOM     18  C   UNL d   1      50.643  34.342  52.564  0.00  0.00     0.029 A 
ATOM     19  C   UNL d   1      50.177  34.715  53.130  0.00  0.00     0.006 A 
ATOM     20  C   UNL d   1      49.404  34.931  52.955  0.00  0.00     0.001 A 
ATOM     21  C   UNL d   1      49.098  34.770  52.202  0.00  0.00     0.000 A 
ATOM     22  C   UNL d   1      49.568  34.397  51.637  0.00  0.00     0.001 A 
ATOM     23  C   UNL d   1      50.341  34.181  51.813  0.00  0.00     0.006 A 
ENDBRANCH  17  18
ENDBRANCH  16  17
ENDBRANCH   4  16
TORSDOF 5
ENDMDL
