MODEL 1
REMARK VINA RESULT:      -5.2      0.000      0.000
REMARK  3 active torsions:
REMARK  status: ('A' for Active; 'I' for Inactive)
REMARK    1  A    between atoms: C_3  and  S_1 
REMARK    2  A    between atoms: N_4  and  S_1 
REMARK       I    between atoms: C_2  and  N_5 
REMARK       I    between atoms: N_6  and  C_2 
REMARK    3  A    between atoms: C_13  and  N_6 
ROOT
ATOM      1  C   UNL d   1     -45.541  11.949  22.878  0.00  0.00     0.339 C 
ATOM      2  N   UNL d   1     -47.626  13.284  22.694  0.00  0.00    -0.226 N 
ATOM      3  N   UNL d   1     -46.236  12.389  22.820  0.00  0.00    -0.254 N 
ATOM      4  N   UNL d   1     -45.526  11.247  23.319  0.00  0.00    -0.257 N 
ATOM      5  C   UNL d   1     -47.628  12.588  23.137  0.00  0.00     0.111 A 
ATOM      6  C   UNL d   1     -46.927  13.535  22.312  0.00  0.00     0.111 A 
ATOM      7  O   UNL d   1     -44.847  12.207  22.493  0.00  0.00    -0.245 OA
ATOM      8  C   UNL d   1     -46.925  12.135  23.200  0.00  0.00     0.104 A 
ATOM      9  C   UNL d   1     -46.236  13.090  22.374  0.00  0.00     0.104 A 
ATOM     10  C   UNL d   1     -46.213  10.996  23.697  0.00  0.00     0.104 C 
ENDROOT
BRANCH   2  11
ATOM     11  S   UNL d   1     -48.311  13.725  22.632  0.00  0.00     0.271 S 
ATOM     12  O   UNL d   1     -48.522  13.505  23.398  0.00  0.00    -0.200 OA
ATOM     13  O   UNL d   1     -48.100  13.945  21.865  0.00  0.00    -0.200 OA
BRANCH  11  14
ATOM     14  C   UNL d   1     -49.002  14.170  22.569  0.00  0.00     0.104 A 
ATOM     15  C   UNL d   1     -49.711  13.806  22.378  0.00  0.00     0.012 A 
ATOM     16  C   UNL d   1     -50.393  14.245  22.316  0.00  0.00     0.001 A 
ATOM     17  C   UNL d   1     -49.728  12.991  22.249  0.00  0.00     0.001 C 
ATOM     18  C   UNL d   1     -50.373  15.057  22.445  0.00  0.00     0.000 A 
ATOM     19  C   UNL d   1     -49.664  15.422  22.636  0.00  0.00     0.001 A 
ATOM     20  C   UNL d   1     -51.064  15.503  22.382  0.00  0.00     0.000 C 
ATOM     21  C   UNL d   1     -48.979  14.981  22.698  0.00  0.00     0.012 A 
ATOM     22  C   UNL d   1     -48.261  15.344  22.891  0.00  0.00     0.001 C 
ENDBRANCH  11  14
ENDBRANCH   2  11
BRANCH   4  23
ATOM     23  C   UNL d   1     -44.824  10.807  23.376  0.00  0.00     0.068 A 
ATOM     24  C   UNL d   1     -44.836  10.000  23.559  0.00  0.00     0.018 A 
ATOM     25  C   UNL d   1     -44.139   9.576  23.611  0.00  0.00     0.002 A 
ATOM     26  C   UNL d   1     -43.413   9.958  23.480  0.00  0.00     0.000 A 
ATOM     27  C   UNL d   1     -43.397  10.767  23.297  0.00  0.00     0.002 A 
ATOM     28  C   UNL d   1     -42.715   9.524  23.535  0.00  0.00     0.000 C 
ATOM     29  C   UNL d   1     -44.107  11.184  23.246  0.00  0.00     0.018 A 
ENDBRANCH   4  23
TORSDOF 3
ENDMDL
MODEL 2
REMARK VINA RESULT:      -4.7      2.051      2.756
REMARK  3 active torsions:
REMARK  status: ('A' for Active; 'I' for Inactive)
REMARK    1  A    between atoms: C_3  and  S_1 
REMARK    2  A    between atoms: N_4  and  S_1 
REMARK       I    between atoms: C_2  and  N_5 
REMARK       I    between atoms: N_6  and  C_2 
REMARK    3  A    between atoms: C_13  and  N_6 
ROOT
ATOM      1  C   UNL d   1     -44.771  13.582  22.012  0.00  0.00     0.339 C 
ATOM      2  N   UNL d   1     -47.142  13.068  22.539  0.00  0.00    -0.226 N 
ATOM      3  N   UNL d   1     -45.558  13.407  22.185  0.00  0.00    -0.254 N 
ATOM      4  N   UNL d   1     -44.290  13.021  21.635  0.00  0.00    -0.257 N 
ATOM      5  C   UNL d   1     -46.677  12.499  22.164  0.00  0.00     0.111 A 
ATOM      6  C   UNL d   1     -46.816  13.810  22.738  0.00  0.00     0.111 A 
ATOM      7  O   UNL d   1     -44.452  14.326  22.215  0.00  0.00    -0.245 OA
ATOM      8  C   UNL d   1     -45.877  12.670  21.985  0.00  0.00     0.104 A 
ATOM      9  C   UNL d   1     -46.027  13.979  22.562  0.00  0.00     0.104 A 
ATOM     10  C   UNL d   1     -44.609  12.288  21.437  0.00  0.00     0.104 C 
ENDROOT
BRANCH   2  11
ATOM     11  S   UNL d   1     -47.923  12.902  22.713  0.00  0.00     0.271 S 
ATOM     12  O   UNL d   1     -47.951  12.371  22.082  0.00  0.00    -0.200 OA
ATOM     13  O   UNL d   1     -47.895  13.432  23.344  0.00  0.00    -0.200 OA
BRANCH  11  14
ATOM     14  C   UNL d   1     -48.711  12.733  22.889  0.00  0.00     0.104 A 
ATOM     15  C   UNL d   1     -48.898  12.105  23.381  0.00  0.00     0.012 A 
ATOM     16  C   UNL d   1     -49.675  11.939  23.554  0.00  0.00     0.001 A 
ATOM     17  C   UNL d   1     -48.293  11.642  23.698  0.00  0.00     0.001 C 
ATOM     18  C   UNL d   1     -50.276  12.402  23.236  0.00  0.00     0.000 A 
ATOM     19  C   UNL d   1     -50.089  13.031  22.744  0.00  0.00     0.001 A 
ATOM     20  C   UNL d   1     -51.064  12.234  23.412  0.00  0.00     0.000 C 
ATOM     21  C   UNL d   1     -49.309  13.198  22.570  0.00  0.00     0.012 A 
ATOM     22  C   UNL d   1     -49.114  13.831  22.074  0.00  0.00     0.001 C 
ENDBRANCH  11  14
ENDBRANCH   2  11
BRANCH   4  23
ATOM     23  C   UNL d   1     -43.499  13.201  21.463  0.00  0.00     0.068 A 
ATOM     24  C   UNL d   1     -43.289  13.917  21.104  0.00  0.00     0.018 A 
ATOM     25  C   UNL d   1     -42.506  14.084  20.939  0.00  0.00     0.002 A 
ATOM     26  C   UNL d   1     -41.916  13.532  21.133  0.00  0.00     0.000 A 
ATOM     27  C   UNL d   1     -42.122  12.813  21.492  0.00  0.00     0.002 A 
ATOM     28  C   UNL d   1     -41.129  13.707  20.963  0.00  0.00     0.000 C 
ATOM     29  C   UNL d   1     -42.916  12.656  21.654  0.00  0.00     0.018 A 
ENDBRANCH   4  23
TORSDOF 3
ENDMDL
MODEL 3
REMARK VINA RESULT:      -3.9      2.546      3.349
REMARK  3 active torsions:
REMARK  status: ('A' for Active; 'I' for Inactive)
REMARK    1  A    between atoms: C_3  and  S_1 
REMARK    2  A    between atoms: N_4  and  S_1 
REMARK       I    between atoms: C_2  and  N_5 
REMARK       I    between atoms: N_6  and  C_2 
REMARK    3  A    between atoms: C_13  and  N_6 
ROOT
ATOM      1  C   UNL d   1     -43.931  13.711  21.755  0.00  0.00     0.339 C 
ATOM      2  N   UNL d   1     -46.193  12.993  22.484  0.00  0.00    -0.226 N 
ATOM      3  N   UNL d   1     -44.681  13.467  21.996  0.00  0.00    -0.254 N 
ATOM      4  N   UNL d   1     -43.386  13.159  21.460  0.00  0.00    -0.257 N 
ATOM      5  C   UNL d   1     -45.663  12.431  22.194  0.00  0.00     0.111 A 
ATOM      6  C   UNL d   1     -45.968  13.796  22.532  0.00  0.00     0.111 A 
ATOM      7  O   UNL d   1     -43.714  14.515  21.805  0.00  0.00    -0.245 OA
ATOM      8  C   UNL d   1     -44.899  12.671  21.947  0.00  0.00     0.104 A 
ATOM      9  C   UNL d   1     -45.215  14.032  22.288  0.00  0.00     0.104 A 
ATOM     10  C   UNL d   1     -43.605  12.367  21.412  0.00  0.00     0.104 C 
ENDROOT
BRANCH   2  11
ATOM     11  S   UNL d   1     -46.938  12.759  22.725  0.00  0.00     0.271 S 
ATOM     12  O   UNL d   1     -47.046  12.366  22.008  0.00  0.00    -0.200 OA
ATOM     13  O   UNL d   1     -46.829  13.152  23.442  0.00  0.00    -0.200 OA
BRANCH  11  14
ATOM     14  C   UNL d   1     -47.690  12.523  22.968  0.00  0.00     0.104 A 
ATOM     15  C   UNL d   1     -47.780  11.869  23.454  0.00  0.00     0.012 A 
ATOM     16  C   UNL d   1     -48.521  11.637  23.693  0.00  0.00     0.001 A 
ATOM     17  C   UNL d   1     -47.113  11.449  23.698  0.00  0.00     0.001 C 
ATOM     18  C   UNL d   1     -49.184  12.058  23.449  0.00  0.00     0.000 A 
ATOM     19  C   UNL d   1     -49.095  12.712  22.963  0.00  0.00     0.001 A 
ATOM     20  C   UNL d   1     -49.936  11.822  23.692  0.00  0.00     0.000 C 
ATOM     21  C   UNL d   1     -48.350  12.946  22.722  0.00  0.00     0.012 A 
ATOM     22  C   UNL d   1     -48.253  13.605  22.232  0.00  0.00     0.001 C 
ENDBRANCH  11  14
ENDBRANCH   2  11
BRANCH   4  23
ATOM     23  C   UNL d   1     -42.632  13.408  21.218  0.00  0.00     0.068 A 
ATOM     24  C   UNL d   1     -41.990  13.403  21.740  0.00  0.00     0.018 A 
ATOM     25  C   UNL d   1     -41.252  13.651  21.491  0.00  0.00     0.002 A 
ATOM     26  C   UNL d   1     -41.145  13.908  20.709  0.00  0.00     0.000 A 
ATOM     27  C   UNL d   1     -41.786  13.914  20.182  0.00  0.00     0.002 A 
ATOM     28  C   UNL d   1     -40.398  14.156  20.465  0.00  0.00     0.000 C 
ATOM     29  C   UNL d   1     -42.526  13.662  20.445  0.00  0.00     0.018 A 
ENDBRANCH   4  23
TORSDOF 3
ENDMDL
MODEL 4
REMARK VINA RESULT:      -3.2      4.081      6.731
REMARK  3 active torsions:
REMARK  status: ('A' for Active; 'I' for Inactive)
REMARK    1  A    between atoms: C_3  and  S_1 
REMARK    2  A    between atoms: N_4  and  S_1 
REMARK       I    between atoms: C_2  and  N_5 
REMARK       I    between atoms: N_6  and  C_2 
REMARK    3  A    between atoms: C_13  and  N_6 
ROOT
ATOM      1  C   UNL d   1     -44.421  12.833  21.936  0.00  0.00     0.339 C 
ATOM      2  N   UNL d   1     -42.245  13.668  21.081  0.00  0.00    -0.226 N 
ATOM      3  N   UNL d   1     -43.700  13.115  21.652  0.00  0.00    -0.254 N 
ATOM      4  N   UNL d   1     -45.039  13.360  22.106  0.00  0.00    -0.257 N 
ATOM      5  C   UNL d   1     -42.849  14.205  21.245  0.00  0.00     0.111 A 
ATOM      6  C   UNL d   1     -42.367  12.851  21.203  0.00  0.00     0.111 A 
ATOM      7  O   UNL d   1     -44.535  12.015  22.055  0.00  0.00    -0.245 OA
ATOM      8  C   UNL d   1     -43.585  13.926  21.534  0.00  0.00     0.104 A 
ATOM      9  C   UNL d   1     -43.091  12.576  21.487  0.00  0.00     0.104 A 
ATOM     10  C   UNL d   1     -44.922  14.166  21.987  0.00  0.00     0.104 C 
ENDROOT
BRANCH   2  11
ATOM     11  S   UNL d   1     -41.528  13.940  20.800  0.00  0.00     0.271 S 
ATOM     12  O   UNL d   1     -41.348  13.182  20.526  0.00  0.00    -0.200 OA
ATOM     13  O   UNL d   1     -41.708  14.697  21.073  0.00  0.00    -0.200 OA
BRANCH  11  14
ATOM     14  C   UNL d   1     -40.804  14.215  20.515  0.00  0.00     0.104 A 
ATOM     15  C   UNL d   1     -40.720  14.412  19.725  0.00  0.00     0.012 A 
ATOM     16  C   UNL d   1     -40.006  14.683  19.445  0.00  0.00     0.001 A 
ATOM     17  C   UNL d   1     -41.364  14.335  19.215  0.00  0.00     0.001 C 
ATOM     18  C   UNL d   1     -39.365  14.759  19.955  0.00  0.00     0.000 A 
ATOM     19  C   UNL d   1     -39.449  14.562  20.746  0.00  0.00     0.001 A 
ATOM     20  C   UNL d   1     -38.641  15.034  19.671  0.00  0.00     0.000 C 
ATOM     21  C   UNL d   1     -40.166  14.289  21.028  0.00  0.00     0.012 A 
ATOM     22  C   UNL d   1     -40.256  14.088  21.825  0.00  0.00     0.001 C 
ENDBRANCH  11  14
ENDBRANCH   2  11
BRANCH   4  23
ATOM     23  C   UNL d   1     -45.763  13.072  22.391  0.00  0.00     0.068 A 
ATOM     24  C   UNL d   1     -45.823  12.722  23.139  0.00  0.00     0.018 A 
ATOM     25  C   UNL d   1     -46.541  12.442  23.410  0.00  0.00     0.002 A 
ATOM     26  C   UNL d   1     -47.217  12.509  22.932  0.00  0.00     0.000 A 
ATOM     27  C   UNL d   1     -47.162  12.859  22.182  0.00  0.00     0.002 A 
ATOM     28  C   UNL d   1     -47.938  12.225  23.212  0.00  0.00     0.000 C 
ATOM     29  C   UNL d   1     -46.431  13.138  21.919  0.00  0.00     0.018 A 
ENDBRANCH   4  23
TORSDOF 3
ENDMDL
