MODEL 1
REMARK VINA RESULT:      45.4      0.000      0.000
REMARK  5 active torsions:
REMARK  status: ('A' for Active; 'I' for Inactive)
REMARK    1  A    between atoms: C_4  and  S_1 
REMARK    2  A    between atoms: N_5  and  S_1 
REMARK    3  A    between atoms: C_2  and  C_9 
REMARK       I    between atoms: N_3  and  C_2 
REMARK    4  A    between atoms: C_14  and  N_5 
REMARK    5  A    between atoms: C_15  and  C_14 
ROOT
ATOM      1  C   UNL d   1      13.831  12.604  -2.801  0.00  0.00     0.057 A 
ATOM      2  C   UNL d   1      13.916  13.390  -2.555  0.00  0.00     0.005 A 
ATOM      3  C   UNL d   1      14.251  12.008  -2.417  0.00  0.00     0.005 A 
ATOM      4  C   UNL d   1      14.834  12.973  -1.548  0.00  0.00     0.020 A 
ATOM      5  C   UNL d   1      14.413  13.578  -1.934  0.00  0.00     0.002 A 
ATOM      6  C   UNL d   1      14.753  12.195  -1.789  0.00  0.00     0.002 A 
ENDROOT
BRANCH   4   7
ATOM      7  C   UNL d   1      15.340  13.162  -0.917  0.00  0.00     0.112 C 
BRANCH   7   8
ATOM      8  N   UNL d   1      15.097  13.706  -0.342  0.00  0.00    -0.157 NA
BRANCH   8   9
ATOM      9  S   UNL d   1      15.370  14.491  -0.373  0.00  0.00     0.285 S 
ATOM     10  O   UNL d   1      14.596  14.753  -0.530  0.00  0.00    -0.198 OA
ATOM     11  O   UNL d   1      16.143  14.228  -0.216  0.00  0.00    -0.198 OA
BRANCH   9  12
ATOM     12  C   UNL d   1      15.642  15.276  -0.404  0.00  0.00     0.106 A 
ATOM     13  C   UNL d   1      15.220  15.836  -0.828  0.00  0.00     0.024 A 
ATOM     14  C   UNL d   1      15.480  16.620  -0.866  0.00  0.00     0.059 A 
ATOM     15 CL   UNL d   1      15.058  17.183  -1.292  0.00  0.00    -0.082 Cl
ATOM     16  C   UNL d   1      16.171  16.832  -0.472  0.00  0.00     0.011 A 
ATOM     17  C   UNL d   1      16.586  16.270  -0.051  0.00  0.00     0.002 A 
ATOM     18  C   UNL d   1      16.325  15.490  -0.015  0.00  0.00     0.013 A 
ENDBRANCH   9  12
ENDBRANCH   8   9
ENDBRANCH   7   8
ENDBRANCH   4   7
BRANCH   1  19
ATOM     19  C   UNL d   1      13.326  12.410  -3.434  0.00  0.00     0.265 C 
ATOM     20  N   UNL d   1      13.364  12.842  -4.143  0.00  0.00    -0.272 N 
ATOM     21  C   UNL d   1      13.871  13.471  -4.297  0.00  0.00     0.083 A 
ATOM     22  C   UNL d   1      12.900  12.714  -4.814  0.00  0.00     0.083 A 
ATOM     23  C   UNL d   1      13.722  13.734  -5.065  0.00  0.00     0.021 A 
ATOM     24  C   UNL d   1      13.127  13.271  -5.382  0.00  0.00     0.021 A 
ATOM     25  O   UNL d   1      12.780  11.783  -3.358  0.00  0.00    -0.267 OA
ENDBRANCH   1  19
TORSDOF 5
ENDMDL
MODEL 2
REMARK VINA RESULT:      47.3      4.064      5.058
REMARK  5 active torsions:
REMARK  status: ('A' for Active; 'I' for Inactive)
REMARK    1  A    between atoms: C_4  and  S_1 
REMARK    2  A    between atoms: N_5  and  S_1 
REMARK    3  A    between atoms: C_2  and  C_9 
REMARK       I    between atoms: N_3  and  C_2 
REMARK    4  A    between atoms: C_14  and  N_5 
REMARK    5  A    between atoms: C_15  and  C_14 
ROOT
ATOM      1  C   UNL d   1      13.556  14.520  -4.230  0.00  0.00     0.057 A 
ATOM      2  C   UNL d   1      13.438  14.652  -5.039  0.00  0.00     0.005 A 
ATOM      3  C   UNL d   1      13.928  15.096  -3.772  0.00  0.00     0.005 A 
ATOM      4  C   UNL d   1      14.062  15.928  -4.920  0.00  0.00     0.020 A 
ATOM      5  C   UNL d   1      13.687  15.349  -5.385  0.00  0.00     0.002 A 
ATOM      6  C   UNL d   1      14.181  15.801  -4.120  0.00  0.00     0.002 A 
ENDROOT
BRANCH   4   7
ATOM      7  C   UNL d   1      14.316  16.637  -5.270  0.00  0.00     0.112 C 
BRANCH   7   8
ATOM      8  N   UNL d   1      13.923  16.932  -5.936  0.00  0.00    -0.157 NA
BRANCH   8   9
ATOM      9  S   UNL d   1      13.795  17.750  -6.013  0.00  0.00     0.285 S 
ATOM     10  O   UNL d   1      12.994  17.607  -6.186  0.00  0.00    -0.198 OA
ATOM     11  O   UNL d   1      14.595  17.892  -5.841  0.00  0.00    -0.198 OA
BRANCH   9  12
ATOM     12  C   UNL d   1      13.666  18.568  -6.090  0.00  0.00     0.106 A 
ATOM     13  C   UNL d   1      14.278  19.092  -5.941  0.00  0.00     0.024 A 
ATOM     14  C   UNL d   1      14.161  19.907  -6.015  0.00  0.00     0.059 A 
ATOM     15 CL   UNL d   1      14.774  20.435  -5.866  0.00  0.00    -0.082 Cl
ATOM     16  C   UNL d   1      13.421  20.187  -6.240  0.00  0.00     0.011 A 
ATOM     17  C   UNL d   1      12.816  19.660  -6.387  0.00  0.00     0.002 A 
ATOM     18  C   UNL d   1      12.934  18.850  -6.313  0.00  0.00     0.013 A 
ENDBRANCH   9  12
ENDBRANCH   8   9
ENDBRANCH   7   8
ENDBRANCH   4   7
BRANCH   1  19
ATOM     19  C   UNL d   1      13.303  13.811  -3.875  0.00  0.00     0.265 C 
ATOM     20  N   UNL d   1      13.171  13.137  -4.343  0.00  0.00    -0.272 N 
ATOM     21  C   UNL d   1      13.266  13.090  -5.158  0.00  0.00     0.083 A 
ATOM     22  C   UNL d   1      12.920  12.399  -4.070  0.00  0.00     0.083 A 
ATOM     23  C   UNL d   1      13.075  12.323  -5.392  0.00  0.00     0.021 A 
ATOM     24  C   UNL d   1      12.863  11.898  -4.726  0.00  0.00     0.021 A 
ATOM     25  O   UNL d   1      13.183  13.775  -3.050  0.00  0.00    -0.267 OA
ENDBRANCH   1  19
TORSDOF 5
ENDMDL
