MODEL 1
REMARK VINA RESULT:      -8.9      0.000      0.000
REMARK  3 active torsions:
REMARK  status: ('A' for Active; 'I' for Inactive)
REMARK    1  A    between atoms: C_6  and  C_1 
REMARK    2  A    between atoms: C_7  and  C_3 
REMARK    3  A    between atoms: C_11  and  C_7 
ROOT
ATOM      1  C   UNL d   1      53.816  33.304  54.473  0.00  0.00     0.085 A 
ATOM      2  C   UNL d   1      53.599  32.791  53.870  0.00  0.00     0.137 A 
ATOM      3  C   UNL d   1      52.890  33.904  53.734  0.00  0.00     0.031 A 
ATOM      4  S   UNL d   1      53.024  33.169  53.414  0.00  0.00    -0.066 SA
ATOM      5  C   UNL d   1      53.378  33.999  54.395  0.00  0.00     0.013 A 
ATOM      6  N   UNL d   1      53.921  32.029  53.764  0.00  0.00    -0.141 N 
ATOM      7  C   UNL d   1      53.415  34.642  54.863  0.00  0.00     0.001 C 
ENDROOT
BRANCH   3   8
ATOM      8  C   UNL d   1      52.379  34.518  53.512  0.00  0.00     0.006 C 
BRANCH   8   9
ATOM      9  C   UNL d   1      51.732  34.375  53.025  0.00  0.00     0.001 A 
ATOM     10  C   UNL d   1      51.825  34.376  52.213  0.00  0.00     0.000 A 
ATOM     11  C   UNL d   1      51.163  34.229  51.723  0.00  0.00     0.000 A 
ATOM     12  C   UNL d   1      50.438  34.089  52.069  0.00  0.00     0.000 A 
ATOM     13  C   UNL d   1      50.340  34.087  52.893  0.00  0.00     0.000 A 
ATOM     14  C   UNL d   1      50.984  34.229  53.355  0.00  0.00     0.000 A 
ENDBRANCH   8   9
ENDBRANCH   3   8
BRANCH   1  15
ATOM     15  C   UNL d   1      54.387  33.131  55.059  0.00  0.00     0.299 C 
ATOM     16  O   UNL d   1      54.220  32.643  55.694  0.00  0.00    -0.264 OA
ATOM     17  N   UNL d   1      55.157  33.480  54.975  0.00  0.00    -0.102 N 
ENDBRANCH   1  15
TORSDOF 3
ENDMDL
MODEL 2
REMARK VINA RESULT:      -8.8      1.895      3.080
REMARK  3 active torsions:
REMARK  status: ('A' for Active; 'I' for Inactive)
REMARK    1  A    between atoms: C_6  and  C_1 
REMARK    2  A    between atoms: C_7  and  C_3 
REMARK    3  A    between atoms: C_11  and  C_7 
ROOT
ATOM      1  C   UNL d   1      53.197  33.882  54.215  0.00  0.00     0.085 A 
ATOM      2  C   UNL d   1      52.527  33.595  53.838  0.00  0.00     0.137 A 
ATOM      3  C   UNL d   1      53.455  32.649  53.797  0.00  0.00     0.031 A 
ATOM      4  S   UNL d   1      52.693  32.829  53.580  0.00  0.00    -0.066 SA
ATOM      5  C   UNL d   1      53.779  33.298  54.194  0.00  0.00     0.013 A 
ATOM      6  N   UNL d   1      51.819  34.027  53.747  0.00  0.00    -0.141 N 
ATOM      7  C   UNL d   1      54.515  33.345  54.495  0.00  0.00     0.001 C 
ENDROOT
BRANCH   3   8
ATOM      8  C   UNL d   1      53.914  31.966  53.687  0.00  0.00     0.006 C 
BRANCH   8   9
ATOM      9  C   UNL d   1      53.561  31.235  53.561  0.00  0.00     0.001 A 
ATOM     10  C   UNL d   1      53.243  31.056  52.830  0.00  0.00     0.000 A 
ATOM     11  C   UNL d   1      52.885  30.310  52.709  0.00  0.00     0.000 A 
ATOM     12  C   UNL d   1      52.862  29.777  53.326  0.00  0.00     0.000 A 
ATOM     13  C   UNL d   1      53.183  29.956  54.070  0.00  0.00     0.000 A 
ATOM     14  C   UNL d   1      53.525  30.676  54.175  0.00  0.00     0.000 A 
ENDBRANCH   8   9
ENDBRANCH   3   8
BRANCH   1  15
ATOM     15  C   UNL d   1      53.258  34.643  54.557  0.00  0.00     0.299 C 
ATOM     16  O   UNL d   1      53.274  34.752  55.367  0.00  0.00    -0.264 OA
ATOM     17  N   UNL d   1      53.303  35.310  54.032  0.00  0.00    -0.102 N 
ENDBRANCH   1  15
TORSDOF 3
ENDMDL
MODEL 3
REMARK VINA RESULT:      -8.3      1.977      3.740
REMARK  3 active torsions:
REMARK  status: ('A' for Active; 'I' for Inactive)
REMARK    1  A    between atoms: C_6  and  C_1 
REMARK    2  A    between atoms: C_7  and  C_3 
REMARK    3  A    between atoms: C_11  and  C_7 
ROOT
ATOM      1  C   UNL d   1      51.770  33.802  53.081  0.00  0.00     0.085 A 
ATOM      2  C   UNL d   1      52.067  34.446  53.495  0.00  0.00     0.137 A 
ATOM      3  C   UNL d   1      52.871  33.414  53.713  0.00  0.00     0.031 A 
ATOM      4  S   UNL d   1      52.750  34.198  53.885  0.00  0.00    -0.066 SA
ATOM      5  C   UNL d   1      52.265  33.156  53.212  0.00  0.00     0.013 A 
ATOM      6  N   UNL d   1      51.716  35.203  53.499  0.00  0.00    -0.141 N 
ATOM      7  C   UNL d   1      52.182  32.421  52.916  0.00  0.00     0.001 C 
ENDROOT
BRANCH   3   8
ATOM      8  C   UNL d   1      53.462  32.882  53.947  0.00  0.00     0.006 C 
BRANCH   8   9
ATOM      9  C   UNL d   1      54.111  33.135  54.384  0.00  0.00     0.001 A 
ATOM     10  C   UNL d   1      54.787  33.387  54.000  0.00  0.00     0.000 A 
ATOM     11  C   UNL d   1      55.444  33.644  54.450  0.00  0.00     0.000 A 
ATOM     12  C   UNL d   1      55.393  33.636  55.264  0.00  0.00     0.000 A 
ATOM     13  C   UNL d   1      54.708  33.381  55.657  0.00  0.00     0.000 A 
ATOM     14  C   UNL d   1      54.082  33.137  55.214  0.00  0.00     0.000 A 
ENDBRANCH   8   9
ENDBRANCH   3   8
BRANCH   1  15
ATOM     15  C   UNL d   1      51.078  33.820  52.611  0.00  0.00     0.299 C 
ATOM     16  O   UNL d   1      50.349  33.596  52.906  0.00  0.00    -0.264 OA
ATOM     17  N   UNL d   1      51.155  34.083  51.806  0.00  0.00    -0.102 N 
ENDBRANCH   1  15
TORSDOF 3
ENDMDL
MODEL 4
REMARK VINA RESULT:      -8.1      2.533      3.730
REMARK  3 active torsions:
REMARK  status: ('A' for Active; 'I' for Inactive)
REMARK    1  A    between atoms: C_6  and  C_1 
REMARK    2  A    between atoms: C_7  and  C_3 
REMARK    3  A    between atoms: C_11  and  C_7 
ROOT
ATOM      1  C   UNL d   1      52.972  30.574  53.306  0.00  0.00     0.085 A 
ATOM      2  C   UNL d   1      53.604  30.445  53.815  0.00  0.00     0.137 A 
ATOM      3  C   UNL d   1      53.493  31.753  53.623  0.00  0.00     0.031 A 
ATOM      4  S   UNL d   1      53.923  31.182  54.008  0.00  0.00    -0.066 SA
ATOM      5  C   UNL d   1      52.897  31.386  53.182  0.00  0.00     0.013 A 
ATOM      6  N   UNL d   1      53.853  29.692  54.072  0.00  0.00    -0.141 N 
ATOM      7  C   UNL d   1      52.356  31.752  52.726  0.00  0.00     0.001 C 
ENDROOT
BRANCH   3   8
ATOM      8  C   UNL d   1      53.560  32.580  53.609  0.00  0.00     0.006 C 
BRANCH   8   9
ATOM      9  C   UNL d   1      54.076  32.970  54.116  0.00  0.00     0.001 A 
ATOM     10  C   UNL d   1      54.839  33.134  53.872  0.00  0.00     0.000 A 
ATOM     11  C   UNL d   1      55.360  33.532  54.392  0.00  0.00     0.000 A 
ATOM     12  C   UNL d   1      55.092  33.747  55.132  0.00  0.00     0.000 A 
ATOM     13  C   UNL d   1      54.318  33.583  55.382  0.00  0.00     0.000 A 
ATOM     14  C   UNL d   1      53.826  33.200  54.874  0.00  0.00     0.000 A 
ENDBRANCH   8   9
ENDBRANCH   3   8
BRANCH   1  15
ATOM     15  C   UNL d   1      52.497  29.967  52.980  0.00  0.00     0.299 C 
ATOM     16  O   UNL d   1      51.825  29.695  53.357  0.00  0.00    -0.264 OA
ATOM     17  N   UNL d   1      52.736  29.636  52.234  0.00  0.00    -0.102 N 
ENDBRANCH   1  15
TORSDOF 3
ENDMDL
