MODEL 1
REMARK VINA RESULT:      -8.0      0.000      0.000
REMARK  3 active torsions:
REMARK  status: ('A' for Active; 'I' for Inactive)
REMARK    1  A    between atoms: C_6  and  C_1 
REMARK    2  A    between atoms: N_7  and  C_2 
REMARK       I    between atoms: C_8  and  N_9 
REMARK    3  A    between atoms: C_11  and  C_8 
ROOT
ATOM      1  C   UNL d   1     -48.886  14.265  23.214  0.00  0.00     0.186 A 
ATOM      2  C   UNL d   1     -47.723  13.652  23.045  0.00  0.00     0.197 A 
ATOM      3  C   UNL d   1     -48.298  13.226  22.648  0.00  0.00     0.191 A 
ATOM      4  O   UNL d   1     -48.104  14.310  23.401  0.00  0.00    -0.270 OA
ATOM      5  N   UNL d   1     -49.041  13.617  22.755  0.00  0.00    -0.208 NA
ATOM      6  C   UNL d   1     -48.171  12.509  22.201  0.00  0.00     0.124 C 
ATOM      7  N   UNL d   1     -48.058  11.798  21.756  0.00  0.00    -0.190 NA
ENDROOT
BRANCH   2   8
ATOM      8  N   UNL d   1     -46.982  13.259  22.935  0.00  0.00    -0.280 N 
ATOM      9  C   UNL d   1     -46.410  13.575  22.420  0.00  0.00     0.101 A 
ATOM     10  C   UNL d   1     -45.697  13.207  22.306  0.00  0.00     0.102 A 
ATOM     11  N   UNL d   1     -45.511  12.481  22.715  0.00  0.00    -0.267 N 
ATOM     12  C   UNL d   1     -44.746  12.119  22.571  0.00  0.00     0.288 C 
ATOM     13  C   UNL d   1     -46.109  12.148  23.256  0.00  0.00     0.102 A 
ATOM     14  O   UNL d   1     -44.190  12.464  22.043  0.00  0.00    -0.264 OA
ATOM     15  C   UNL d   1     -46.838  12.563  23.345  0.00  0.00     0.101 A 
BRANCH  12  16
ATOM     16  C   UNL d   1     -44.560  11.393  22.979  0.00  0.00     0.156 A 
ATOM     17  O   UNL d   1     -44.982  10.887  23.462  0.00  0.00    -0.300 OA
ATOM     18  C   UNL d   1     -44.479  10.259  23.693  0.00  0.00     0.123 A 
ATOM     19  C   UNL d   1     -43.751  10.387  23.348  0.00  0.00     0.029 A 
ATOM     20  C   UNL d   1     -43.789  11.081  22.908  0.00  0.00     0.032 A 
ENDBRANCH  12  16
ENDBRANCH   2   8
BRANCH   1  21
ATOM     21  C   UNL d   1     -49.632  14.652  23.319  0.00  0.00     0.052 A 
ATOM     22  C   UNL d   1     -49.679  15.479  23.208  0.00  0.00     0.061 A 
ATOM     23 CL   UNL d   1     -48.975  15.854  23.002  0.00  0.00    -0.082 Cl
ATOM     24  C   UNL d   1     -50.395  15.871  23.306  0.00  0.00     0.011 A 
ATOM     25  C   UNL d   1     -51.064  15.450  23.511  0.00  0.00     0.001 A 
ATOM     26  C   UNL d   1     -51.028  14.634  23.622  0.00  0.00     0.000 A 
ATOM     27  C   UNL d   1     -50.321  14.249  23.526  0.00  0.00     0.004 A 
ENDBRANCH   1  21
TORSDOF 3
ENDMDL
MODEL 2
REMARK VINA RESULT:      -7.1      0.668      1.297
REMARK  3 active torsions:
REMARK  status: ('A' for Active; 'I' for Inactive)
REMARK    1  A    between atoms: C_6  and  C_1 
REMARK    2  A    between atoms: N_7  and  C_2 
REMARK       I    between atoms: C_8  and  N_9 
REMARK    3  A    between atoms: C_11  and  C_8 
ROOT
ATOM      1  C   UNL d   1     -48.885  14.304  23.203  0.00  0.00     0.186 A 
ATOM      2  C   UNL d   1     -47.720  13.690  23.047  0.00  0.00     0.197 A 
ATOM      3  C   UNL d   1     -48.287  13.277  22.626  0.00  0.00     0.191 A 
ATOM      4  O   UNL d   1     -48.107  14.341  23.411  0.00  0.00    -0.270 OA
ATOM      5  N   UNL d   1     -49.031  13.668  22.724  0.00  0.00    -0.208 NA
ATOM      6  C   UNL d   1     -48.152  12.571  22.163  0.00  0.00     0.124 C 
ATOM      7  N   UNL d   1     -48.031  11.871  21.703  0.00  0.00    -0.190 NA
ENDROOT
BRANCH   2   8
ATOM      8  N   UNL d   1     -46.979  13.296  22.946  0.00  0.00    -0.280 N 
ATOM      9  C   UNL d   1     -46.797  12.620  23.395  0.00  0.00     0.101 A 
ATOM     10  C   UNL d   1     -46.090  12.234  23.306  0.00  0.00     0.102 A 
ATOM     11  N   UNL d   1     -45.508  12.512  22.747  0.00  0.00    -0.267 N 
ATOM     12  C   UNL d   1     -44.770  12.079  22.679  0.00  0.00     0.288 C 
ATOM     13  C   UNL d   1     -45.697  13.221  22.274  0.00  0.00     0.102 A 
ATOM     14  O   UNL d   1     -44.617  11.398  23.149  0.00  0.00    -0.264 OA
ATOM     15  C   UNL d   1     -46.444  13.592  22.398  0.00  0.00     0.101 A 
BRANCH  12  16
ATOM     16  C   UNL d   1     -44.188  12.356  22.120  0.00  0.00     0.156 A 
ATOM     17  O   UNL d   1     -44.209  12.871  21.486  0.00  0.00    -0.300 OA
ATOM     18  C   UNL d   1     -43.442  12.912  21.153  0.00  0.00     0.123 A 
ATOM     19  C   UNL d   1     -42.958  12.421  21.588  0.00  0.00     0.029 A 
ATOM     20  C   UNL d   1     -43.405  12.074  22.184  0.00  0.00     0.032 A 
ENDBRANCH  12  16
ENDBRANCH   2   8
BRANCH   1  21
ATOM     21  C   UNL d   1     -49.632  14.692  23.299  0.00  0.00     0.052 A 
ATOM     22  C   UNL d   1     -49.675  15.521  23.199  0.00  0.00     0.061 A 
ATOM     23 CL   UNL d   1     -48.965  15.896  23.011  0.00  0.00    -0.082 Cl
ATOM     24  C   UNL d   1     -50.390  15.913  23.289  0.00  0.00     0.011 A 
ATOM     25  C   UNL d   1     -51.064  15.492  23.476  0.00  0.00     0.001 A 
ATOM     26  C   UNL d   1     -51.033  14.674  23.576  0.00  0.00     0.000 A 
ATOM     27  C   UNL d   1     -50.326  14.288  23.488  0.00  0.00     0.004 A 
ENDBRANCH   1  21
TORSDOF 3
ENDMDL
MODEL 3
REMARK VINA RESULT:      -7.0      1.649      5.452
REMARK  3 active torsions:
REMARK  status: ('A' for Active; 'I' for Inactive)
REMARK    1  A    between atoms: C_6  and  C_1 
REMARK    2  A    between atoms: N_7  and  C_2 
REMARK       I    between atoms: C_8  and  N_9 
REMARK    3  A    between atoms: C_11  and  C_8 
ROOT
ATOM      1  C   UNL d   1     -45.779  11.564  22.937  0.00  0.00     0.186 A 
ATOM      2  C   UNL d   1     -46.828  12.307  22.616  0.00  0.00     0.197 A 
ATOM      3  C   UNL d   1     -47.078  11.714  23.122  0.00  0.00     0.191 A 
ATOM      4  O   UNL d   1     -46.003  12.205  22.503  0.00  0.00    -0.270 OA
ATOM      5  N   UNL d   1     -46.408  11.239  23.328  0.00  0.00    -0.208 NA
ATOM      6  C   UNL d   1     -47.878  11.594  23.398  0.00  0.00     0.124 C 
ATOM      7  N   UNL d   1     -48.666  11.465  23.677  0.00  0.00    -0.190 NA
ENDROOT
BRANCH   2   8
ATOM      8  N   UNL d   1     -47.500  12.779  22.414  0.00  0.00    -0.280 N 
ATOM      9  C   UNL d   1     -47.939  12.615  21.726  0.00  0.00     0.101 A 
ATOM     10  C   UNL d   1     -48.584  13.060  21.523  0.00  0.00     0.102 A 
ATOM     11  N   UNL d   1     -48.834  13.715  22.010  0.00  0.00    -0.267 N 
ATOM     12  C   UNL d   1     -49.522  14.165  21.763  0.00  0.00     0.288 C 
ATOM     13  C   UNL d   1     -48.376  13.889  22.732  0.00  0.00     0.102 A 
ATOM     14  O   UNL d   1     -49.943  13.972  21.061  0.00  0.00    -0.264 OA
ATOM     15  C   UNL d   1     -47.711  13.400  22.907  0.00  0.00     0.101 A 
BRANCH  12  16
ATOM     16  C   UNL d   1     -49.773  14.819  22.250  0.00  0.00     0.156 A 
ATOM     17  O   UNL d   1     -49.400  15.483  22.547  0.00  0.00    -0.300 OA
ATOM     18  C   UNL d   1     -49.955  15.921  22.995  0.00  0.00     0.123 A 
ATOM     19  C   UNL d   1     -50.665  15.519  22.968  0.00  0.00     0.029 A 
ATOM     20  C   UNL d   1     -50.564  14.841  22.514  0.00  0.00     0.032 A 
ENDBRANCH  12  16
ENDBRANCH   2   8
BRANCH   1  21
ATOM     21  C   UNL d   1     -45.111  11.085  23.145  0.00  0.00     0.052 A 
ATOM     22  C   UNL d   1     -44.341  11.372  22.990  0.00  0.00     0.061 A 
ATOM     23 CL   UNL d   1     -44.301  12.117  22.639  0.00  0.00    -0.082 Cl
ATOM     24  C   UNL d   1     -43.684  10.922  23.186  0.00  0.00     0.011 A 
ATOM     25  C   UNL d   1     -43.781  10.189  23.533  0.00  0.00     0.001 A 
ATOM     26  C   UNL d   1     -44.536   9.896  23.690  0.00  0.00     0.000 A 
ATOM     27  C   UNL d   1     -45.185  10.342  23.496  0.00  0.00     0.004 A 
ENDBRANCH   1  21
TORSDOF 3
ENDMDL
MODEL 4
REMARK VINA RESULT:      -5.8      2.020      5.518
REMARK  3 active torsions:
REMARK  status: ('A' for Active; 'I' for Inactive)
REMARK    1  A    between atoms: C_6  and  C_1 
REMARK    2  A    between atoms: N_7  and  C_2 
REMARK       I    between atoms: C_8  and  N_9 
REMARK    3  A    between atoms: C_11  and  C_8 
ROOT
ATOM      1  C   UNL d   1     -44.935  12.912  21.921  0.00  0.00     0.186 A 
ATOM      2  C   UNL d   1     -46.233  12.934  22.188  0.00  0.00     0.197 A 
ATOM      3  C   UNL d   1     -45.922  13.671  22.361  0.00  0.00     0.191 A 
ATOM      4  O   UNL d   1     -45.600  12.457  21.909  0.00  0.00    -0.270 OA
ATOM      5  N   UNL d   1     -45.093  13.658  22.191  0.00  0.00    -0.208 NA
ATOM      6  C   UNL d   1     -46.359  14.341  22.662  0.00  0.00     0.124 C 
ATOM      7  N   UNL d   1     -46.782  15.011  22.960  0.00  0.00    -0.190 NA
ENDROOT
BRANCH   2   8
ATOM      8  N   UNL d   1     -47.060  12.951  22.359  0.00  0.00    -0.280 N 
ATOM      9  C   UNL d   1     -47.339  12.742  23.114  0.00  0.00     0.101 A 
ATOM     10  C   UNL d   1     -48.130  12.755  23.290  0.00  0.00     0.102 A 
ATOM     11  N   UNL d   1     -48.704  12.985  22.701  0.00  0.00    -0.267 N 
ATOM     12  C   UNL d   1     -49.534  12.987  22.922  0.00  0.00     0.288 C 
ATOM     13  C   UNL d   1     -48.415  13.205  21.908  0.00  0.00     0.102 A 
ATOM     14  O   UNL d   1     -49.781  12.770  23.696  0.00  0.00    -0.264 OA
ATOM     15  C   UNL d   1     -47.583  13.177  21.768  0.00  0.00     0.101 A 
BRANCH  12  16
ATOM     16  C   UNL d   1     -50.108  13.217  22.334  0.00  0.00     0.156 A 
ATOM     17  O   UNL d   1     -50.351  12.899  21.622  0.00  0.00    -0.300 OA
ATOM     18  C   UNL d   1     -50.944  13.393  21.300  0.00  0.00     0.123 A 
ATOM     19  C   UNL d   1     -51.058  14.012  21.820  0.00  0.00     0.029 A 
ATOM     20  C   UNL d   1     -50.550  13.914  22.458  0.00  0.00     0.032 A 
ENDBRANCH  12  16
ENDBRANCH   2   8
BRANCH   1  21
ATOM     21  C   UNL d   1     -44.104  12.903  21.753  0.00  0.00     0.052 A 
ATOM     22  C   UNL d   1     -43.640  12.267  22.032  0.00  0.00     0.061 A 
ATOM     23 CL   UNL d   1     -44.043  11.689  22.458  0.00  0.00    -0.082 Cl
ATOM     24  C   UNL d   1     -42.834  12.243  21.878  0.00  0.00     0.011 A 
ATOM     25  C   UNL d   1     -42.483  12.844  21.449  0.00  0.00     0.001 A 
ATOM     26  C   UNL d   1     -42.932  13.476  21.169  0.00  0.00     0.000 A 
ATOM     27  C   UNL d   1     -43.729  13.498  21.322  0.00  0.00     0.004 A 
ENDBRANCH   1  21
TORSDOF 3
ENDMDL
MODEL 5
REMARK VINA RESULT:      -5.1      8.676     10.471
REMARK  3 active torsions:
REMARK  status: ('A' for Active; 'I' for Inactive)
REMARK    1  A    between atoms: C_6  and  C_1 
REMARK    2  A    between atoms: N_7  and  C_2 
REMARK       I    between atoms: C_8  and  N_9 
REMARK    3  A    between atoms: C_11  and  C_8 
ROOT
ATOM      1  C   UNL d   1     -38.891  14.697  20.272  0.00  0.00     0.186 A 
ATOM      2  C   UNL d   1     -38.674  14.776  18.967  0.00  0.00     0.197 A 
ATOM      3  C   UNL d   1     -39.469  14.625  19.087  0.00  0.00     0.191 A 
ATOM      4  O   UNL d   1     -38.314  14.821  19.724  0.00  0.00    -0.270 OA
ATOM      5  N   UNL d   1     -39.609  14.574  19.921  0.00  0.00    -0.208 NA
ATOM      6  C   UNL d   1     -40.060  14.533  18.476  0.00  0.00     0.124 C 
ATOM      7  N   UNL d   1     -40.653  14.440  17.879  0.00  0.00    -0.190 NA
ENDROOT
BRANCH   2   8
ATOM      8  N   UNL d   1     -38.539  14.825  18.134  0.00  0.00    -0.280 N 
ATOM      9  C   UNL d   1     -38.430  15.564  17.768  0.00  0.00     0.101 A 
ATOM     10  C   UNL d   1     -38.300  15.624  16.971  0.00  0.00     0.102 A 
ATOM     11  N   UNL d   1     -38.271  14.926  16.480  0.00  0.00    -0.267 N 
ATOM     12  C   UNL d   1     -38.131  15.027  15.639  0.00  0.00     0.288 C 
ATOM     13  C   UNL d   1     -38.385  14.150  16.861  0.00  0.00     0.102 A 
ATOM     14  O   UNL d   1     -38.024  15.790  15.301  0.00  0.00    -0.264 OA
ATOM     15  C   UNL d   1     -38.518  14.133  17.694  0.00  0.00     0.101 A 
BRANCH  12  16
ATOM     16  C   UNL d   1     -38.101  14.330  15.148  0.00  0.00     0.156 A 
ATOM     17  O   UNL d   1     -38.200  13.531  15.288  0.00  0.00    -0.300 OA
ATOM     18  C   UNL d   1     -38.101  13.121  14.565  0.00  0.00     0.123 A 
ATOM     19  C   UNL d   1     -37.943  13.675  13.987  0.00  0.00     0.029 A 
ATOM     20  C   UNL d   1     -37.941  14.420  14.334  0.00  0.00     0.032 A 
ENDBRANCH  12  16
ENDBRANCH   2   8
BRANCH   1  21
ATOM     21  C   UNL d   1     -39.036  14.646  21.106  0.00  0.00     0.052 A 
ATOM     22  C   UNL d   1     -38.658  14.046  21.548  0.00  0.00     0.061 A 
ATOM     23 CL   UNL d   1     -38.164  13.544  21.120  0.00  0.00    -0.082 Cl
ATOM     24  C   UNL d   1     -38.787  13.982  22.356  0.00  0.00     0.011 A 
ATOM     25  C   UNL d   1     -39.287  14.507  22.731  0.00  0.00     0.001 A 
ATOM     26  C   UNL d   1     -39.665  15.103  22.305  0.00  0.00     0.000 A 
ATOM     27  C   UNL d   1     -39.537  15.165  21.506  0.00  0.00     0.004 A 
ENDBRANCH   1  21
TORSDOF 3
ENDMDL
