MODEL 1
REMARK VINA RESULT:      -3.2      0.000      0.000
REMARK  3 active torsions:
REMARK  status: ('A' for Active; 'I' for Inactive)
REMARK    1  A    between atoms: C_10  and  N_4 
REMARK    2  A    between atoms: C_11  and  N_6 
REMARK    3  A    between atoms: C_16  and  C_11 
ROOT
ATOM      1  C   UNL d   1      31.086  16.711 -24.075  0.00  0.00     0.172 A 
ATOM      2  C   UNL d   1      31.745  16.542 -24.541  0.00  0.00     0.113 A 
ATOM      3  N   UNL d   1      31.139  17.262 -23.469  0.00  0.00    -0.206 NA
ATOM      4  N   UNL d   1      30.460  16.242 -24.352  0.00  0.00    -0.212 N 
ATOM      5  C   UNL d   1      32.458  16.923 -24.401  0.00  0.00     0.270 A 
ATOM      6  N   UNL d   1      32.516  17.479 -23.790  0.00  0.00    -0.254 N 
ATOM      7  N   UNL d   1      30.740  15.795 -24.977  0.00  0.00    -0.162 NA
ATOM      8  C   UNL d   1      31.856  17.649 -23.325  0.00  0.00     0.187 A 
ATOM      9  C   UNL d   1      31.515  15.971 -25.097  0.00  0.00     0.129 A 
ATOM     10  O   UNL d   1      33.117  16.754 -24.866  0.00  0.00    -0.266 OA
ENDROOT
BRANCH   4  11
ATOM     11  C   UNL d   1      29.693  16.202 -24.080  0.00  0.00     0.085 A 
ATOM     12  C   UNL d   1      29.492  15.665 -23.475  0.00  0.00     0.021 A 
ATOM     13  C   UNL d   1      28.720  15.630 -23.207  0.00  0.00     0.031 A 
ATOM     14  C   UNL d   1      28.131  16.133 -23.538  0.00  0.00     0.140 A 
ATOM     15  C   UNL d   1      28.341  16.652 -24.126  0.00  0.00     0.031 A 
ATOM     16  F   UNL d   1      27.337  16.105 -23.269  0.00  0.00    -0.204 F 
ATOM     17  C   UNL d   1      29.114  16.695 -24.403  0.00  0.00     0.021 A 
ENDBRANCH   4  11
BRANCH   6  18
ATOM     18  C   UNL d   1      33.238  17.872 -23.641  0.00  0.00     0.104 C 
BRANCH  18  19
ATOM     19  C   UNL d   1      33.237  18.624 -23.288  0.00  0.00     0.099 A 
ATOM     20  N   UNL d   1      33.233  18.680 -22.465  0.00  0.00    -0.242 NA
ATOM     21  C   UNL d   1      33.232  19.437 -22.105  0.00  0.00     0.099 A 
ATOM     22  C   UNL d   1      33.236  20.097 -22.588  0.00  0.00     0.021 A 
ATOM     23  C   UNL d   1      33.240  20.037 -23.418  0.00  0.00     0.003 A 
ATOM     24  C   UNL d   1      33.241  19.293 -23.757  0.00  0.00     0.021 A 
ENDBRANCH  18  19
ENDBRANCH   6  18
TORSDOF 3
ENDMDL
MODEL 2
REMARK VINA RESULT:      -1.9      2.170      4.900
REMARK  3 active torsions:
REMARK  status: ('A' for Active; 'I' for Inactive)
REMARK    1  A    between atoms: C_10  and  N_4 
REMARK    2  A    between atoms: C_11  and  N_6 
REMARK    3  A    between atoms: C_16  and  C_11 
ROOT
ATOM      1  C   UNL d   1      32.985  19.487 -23.024  0.00  0.00     0.172 A 
ATOM      2  C   UNL d   1      33.050  19.450 -23.845  0.00  0.00     0.113 A 
ATOM      3  N   UNL d   1      32.826  18.807 -22.592  0.00  0.00    -0.206 NA
ATOM      4  N   UNL d   1      33.104  20.277 -22.800  0.00  0.00    -0.212 N 
ATOM      5  C   UNL d   1      32.958  18.735 -24.235  0.00  0.00     0.270 A 
ATOM      6  N   UNL d   1      32.799  18.046 -23.803  0.00  0.00    -0.254 N 
ATOM      7  N   UNL d   1      33.241  20.711 -23.480  0.00  0.00    -0.162 NA
ATOM      8  C   UNL d   1      32.733  18.083 -22.982  0.00  0.00     0.187 A 
ATOM      9  C   UNL d   1      33.210  20.219 -24.115  0.00  0.00     0.129 A 
ATOM     10  O   UNL d   1      33.024  18.698 -25.056  0.00  0.00    -0.266 OA
ENDROOT
BRANCH   4  11
ATOM     11  C   UNL d   1      33.096  20.603 -22.054  0.00  0.00     0.085 A 
ATOM     12  C   UNL d   1      32.942  21.416 -21.955  0.00  0.00     0.021 A 
ATOM     13  C   UNL d   1      32.936  21.736 -21.202  0.00  0.00     0.031 A 
ATOM     14  C   UNL d   1      33.083  21.250 -20.531  0.00  0.00     0.140 A 
ATOM     15  C   UNL d   1      33.231  20.459 -20.641  0.00  0.00     0.031 A 
ATOM     16  F   UNL d   1      33.078  21.570 -19.755  0.00  0.00    -0.204 F 
ATOM     17  C   UNL d   1      33.240  20.127 -21.394  0.00  0.00     0.021 A 
ENDBRANCH   4  11
BRANCH   6  18
ATOM     18  C   UNL d   1      32.704  17.314 -24.192  0.00  0.00     0.104 C 
BRANCH  18  19
ATOM     19  C   UNL d   1      32.034  16.846 -24.041  0.00  0.00     0.099 A 
ATOM     20  N   UNL d   1      31.310  17.065 -24.370  0.00  0.00    -0.242 NA
ATOM     21  C   UNL d   1      30.631  16.595 -24.219  0.00  0.00     0.099 A 
ATOM     22  C   UNL d   1      30.715  15.933 -23.748  0.00  0.00     0.021 A 
ATOM     23  C   UNL d   1      31.447  15.714 -23.417  0.00  0.00     0.003 A 
ATOM     24  C   UNL d   1      32.101  16.180 -23.571  0.00  0.00     0.021 A 
ENDBRANCH  18  19
ENDBRANCH   6  18
TORSDOF 3
ENDMDL
MODEL 3
REMARK VINA RESULT:      -1.7      2.748      5.461
REMARK  3 active torsions:
REMARK  status: ('A' for Active; 'I' for Inactive)
REMARK    1  A    between atoms: C_10  and  N_4 
REMARK    2  A    between atoms: C_11  and  N_6 
REMARK    3  A    between atoms: C_16  and  C_11 
ROOT
ATOM      1  C   UNL d   1      33.011  20.795 -22.556  0.00  0.00     0.172 A 
ATOM      2  C   UNL d   1      33.094  20.843 -23.375  0.00  0.00     0.113 A 
ATOM      3  N   UNL d   1      32.992  20.063 -22.185  0.00  0.00    -0.206 NA
ATOM      4  N   UNL d   1      32.960  21.571 -22.265  0.00  0.00    -0.212 N 
ATOM      5  C   UNL d   1      33.158  20.160 -23.824  0.00  0.00     0.270 A 
ATOM      6  N   UNL d   1      33.140  19.419 -23.455  0.00  0.00    -0.254 N 
ATOM      7  N   UNL d   1      33.012  22.080 -22.903  0.00  0.00    -0.162 NA
ATOM      8  C   UNL d   1      33.057  19.371 -22.635  0.00  0.00     0.187 A 
ATOM      9  C   UNL d   1      33.093  21.648 -23.576  0.00  0.00     0.129 A 
ATOM     10  O   UNL d   1      33.241  20.208 -24.643  0.00  0.00    -0.266 OA
ENDROOT
BRANCH   4  11
ATOM     11  C   UNL d   1      32.875  21.822 -21.496  0.00  0.00     0.085 A 
ATOM     12  C   UNL d   1      32.418  22.498 -21.326  0.00  0.00     0.021 A 
ATOM     13  C   UNL d   1      32.335  22.746 -20.551  0.00  0.00     0.031 A 
ATOM     14  C   UNL d   1      32.710  22.322 -19.926  0.00  0.00     0.140 A 
ATOM     15  C   UNL d   1      33.152  21.665 -20.105  0.00  0.00     0.031 A 
ATOM     16  F   UNL d   1      32.631  22.569 -19.128  0.00  0.00    -0.204 F 
ATOM     17  C   UNL d   1      33.241  21.408 -20.882  0.00  0.00     0.021 A 
ENDBRANCH   4  11
BRANCH   6  18
ATOM     18  C   UNL d   1      33.205  18.719 -23.904  0.00  0.00     0.104 C 
BRANCH  18  19
ATOM     19  C   UNL d   1      32.644  18.112 -23.813  0.00  0.00     0.099 A 
ATOM     20  N   UNL d   1      31.930  18.163 -24.223  0.00  0.00    -0.242 NA
ATOM     21  C   UNL d   1      31.361  17.553 -24.135  0.00  0.00     0.099 A 
ATOM     22  C   UNL d   1      31.539  16.926 -23.640  0.00  0.00     0.021 A 
ATOM     23  C   UNL d   1      32.260  16.878 -23.228  0.00  0.00     0.003 A 
ATOM     24  C   UNL d   1      32.806  17.479 -23.323  0.00  0.00     0.021 A 
ENDBRANCH  18  19
ENDBRANCH   6  18
TORSDOF 3
ENDMDL
MODEL 4
REMARK VINA RESULT:      -1.7      2.334      3.597
REMARK  3 active torsions:
REMARK  status: ('A' for Active; 'I' for Inactive)
REMARK    1  A    between atoms: C_10  and  N_4 
REMARK    2  A    between atoms: C_11  and  N_6 
REMARK    3  A    between atoms: C_16  and  C_11 
ROOT
ATOM      1  C   UNL d   1      32.799  19.293 -23.657  0.00  0.00     0.172 A 
ATOM      2  C   UNL d   1      32.945  19.961 -24.118  0.00  0.00     0.113 A 
ATOM      3  N   UNL d   1      32.798  19.348 -22.839  0.00  0.00    -0.206 NA
ATOM      4  N   UNL d   1      32.673  18.657 -24.176  0.00  0.00    -0.212 N 
ATOM      5  C   UNL d   1      33.092  20.685 -23.760  0.00  0.00     0.270 A 
ATOM      6  N   UNL d   1      33.093  20.745 -22.935  0.00  0.00    -0.254 N 
ATOM      7  N   UNL d   1      32.743  18.941 -24.940  0.00  0.00    -0.162 NA
ATOM      8  C   UNL d   1      32.946  20.076 -22.474  0.00  0.00     0.187 A 
ATOM      9  C   UNL d   1      32.907  19.727 -24.913  0.00  0.00     0.129 A 
ATOM     10  O   UNL d   1      33.238  21.353 -24.221  0.00  0.00    -0.266 OA
ENDROOT
BRANCH   4  11
ATOM     11  C   UNL d   1      32.507  17.880 -23.999  0.00  0.00     0.085 A 
ATOM     12  C   UNL d   1      31.743  17.575 -24.130  0.00  0.00     0.021 A 
ATOM     13  C   UNL d   1      31.583  16.793 -23.950  0.00  0.00     0.031 A 
ATOM     14  C   UNL d   1      32.186  16.298 -23.634  0.00  0.00     0.140 A 
ATOM     15  C   UNL d   1      32.927  16.607 -23.511  0.00  0.00     0.031 A 
ATOM     16  F   UNL d   1      32.032  15.495 -23.446  0.00  0.00    -0.204 F 
ATOM     17  C   UNL d   1      33.098  17.392 -23.689  0.00  0.00     0.021 A 
ENDBRANCH   4  11
BRANCH   6  18
ATOM     18  C   UNL d   1      33.241  21.477 -22.563  0.00  0.00     0.104 C 
BRANCH  18  19
ATOM     19  C   UNL d   1      32.921  21.635 -21.812  0.00  0.00     0.099 A 
ATOM     20  N   UNL d   1      33.152  21.170 -21.172  0.00  0.00    -0.242 NA
ATOM     21  C   UNL d   1      32.832  21.326 -20.413  0.00  0.00     0.099 A 
ATOM     22  C   UNL d   1      32.297  21.939 -20.337  0.00  0.00     0.021 A 
ATOM     23  C   UNL d   1      32.065  22.407 -20.985  0.00  0.00     0.003 A 
ATOM     24  C   UNL d   1      32.385  22.245 -21.720  0.00  0.00     0.021 A 
ENDBRANCH  18  19
ENDBRANCH   6  18
TORSDOF 3
ENDMDL
MODEL 5
REMARK VINA RESULT:      -1.0      2.930      4.476
REMARK  3 active torsions:
REMARK  status: ('A' for Active; 'I' for Inactive)
REMARK    1  A    between atoms: C_10  and  N_4 
REMARK    2  A    between atoms: C_11  and  N_6 
REMARK    3  A    between atoms: C_16  and  C_11 
ROOT
ATOM      1  C   UNL d   1      32.948  20.327 -23.320  0.00  0.00     0.172 A 
ATOM      2  C   UNL d   1      33.046  21.006 -23.779  0.00  0.00     0.113 A 
ATOM      3  N   UNL d   1      32.943  20.379 -22.501  0.00  0.00    -0.206 NA
ATOM      4  N   UNL d   1      32.870  19.685 -23.841  0.00  0.00    -0.212 N 
ATOM      5  C   UNL d   1      33.138  21.737 -23.418  0.00  0.00     0.270 A 
ATOM      6  N   UNL d   1      33.133  21.794 -22.592  0.00  0.00    -0.254 N 
ATOM      7  N   UNL d   1      32.920  19.976 -24.604  0.00  0.00    -0.162 NA
ATOM      8  C   UNL d   1      33.035  21.115 -22.134  0.00  0.00     0.187 A 
ATOM      9  C   UNL d   1      33.026  20.771 -24.574  0.00  0.00     0.129 A 
ATOM     10  O   UNL d   1      33.236  22.415 -23.877  0.00  0.00    -0.266 OA
ENDROOT
BRANCH   4  11
ATOM     11  C   UNL d   1      32.762  18.897 -23.666  0.00  0.00     0.085 A 
ATOM     12  C   UNL d   1      33.224  18.533 -23.077  0.00  0.00     0.021 A 
ATOM     13  C   UNL d   1      33.111  17.741 -22.906  0.00  0.00     0.031 A 
ATOM     14  C   UNL d   1      32.531  17.295 -23.323  0.00  0.00     0.140 A 
ATOM     15  C   UNL d   1      32.087  17.662 -23.896  0.00  0.00     0.031 A 
ATOM     16  F   UNL d   1      32.407  16.482 -23.156  0.00  0.00    -0.204 F 
ATOM     17  C   UNL d   1      32.193  18.458 -24.074  0.00  0.00     0.021 A 
ENDBRANCH   4  11
BRANCH   6  18
ATOM     18  C   UNL d   1      33.227  22.534 -22.218  0.00  0.00     0.104 C 
BRANCH  18  19
ATOM     19  C   UNL d   1      32.826  22.695 -21.508  0.00  0.00     0.099 A 
ATOM     20  N   UNL d   1      33.195  22.519 -20.791  0.00  0.00    -0.242 NA
ATOM     21  C   UNL d   1      32.794  22.679 -20.072  0.00  0.00     0.099 A 
ATOM     22  C   UNL d   1      32.047  23.007 -20.110  0.00  0.00     0.021 A 
ATOM     23  C   UNL d   1      31.677  23.184 -20.835  0.00  0.00     0.003 A 
ATOM     24  C   UNL d   1      32.078  23.023 -21.529  0.00  0.00     0.021 A 
ENDBRANCH  18  19
ENDBRANCH   6  18
TORSDOF 3
ENDMDL
MODEL 6
REMARK VINA RESULT:      -0.2      3.855      6.515
REMARK  3 active torsions:
REMARK  status: ('A' for Active; 'I' for Inactive)
REMARK    1  A    between atoms: C_10  and  N_4 
REMARK    2  A    between atoms: C_11  and  N_6 
REMARK    3  A    between atoms: C_16  and  C_11 
ROOT
ATOM      1  C   UNL d   1      32.801  22.319 -21.565  0.00  0.00     0.172 A 
ATOM      2  C   UNL d   1      32.824  22.507 -22.368  0.00  0.00     0.113 A 
ATOM      3  N   UNL d   1      32.923  21.546 -21.319  0.00  0.00    -0.206 NA
ATOM      4  N   UNL d   1      32.645  23.020 -21.151  0.00  0.00    -0.212 N 
ATOM      5  C   UNL d   1      32.969  21.922 -22.925  0.00  0.00     0.270 A 
ATOM      6  N   UNL d   1      33.093  21.141 -22.681  0.00  0.00    -0.254 N 
ATOM      7  N   UNL d   1      32.575  23.624 -21.699  0.00  0.00    -0.162 NA
ATOM      8  C   UNL d   1      33.070  20.953 -21.878  0.00  0.00     0.187 A 
ATOM      9  C   UNL d   1      32.682  23.321 -22.435  0.00  0.00     0.129 A 
ATOM     10  O   UNL d   1      32.992  22.110 -23.727  0.00  0.00    -0.266 OA
ENDROOT
BRANCH   4  11
ATOM     11  C   UNL d   1      32.568  23.132 -20.348  0.00  0.00     0.085 A 
ATOM     12  C   UNL d   1      33.241  23.289 -19.882  0.00  0.00     0.021 A 
ATOM     13  C   UNL d   1      33.157  23.400 -19.075  0.00  0.00     0.031 A 
ATOM     14  C   UNL d   1      32.396  23.356 -18.717  0.00  0.00     0.140 A 
ATOM     15  C   UNL d   1      31.748  23.203 -19.183  0.00  0.00     0.031 A 
ATOM     16  F   UNL d   1      32.300  23.469 -17.891  0.00  0.00    -0.204 F 
ATOM     17  C   UNL d   1      31.823  23.090 -19.994  0.00  0.00     0.021 A 
ENDBRANCH   4  11
BRANCH   6  18
ATOM     18  C   UNL d   1      33.241  20.539 -23.241  0.00  0.00     0.104 C 
BRANCH  18  19
ATOM     19  C   UNL d   1      32.970  19.766 -23.103  0.00  0.00     0.099 A 
ATOM     20  N   UNL d   1      32.432  19.430 -23.631  0.00  0.00    -0.242 NA
ATOM     21  C   UNL d   1      32.156  18.650 -23.495  0.00  0.00     0.099 A 
ATOM     22  C   UNL d   1      32.433  18.249 -22.839  0.00  0.00     0.021 A 
ATOM     23  C   UNL d   1      32.976  18.591 -22.308  0.00  0.00     0.003 A 
ATOM     24  C   UNL d   1      33.238  19.352 -22.451  0.00  0.00     0.021 A 
ENDBRANCH  18  19
ENDBRANCH   6  18
TORSDOF 3
ENDMDL
