MODEL 1
REMARK VINA RESULT:      41.8      0.000      0.000
REMARK  4 active torsions:
REMARK  status: ('A' for Active; 'I' for Inactive)
REMARK       I    between atoms: N_2  and  C_1 
REMARK    1  A    between atoms: C_3  and  C_1 
REMARK    2  A    between atoms: C_7  and  N_2 
REMARK    3  A    between atoms: O_17  and  C_9 
REMARK    4  A    between atoms: C_18  and  O_17 
ROOT
ATOM      1  C   UNL d   1      60.728  49.404  52.242  0.00  0.00     0.279 C 
ATOM      2  N   UNL d   1      59.981  49.703  52.450  0.00  0.00    -0.208 NA
ATOM      3  O   UNL d   1      61.329  49.416  52.805  0.00  0.00    -0.265 OA
ENDROOT
BRANCH   2   4
ATOM      4  C   UNL d   1      59.368  49.698  51.898  0.00  0.00     0.085 A 
ATOM      5  C   UNL d   1      58.594  49.705  52.142  0.00  0.00     0.021 A 
ATOM      6  C   UNL d   1      57.981  49.700  51.590  0.00  0.00     0.026 A 
ATOM      7  C   UNL d   1      58.143  49.687  50.794  0.00  0.00     0.100 A 
ATOM      8  C   UNL d   1      58.947  49.679  50.518  0.00  0.00     0.026 A 
ATOM      9  C   UNL d   1      59.545  49.685  51.087  0.00  0.00     0.021 A 
BRANCH   7  10
ATOM     10  O   UNL d   1      57.519  49.682  50.254  0.00  0.00    -0.305 OA
BRANCH  10  11
ATOM     11  C   UNL d   1      57.261  48.978  49.950  0.00  0.00     0.123 C 
ATOM     12  C   UNL d   1      56.675  48.982  49.370  0.00  0.00     0.029 C 
ENDBRANCH  10  11
ENDBRANCH   7  10
ENDBRANCH   2   4
BRANCH   1  13
ATOM     13  C   UNL d   1      60.861  49.098  51.480  0.00  0.00     0.058 A 
ATOM     14  C   UNL d   1      60.638  48.324  51.304  0.00  0.00     0.006 A 
ATOM     15  C   UNL d   1      60.766  48.018  50.558  0.00  0.00     0.021 A 
ATOM     16  C   UNL d   1      61.128  48.489  49.955  0.00  0.00     0.103 A 
ATOM     17  C   UNL d   1      61.345  49.261  50.148  0.00  0.00     0.021 A 
ATOM     18  N   UNL d   1      61.217  48.184  49.334  0.00  0.00    -0.148 N 
ATOM     19  C   UNL d   1      61.212  49.567  50.909  0.00  0.00     0.006 A 
ENDBRANCH   1  13
TORSDOF 4
ENDMDL
MODEL 2
REMARK VINA RESULT:      44.4      1.400      2.480
REMARK  4 active torsions:
REMARK  status: ('A' for Active; 'I' for Inactive)
REMARK       I    between atoms: N_2  and  C_1 
REMARK    1  A    between atoms: C_3  and  C_1 
REMARK    2  A    between atoms: C_7  and  N_2 
REMARK    3  A    between atoms: O_17  and  C_9 
REMARK    4  A    between atoms: C_18  and  O_17 
ROOT
ATOM      1  C   UNL d   1      59.742  49.628  49.714  0.00  0.00     0.279 C 
ATOM      2  N   UNL d   1      59.053  49.602  49.249  0.00  0.00    -0.208 NA
ATOM      3  O   UNL d   1      60.474  49.636  49.335  0.00  0.00    -0.265 OA
ENDROOT
BRANCH   2   4
ATOM      4  C   UNL d   1      58.313  49.594  49.614  0.00  0.00     0.085 A 
ATOM      5  C   UNL d   1      58.250  49.481  50.415  0.00  0.00     0.021 A 
ATOM      6  C   UNL d   1      57.509  49.473  50.780  0.00  0.00     0.026 A 
ATOM      7  C   UNL d   1      56.834  49.579  50.341  0.00  0.00     0.100 A 
ATOM      8  C   UNL d   1      56.878  49.699  49.502  0.00  0.00     0.026 A 
ATOM      9  C   UNL d   1      57.628  49.703  49.157  0.00  0.00     0.021 A 
BRANCH   7  10
ATOM     10  O   UNL d   1      56.101  49.569  50.721  0.00  0.00    -0.305 OA
BRANCH  10  11
ATOM     11  C   UNL d   1      56.064  49.687  51.520  0.00  0.00     0.123 C 
ATOM     12  C   UNL d   1      56.175  49.046  52.027  0.00  0.00     0.029 C 
ENDBRANCH  10  11
ENDBRANCH   7  10
ENDBRANCH   2   4
BRANCH   1  13
ATOM     13  C   UNL d   1      59.690  49.647  50.544  0.00  0.00     0.058 A 
ATOM     14  C   UNL d   1      58.949  49.644  50.908  0.00  0.00     0.006 A 
ATOM     15  C   UNL d   1      58.891  49.662  51.722  0.00  0.00     0.021 A 
ATOM     16  C   UNL d   1      59.586  49.685  52.203  0.00  0.00     0.103 A 
ATOM     17  C   UNL d   1      60.319  49.687  51.823  0.00  0.00     0.021 A 
ATOM     18  N   UNL d   1      59.485  49.699  52.893  0.00  0.00    -0.148 N 
ATOM     19  C   UNL d   1      60.371  49.669  50.994  0.00  0.00     0.006 A 
ENDBRANCH   1  13
TORSDOF 4
ENDMDL
