MODEL 1
REMARK VINA RESULT:      -5.9      0.000      0.000
REMARK  6 active torsions:
REMARK  status: ('A' for Active; 'I' for Inactive)
REMARK    1  A    between atoms: N_2  and  S_1 
REMARK    2  A    between atoms: C_3  and  S_1 
REMARK    3  A    between atoms: O_13  and  C_8 
REMARK    4  A    between atoms: C_14  and  O_13 
REMARK    5  A    between atoms: C_15  and  C_14 
REMARK    6  A    between atoms: C_16  and  C_15 
ROOT
ATOM      1  C   UNL d   1     -41.415-122.711 -52.072  0.00  0.00     0.104 A 
ATOM      2  C   UNL d   1     -41.224-123.463 -51.787  0.00  0.00     0.015 A 
ATOM      3  C   UNL d   1     -41.509-122.097 -51.583  0.00  0.00     0.015 A 
ATOM      4  C   UNL d   1     -41.222-122.960 -50.465  0.00  0.00     0.100 A 
ATOM      5  C   UNL d   1     -41.130-123.584 -50.996  0.00  0.00     0.025 A 
ATOM      6  C   UNL d   1     -41.413-122.208 -50.749  0.00  0.00     0.025 A 
ENDROOT
BRANCH   1   7
ATOM      7  S   UNL d   1     -41.510-122.601 -52.894  0.00  0.00     0.271 S 
ATOM      8  O   UNL d   1     -41.861-123.347 -52.934  0.00  0.00    -0.200 OA
ATOM      9  O   UNL d   1     -41.152-121.845 -52.840  0.00  0.00    -0.200 OA
BRANCH   7  10
ATOM     10  N   UNL d   1     -41.605-122.488 -53.727  0.00  0.00    -0.229 N 
ATOM     11  C   UNL d   1     -42.228-121.950 -53.874  0.00  0.00     0.092 A 
ATOM     12  C   UNL d   1     -42.502-121.689 -54.606  0.00  0.00     0.020 A 
ATOM     13  C   UNL d   1     -42.229-121.894 -55.337  0.00  0.00     0.002 A 
ATOM     14  C   UNL d   1     -41.637-122.391 -55.573  0.00  0.00     0.002 A 
ATOM     15  C   UNL d   1     -41.145-122.831 -55.072  0.00  0.00     0.020 A 
ATOM     16  C   UNL d   1     -41.123-122.880 -54.265  0.00  0.00     0.092 A 
ENDBRANCH   7  10
ENDBRANCH   1   7
BRANCH   4  17
ATOM     17  O   UNL d   1     -41.123-123.096 -49.659  0.00  0.00    -0.305 OA
BRANCH  17  18
ATOM     18  C   UNL d   1     -41.771-123.145 -49.179  0.00  0.00     0.123 C 
BRANCH  18  19
ATOM     19  C   UNL d   1     -41.679-123.321 -48.366  0.00  0.00     0.027 C 
BRANCH  19  20
ATOM     20  C   UNL d   1     -42.304-123.214 -47.839  0.00  0.00     0.002 C 
ATOM     21  C   UNL d   1     -42.226-123.395 -47.028  0.00  0.00     0.000 C 
ENDBRANCH  19  20
ENDBRANCH  18  19
ENDBRANCH  17  18
ENDBRANCH   4  17
TORSDOF 6
ENDMDL
MODEL 2
REMARK VINA RESULT:      -5.8      1.323      5.059
REMARK  6 active torsions:
REMARK  status: ('A' for Active; 'I' for Inactive)
REMARK    1  A    between atoms: N_2  and  S_1 
REMARK    2  A    between atoms: C_3  and  S_1 
REMARK    3  A    between atoms: O_13  and  C_8 
REMARK    4  A    between atoms: C_14  and  O_13 
REMARK    5  A    between atoms: C_15  and  C_14 
REMARK    6  A    between atoms: C_16  and  C_15 
ROOT
ATOM      1  C   UNL d   1     -41.548-122.890 -50.987  0.00  0.00     0.104 A 
ATOM      2  C   UNL d   1     -41.319-123.483 -51.514  0.00  0.00     0.015 A 
ATOM      3  C   UNL d   1     -41.647-122.143 -51.226  0.00  0.00     0.015 A 
ATOM      4  C   UNL d   1     -41.289-122.537 -52.565  0.00  0.00     0.100 A 
ATOM      5  C   UNL d   1     -41.192-123.308 -52.290  0.00  0.00     0.025 A 
ATOM      6  C   UNL d   1     -41.518-121.943 -52.038  0.00  0.00     0.025 A 
ENDROOT
BRANCH   1   7
ATOM      7  S   UNL d   1     -41.676-123.087 -50.186  0.00  0.00     0.271 S 
ATOM      8  O   UNL d   1     -42.219-123.658 -50.432  0.00  0.00    -0.200 OA
ATOM      9  O   UNL d   1     -41.123-122.504 -49.948  0.00  0.00    -0.200 OA
BRANCH   7  10
ATOM     10  N   UNL d   1     -41.804-123.285 -49.373  0.00  0.00    -0.229 N 
ATOM     11  C   UNL d   1     -42.622-123.273 -49.201  0.00  0.00     0.092 A 
ATOM     12  C   UNL d   1     -42.984-123.432 -48.478  0.00  0.00     0.020 A 
ATOM     13  C   UNL d   1     -42.629-123.633 -47.782  0.00  0.00     0.002 A 
ATOM     14  C   UNL d   1     -41.853-123.737 -47.582  0.00  0.00     0.002 A 
ATOM     15  C   UNL d   1     -41.205-123.652 -48.091  0.00  0.00     0.020 A 
ATOM     16  C   UNL d   1     -41.173-123.455 -48.875  0.00  0.00     0.092 A 
ENDBRANCH   7  10
ENDBRANCH   1   7
BRANCH   4  17
ATOM     17  O   UNL d   1     -41.156-122.370 -53.360  0.00  0.00    -0.305 OA
BRANCH  17  18
ATOM     18  C   UNL d   1     -41.785-122.270 -53.858  0.00  0.00     0.123 C 
BRANCH  18  19
ATOM     19  C   UNL d   1     -41.657-122.089 -54.665  0.00  0.00     0.027 C 
BRANCH  19  20
ATOM     20  C   UNL d   1     -42.292-121.939 -55.168  0.00  0.00     0.002 C 
ATOM     21  C   UNL d   1     -42.191-121.894 -55.996  0.00  0.00     0.000 C 
ENDBRANCH  19  20
ENDBRANCH  18  19
ENDBRANCH  17  18
ENDBRANCH   4  17
TORSDOF 6
ENDMDL
MODEL 3
REMARK VINA RESULT:      -3.8      1.377      5.103
REMARK  6 active torsions:
REMARK  status: ('A' for Active; 'I' for Inactive)
REMARK    1  A    between atoms: N_2  and  S_1 
REMARK    2  A    between atoms: C_3  and  S_1 
REMARK    3  A    between atoms: O_13  and  C_8 
REMARK    4  A    between atoms: C_14  and  O_13 
REMARK    5  A    between atoms: C_15  and  C_14 
REMARK    6  A    between atoms: C_16  and  C_15 
ROOT
ATOM      1  C   UNL d   1     -41.681-123.010 -50.825  0.00  0.00     0.104 A 
ATOM      2  C   UNL d   1     -41.398-122.295 -51.128  0.00  0.00     0.015 A 
ATOM      3  C   UNL d   1     -41.780-123.643 -51.288  0.00  0.00     0.015 A 
ATOM      4  C   UNL d   1     -41.311-122.877 -52.415  0.00  0.00     0.100 A 
ATOM      5  C   UNL d   1     -41.217-122.231 -51.911  0.00  0.00     0.025 A 
ATOM      6  C   UNL d   1     -41.594-123.591 -52.112  0.00  0.00     0.025 A 
ENDROOT
BRANCH   1   7
ATOM      7  S   UNL d   1     -41.864-123.061 -50.012  0.00  0.00     0.271 S 
ATOM      8  O   UNL d   1     -42.592-123.394 -50.216  0.00  0.00    -0.200 OA
ATOM      9  O   UNL d   1     -41.123-122.722 -49.817  0.00  0.00    -0.200 OA
BRANCH   7  10
ATOM     10  N   UNL d   1     -42.049-123.112 -49.188  0.00  0.00    -0.229 N 
ATOM     11  C   UNL d   1     -41.363-122.971 -48.731  0.00  0.00     0.092 A 
ATOM     12  C   UNL d   1     -41.300-122.969 -47.909  0.00  0.00     0.020 A 
ATOM     13  C   UNL d   1     -41.885-123.102 -47.370  0.00  0.00     0.002 A 
ATOM     14  C   UNL d   1     -42.670-123.270 -47.454  0.00  0.00     0.002 A 
ATOM     15  C   UNL d   1     -43.075-123.347 -48.173  0.00  0.00     0.020 A 
ATOM     16  C   UNL d   1     -42.813-123.280 -48.936  0.00  0.00     0.092 A 
ENDBRANCH   7  10
ENDBRANCH   1   7
BRANCH   4  17
ATOM     17  O   UNL d   1     -41.123-122.799 -53.212  0.00  0.00    -0.305 OA
BRANCH  17  18
ATOM     18  C   UNL d   1     -41.671-122.501 -53.726  0.00  0.00     0.123 C 
BRANCH  18  19
ATOM     19  C   UNL d   1     -41.494-122.440 -54.541  0.00  0.00     0.027 C 
BRANCH  19  20
ATOM     20  C   UNL d   1     -42.085-122.267 -55.089  0.00  0.00     0.002 C 
ATOM     21  C   UNL d   1     -42.743-121.795 -54.885  0.00  0.00     0.000 C 
ENDBRANCH  19  20
ENDBRANCH  18  19
ENDBRANCH  17  18
ENDBRANCH   4  17
TORSDOF 6
ENDMDL
