MODEL 1
REMARK VINA RESULT:      -5.1      0.000      0.000
REMARK  4 active torsions:
REMARK  status: ('A' for Active; 'I' for Inactive)
REMARK    1  A    between atoms: C_4  and  C_1 
REMARK    2  A    between atoms: C_7  and  C_4 
REMARK    3  A    between atoms: N_10  and  C_7 
REMARK    4  A    between atoms: C_11  and  N_10 
ROOT
ATOM      1  C   UNL d   1     -41.527-121.989 -51.313  0.00  0.00     0.122 C 
ATOM      2  C   UNL d   1     -41.325-121.193 -51.303  0.00  0.00     0.106 C 
ATOM      3  N   UNL d   1     -41.123-120.396 -51.292  0.00  0.00    -0.191 NA
ENDROOT
BRANCH   1   4
ATOM      4  C   UNL d   1     -41.680-122.386 -50.607  0.00  0.00     0.159 A 
ATOM      5  N   UNL d   1     -41.123-122.764 -50.130  0.00  0.00    -0.226 NA
ATOM      6  C   UNL d   1     -41.515-123.083 -49.486  0.00  0.00     0.099 A 
ATOM      7  C   UNL d   1     -41.248-123.519 -48.832  0.00  0.00     0.021 A 
ATOM      8  C   UNL d   1     -42.316-122.905 -49.559  0.00  0.00     0.083 A 
ATOM      9  C   UNL d   1     -41.789-123.770 -48.260  0.00  0.00     0.002 A 
ATOM     10  C   UNL d   1     -42.590-123.591 -48.333  0.00  0.00     0.002 A 
ATOM     11  C   UNL d   1     -42.858-123.160 -48.980  0.00  0.00     0.019 A 
ATOM     12  N   UNL d   1     -42.422-122.474 -50.249  0.00  0.00    -0.287 N 
ATOM     13  C   UNL d   1     -43.138-122.178 -50.544  0.00  0.00     0.101 C 
ENDBRANCH   1   4
BRANCH   1  14
ATOM     14  C   UNL d   1     -41.576-122.390 -52.029  0.00  0.00     0.114 C 
BRANCH  14  15
ATOM     15  N   UNL d   1     -41.260-122.055 -52.712  0.00  0.00    -0.225 NA
BRANCH  15  16
ATOM     16  C   UNL d   1     -41.427-122.388 -53.450  0.00  0.00     0.163 A 
ATOM     17  N   UNL d   1     -41.882-121.976 -54.000  0.00  0.00    -0.225 NA
ATOM     18  C   UNL d   1     -42.046-122.311 -54.735  0.00  0.00     0.101 A 
ATOM     19  C   UNL d   1     -41.754-123.062 -54.918  0.00  0.00     0.021 A 
ATOM     20  C   UNL d   1     -41.292-123.482 -54.362  0.00  0.00     0.005 A 
ATOM     21  C   UNL d   1     -41.132-123.137 -53.627  0.00  0.00     0.039 A 
ENDBRANCH  15  16
ENDBRANCH  14  15
ENDBRANCH   1  14
TORSDOF 4
ENDMDL
MODEL 2
REMARK VINA RESULT:      -3.7      0.621      4.344
REMARK  4 active torsions:
REMARK  status: ('A' for Active; 'I' for Inactive)
REMARK    1  A    between atoms: C_4  and  C_1 
REMARK    2  A    between atoms: C_7  and  C_4 
REMARK    3  A    between atoms: N_10  and  C_7 
REMARK    4  A    between atoms: C_11  and  N_10 
ROOT
ATOM      1  C   UNL d   1     -41.543-122.122 -51.456  0.00  0.00     0.122 C 
ATOM      2  C   UNL d   1     -41.333-121.344 -51.295  0.00  0.00     0.106 C 
ATOM      3  N   UNL d   1     -41.123-120.565 -51.135  0.00  0.00    -0.191 NA
ENDROOT
BRANCH   1   4
ATOM      4  C   UNL d   1     -41.554-122.395 -52.233  0.00  0.00     0.159 A 
ATOM      5  N   UNL d   1     -41.759-121.956 -52.901  0.00  0.00    -0.226 NA
ATOM      6  C   UNL d   1     -41.693-122.443 -53.555  0.00  0.00     0.099 A 
ATOM      7  C   UNL d   1     -41.825-122.310 -54.363  0.00  0.00     0.021 A 
ATOM      8  C   UNL d   1     -41.447-123.186 -53.298  0.00  0.00     0.083 A 
ATOM      9  C   UNL d   1     -41.709-122.924 -54.904  0.00  0.00     0.002 A 
ATOM     10  C   UNL d   1     -41.464-123.667 -54.646  0.00  0.00     0.002 A 
ATOM     11  C   UNL d   1     -41.331-123.803 -53.846  0.00  0.00     0.019 A 
ATOM     12  N   UNL d   1     -41.360-123.161 -52.483  0.00  0.00    -0.287 N 
ATOM     13  C   UNL d   1     -41.123-123.783 -51.990  0.00  0.00     0.101 C 
ENDBRANCH   1   4
BRANCH   1  14
ATOM     14  C   UNL d   1     -41.743-122.628 -50.839  0.00  0.00     0.114 C 
BRANCH  14  15
ATOM     15  N   UNL d   1     -42.300-122.396 -50.278  0.00  0.00    -0.225 NA
BRANCH  15  16
ATOM     16  C   UNL d   1     -42.433-122.864 -49.610  0.00  0.00     0.163 A 
ATOM     17  N   UNL d   1     -41.836-122.978 -49.054  0.00  0.00    -0.225 NA
ATOM     18  C   UNL d   1     -41.972-123.445 -48.389  0.00  0.00     0.101 A 
ATOM     19  C   UNL d   1     -42.711-123.799 -48.282  0.00  0.00     0.021 A 
ATOM     20  C   UNL d   1     -43.319-123.686 -48.844  0.00  0.00     0.005 A 
ATOM     21  C   UNL d   1     -43.173-123.215 -49.508  0.00  0.00     0.039 A 
ENDBRANCH  15  16
ENDBRANCH  14  15
ENDBRANCH   1  14
TORSDOF 4
ENDMDL
