MODEL 1
REMARK VINA RESULT:      42.2      0.000      0.000
REMARK  5 active torsions:
REMARK  status: ('A' for Active; 'I' for Inactive)
REMARK    1  A    between atoms: C_7  and  N_2 
REMARK    2  A    between atoms: C_14  and  C_7 
REMARK    3  A    between atoms: O_10  and  C_9 
REMARK    4  A    between atoms: C_11  and  O_10 
REMARK    5  A    between atoms: C_13  and  C_11 
ROOT
ATOM      1  C   UNL d   1      15.537  14.021  -0.515  0.00  0.00     0.265 A 
ATOM      2  N   UNL d   1      15.222  14.718  -0.825  0.00  0.00    -0.272 N 
ATOM      3  C   UNL d   1      15.198  13.298  -0.705  0.00  0.00     0.059 A 
ATOM      4  C   UNL d   1      14.542  13.267  -1.205  0.00  0.00     0.029 A 
ATOM      5  C   UNL d   1      14.226  13.959  -1.515  0.00  0.00     0.021 A 
ATOM      6  C   UNL d   1      14.566  14.687  -1.325  0.00  0.00     0.083 A 
ATOM      7  O   UNL d   1      16.193  14.053  -0.016  0.00  0.00    -0.267 OA
ATOM      8  C   UNL d   1      14.202  12.539  -1.395  0.00  0.00     0.100 A 
ATOM      9  C   UNL d   1      15.513  12.602  -0.395  0.00  0.00     0.005 A 
ATOM     10  C   UNL d   1      15.174  11.874  -0.584  0.00  0.00     0.002 A 
ATOM     11  C   UNL d   1      14.518  11.842  -1.084  0.00  0.00     0.025 A 
ENDROOT
BRANCH   8  12
ATOM     12  O   UNL d   1      13.546  12.508  -1.894  0.00  0.00    -0.305 OA
BRANCH  12  13
ATOM     13  C   UNL d   1      13.403  11.831  -2.344  0.00  0.00     0.122 C 
BRANCH  13  14
ATOM     14  C   UNL d   1      13.451  11.864  -3.167  0.00  0.00     0.025 A 
ATOM     15  C   UNL d   1      14.182  11.780  -3.541  0.00  0.00     0.004 A 
ATOM     16  C   UNL d   1      14.231  11.814  -4.364  0.00  0.00     0.030 A 
ATOM     17  C   UNL d   1      13.548  11.932  -4.812  0.00  0.00     0.140 A 
ATOM     18  C   UNL d   1      12.817  12.016  -4.439  0.00  0.00     0.030 A 
ATOM     19  F   UNL d   1      13.597  11.966  -5.635  0.00  0.00    -0.204 F 
ATOM     20  C   UNL d   1      12.769  11.982  -3.616  0.00  0.00     0.004 A 
ENDBRANCH  13  14
ENDBRANCH  12  13
ENDBRANCH   8  12
BRANCH   2  21
ATOM     21  C   UNL d   1      15.568  15.451  -0.631  0.00  0.00     0.083 C 
BRANCH  21  22
ATOM     22  C   UNL d   1      15.318  16.142  -1.006  0.00  0.00     0.018 A 
ATOM     23  C   UNL d   1      15.404  16.867  -0.625  0.00  0.00     0.002 A 
ATOM     24  C   UNL d   1      15.154  17.558  -1.000  0.00  0.00     0.000 A 
ATOM     25  C   UNL d   1      14.819  17.521  -1.753  0.00  0.00     0.000 A 
ATOM     26  C   UNL d   1      14.736  16.795  -2.128  0.00  0.00     0.000 A 
ATOM     27  C   UNL d   1      14.986  16.104  -1.753  0.00  0.00     0.002 A 
ENDBRANCH  21  22
ENDBRANCH   2  21
TORSDOF 5
ENDMDL
MODEL 2
REMARK VINA RESULT:      44.9      2.434      4.834
REMARK  5 active torsions:
REMARK  status: ('A' for Active; 'I' for Inactive)
REMARK    1  A    between atoms: C_7  and  N_2 
REMARK    2  A    between atoms: C_14  and  C_7 
REMARK    3  A    between atoms: O_10  and  C_9 
REMARK    4  A    between atoms: C_11  and  O_10 
REMARK    5  A    between atoms: C_13  and  C_11 
ROOT
ATOM      1  C   UNL d   1      13.155  12.461  -3.529  0.00  0.00     0.265 A 
ATOM      2  N   UNL d   1      13.526  12.467  -2.792  0.00  0.00    -0.272 N 
ATOM      3  C   UNL d   1      13.170  13.132  -4.002  0.00  0.00     0.059 A 
ATOM      4  C   UNL d   1      13.556  13.813  -3.741  0.00  0.00     0.029 A 
ATOM      5  C   UNL d   1      13.926  13.823  -3.008  0.00  0.00     0.021 A 
ATOM      6  C   UNL d   1      13.912  13.148  -2.532  0.00  0.00     0.083 A 
ATOM      7  O   UNL d   1      12.769  11.780  -3.790  0.00  0.00    -0.267 OA
ATOM      8  C   UNL d   1      13.571  14.487  -4.218  0.00  0.00     0.100 A 
ATOM      9  C   UNL d   1      12.799  13.125  -4.739  0.00  0.00     0.005 A 
ATOM     10  C   UNL d   1      12.813  13.798  -5.215  0.00  0.00     0.002 A 
ATOM     11  C   UNL d   1      13.199  14.479  -4.955  0.00  0.00     0.025 A 
ENDROOT
BRANCH   8  12
ATOM     12  O   UNL d   1      13.957  15.168  -3.957  0.00  0.00    -0.305 OA
BRANCH  12  13
ATOM     13  C   UNL d   1      14.645  15.421  -4.334  0.00  0.00     0.122 C 
BRANCH  13  14
ATOM     14  C   UNL d   1      14.804  16.228  -4.405  0.00  0.00     0.025 A 
ATOM     15  C   UNL d   1      14.756  16.595  -5.142  0.00  0.00     0.004 A 
ATOM     16  C   UNL d   1      14.914  17.402  -5.213  0.00  0.00     0.030 A 
ATOM     17  C   UNL d   1      15.121  17.841  -4.545  0.00  0.00     0.140 A 
ATOM     18  C   UNL d   1      15.169  17.474  -3.807  0.00  0.00     0.030 A 
ATOM     19  F   UNL d   1      15.279  18.648  -4.615  0.00  0.00    -0.204 F 
ATOM     20  C   UNL d   1      15.010  16.668  -3.737  0.00  0.00     0.004 A 
ENDBRANCH  13  14
ENDBRANCH  12  13
ENDBRANCH   8  12
BRANCH   2  21
ATOM     21  C   UNL d   1      13.508  11.784  -2.314  0.00  0.00     0.083 C 
BRANCH  21  22
ATOM     22  C   UNL d   1      13.855  11.791  -1.566  0.00  0.00     0.018 A 
ATOM     23  C   UNL d   1      13.378  11.787  -0.895  0.00  0.00     0.002 A 
ATOM     24  C   UNL d   1      13.724  11.794  -0.146  0.00  0.00     0.000 A 
ATOM     25  C   UNL d   1      14.546  11.804  -0.072  0.00  0.00     0.000 A 
ATOM     26  C   UNL d   1      15.017  11.808  -0.745  0.00  0.00     0.000 A 
ATOM     27  C   UNL d   1      14.671  11.801  -1.494  0.00  0.00     0.002 A 
ENDBRANCH  21  22
ENDBRANCH   2  21
TORSDOF 5
ENDMDL
