MODEL 1
REMARK VINA RESULT:      -3.5      0.000      0.000
REMARK  3 active torsions:
REMARK  status: ('A' for Active; 'I' for Inactive)
REMARK    1  A    between atoms: C_8  and  C_2 
REMARK    2  A    between atoms: C_9  and  C_3 
REMARK    3  A    between atoms: N_6  and  C_8 
ROOT
ATOM      1  N   UNL d   1      31.936  21.339 -20.991  0.00  0.00    -0.121 NA
ATOM      2  C   UNL d   1      32.844  20.496 -21.486  0.00  0.00     0.222 A 
ATOM      3  C   UNL d   1      32.679  21.607 -20.757  0.00  0.00     0.204 A 
ATOM      4  O   UNL d   1      33.241  21.080 -21.067  0.00  0.00    -0.267 OA
ATOM      5  N   UNL d   1      32.033  20.653 -21.441  0.00  0.00    -0.119 NA
ENDROOT
BRANCH   2   6
ATOM      6  C   UNL d   1      33.187  19.857 -21.887  0.00  0.00     0.127 C 
BRANCH   6   7
ATOM      7  N   UNL d   1      33.188  19.836 -22.711  0.00  0.00    -0.301 N 
ATOM      8  C   UNL d   1      33.136  19.114 -23.095  0.00  0.00     0.064 A 
ATOM      9  C   UNL d   1      33.136  19.081 -23.919  0.00  0.00     0.016 A 
ATOM     10  C   UNL d   1      33.084  18.416 -22.669  0.00  0.00     0.018 A 
ATOM     11  C   UNL d   1      33.085  18.365 -24.309  0.00  0.00     0.001 A 
ATOM     12  C   UNL d   1      33.189  19.785 -24.351  0.00  0.00     0.003 A 
ATOM     13  C   UNL d   1      33.032  17.670 -23.880  0.00  0.00     0.000 A 
ATOM     14  C   UNL d   1      33.032  17.694 -23.053  0.00  0.00     0.002 A 
ATOM     15  C   UNL d   1      33.241  20.509 -23.964  0.00  0.00     0.019 A 
ATOM     16  C   UNL d   1      33.241  20.537 -23.134  0.00  0.00     0.080 A 
ENDBRANCH   6   7
ENDBRANCH   2   6
BRANCH   3  17
ATOM     17  C   UNL d   1      32.836  22.277 -20.298  0.00  0.00     0.043 A 
ATOM     18  C   UNL d   1      33.030  22.184 -19.501  0.00  0.00     0.004 A 
ATOM     19  C   UNL d   1      33.188  22.850 -19.039  0.00  0.00     0.000 A 
ATOM     20  C   UNL d   1      33.150  23.604 -19.379  0.00  0.00     0.000 A 
ATOM     21  C   UNL d   1      32.955  23.689 -20.179  0.00  0.00     0.000 A 
ATOM     22  C   UNL d   1      32.799  23.021 -20.636  0.00  0.00     0.004 A 
ENDBRANCH   3  17
TORSDOF 3
ENDMDL
MODEL 2
REMARK VINA RESULT:      -3.4      3.412      5.792
REMARK  3 active torsions:
REMARK  status: ('A' for Active; 'I' for Inactive)
REMARK    1  A    between atoms: C_8  and  C_2 
REMARK    2  A    between atoms: C_9  and  C_3 
REMARK    3  A    between atoms: N_6  and  C_8 
ROOT
ATOM      1  N   UNL d   1      31.146  15.475 -23.992  0.00  0.00    -0.121 NA
ATOM      2  C   UNL d   1      31.799  16.600 -24.288  0.00  0.00     0.222 A 
ATOM      3  C   UNL d   1      30.594  16.085 -24.012  0.00  0.00     0.204 A 
ATOM      4  O   UNL d   1      31.004  16.783 -24.197  0.00  0.00    -0.267 OA
ATOM      5  N   UNL d   1      31.891  15.787 -24.162  0.00  0.00    -0.119 NA
ENDROOT
BRANCH   2   6
ATOM      6  C   UNL d   1      32.409  17.129 -24.475  0.00  0.00     0.127 C 
BRANCH   6   7
ATOM      7  N   UNL d   1      32.687  17.658 -23.907  0.00  0.00    -0.301 N 
ATOM      8  C   UNL d   1      32.824  18.438 -24.117  0.00  0.00     0.064 A 
ATOM      9  C   UNL d   1      33.102  18.976 -23.557  0.00  0.00     0.016 A 
ATOM     10  C   UNL d   1      32.687  18.695 -24.882  0.00  0.00     0.018 A 
ATOM     11  C   UNL d   1      33.241  19.755 -23.759  0.00  0.00     0.001 A 
ATOM     12  C   UNL d   1      33.241  18.717 -22.783  0.00  0.00     0.003 A 
ATOM     13  C   UNL d   1      33.103  20.009 -24.524  0.00  0.00     0.000 A 
ATOM     14  C   UNL d   1      32.823  19.475 -25.092  0.00  0.00     0.002 A 
ATOM     15  C   UNL d   1      33.103  17.933 -22.574  0.00  0.00     0.019 A 
ATOM     16  C   UNL d   1      32.823  17.396 -23.142  0.00  0.00     0.080 A 
ENDBRANCH   6   7
ENDBRANCH   2   6
BRANCH   3  17
ATOM     17  C   UNL d   1      29.781  16.016 -23.874  0.00  0.00     0.043 A 
ATOM     18  C   UNL d   1      29.252  16.413 -24.368  0.00  0.00     0.004 A 
ATOM     19  C   UNL d   1      28.440  16.347 -24.234  0.00  0.00     0.000 A 
ATOM     20  C   UNL d   1      28.163  15.883 -23.607  0.00  0.00     0.000 A 
ATOM     21  C   UNL d   1      28.700  15.487 -23.117  0.00  0.00     0.000 A 
ATOM     22  C   UNL d   1      29.509  15.557 -23.254  0.00  0.00     0.004 A 
ENDBRANCH   3  17
TORSDOF 3
ENDMDL
MODEL 3
REMARK VINA RESULT:      -3.3      1.261      4.849
REMARK  3 active torsions:
REMARK  status: ('A' for Active; 'I' for Inactive)
REMARK    1  A    between atoms: C_8  and  C_2 
REMARK    2  A    between atoms: C_9  and  C_3 
REMARK    3  A    between atoms: N_6  and  C_8 
ROOT
ATOM      1  N   UNL d   1      33.041  18.715 -22.356  0.00  0.00    -0.121 NA
ATOM      2  C   UNL d   1      33.082  20.022 -22.617  0.00  0.00     0.222 A 
ATOM      3  C   UNL d   1      32.760  18.825 -23.122  0.00  0.00     0.204 A 
ATOM      4  O   UNL d   1      32.788  19.640 -23.281  0.00  0.00    -0.267 OA
ATOM      5  N   UNL d   1      33.241  19.451 -22.040  0.00  0.00    -0.119 NA
ENDROOT
BRANCH   2   6
ATOM      6  C   UNL d   1      33.203  20.838 -22.532  0.00  0.00     0.127 C 
BRANCH   6   7
ATOM      7  N   UNL d   1      32.846  21.247 -21.912  0.00  0.00    -0.301 N 
ATOM      8  C   UNL d   1      32.781  22.063 -21.954  0.00  0.00     0.064 A 
ATOM      9  C   UNL d   1      32.425  22.483 -21.340  0.00  0.00     0.016 A 
ATOM     10  C   UNL d   1      33.065  22.473 -22.604  0.00  0.00     0.018 A 
ATOM     11  C   UNL d   1      32.356  23.296 -21.374  0.00  0.00     0.001 A 
ATOM     12  C   UNL d   1      32.137  22.071 -20.682  0.00  0.00     0.003 A 
ATOM     13  C   UNL d   1      32.642  23.702 -22.025  0.00  0.00     0.000 A 
ATOM     14  C   UNL d   1      33.000  23.288 -22.646  0.00  0.00     0.002 A 
ATOM     15  C   UNL d   1      32.204  21.252 -20.642  0.00  0.00     0.019 A 
ATOM     16  C   UNL d   1      32.563  20.834 -21.263  0.00  0.00     0.080 A 
ENDBRANCH   6   7
ENDBRANCH   2   6
BRANCH   3  17
ATOM     17  C   UNL d   1      32.500  18.233 -23.638  0.00  0.00     0.043 A 
ATOM     18  C   UNL d   1      32.313  17.487 -23.337  0.00  0.00     0.004 A 
ATOM     19  C   UNL d   1      32.053  16.894 -23.848  0.00  0.00     0.000 A 
ATOM     20  C   UNL d   1      31.980  17.051 -24.657  0.00  0.00     0.000 A 
ATOM     21  C   UNL d   1      32.169  17.801 -24.952  0.00  0.00     0.000 A 
ATOM     22  C   UNL d   1      32.428  18.390 -24.438  0.00  0.00     0.004 A 
ENDBRANCH   3  17
TORSDOF 3
ENDMDL
MODEL 4
REMARK VINA RESULT:      -3.3      2.281      5.112
REMARK  3 active torsions:
REMARK  status: ('A' for Active; 'I' for Inactive)
REMARK    1  A    between atoms: C_8  and  C_2 
REMARK    2  A    between atoms: C_9  and  C_3 
REMARK    3  A    between atoms: N_6  and  C_8 
ROOT
ATOM      1  N   UNL d   1      32.038  17.341 -24.876  0.00  0.00    -0.121 NA
ATOM      2  C   UNL d   1      32.575  18.062 -23.890  0.00  0.00     0.222 A 
ATOM      3  C   UNL d   1      31.459  17.447 -24.300  0.00  0.00     0.204 A 
ATOM      4  O   UNL d   1      31.797  17.896 -23.689  0.00  0.00    -0.267 OA
ATOM      5  N   UNL d   1      32.729  17.719 -24.628  0.00  0.00    -0.119 NA
ENDROOT
BRANCH   2   6
ATOM      6  C   UNL d   1      33.119  18.497 -23.440  0.00  0.00     0.127 C 
BRANCH   6   7
ATOM      7  N   UNL d   1      33.160  19.317 -23.518  0.00  0.00    -0.301 N 
ATOM      8  C   UNL d   1      33.178  19.783 -22.845  0.00  0.00     0.064 A 
ATOM      9  C   UNL d   1      33.219  20.605 -22.910  0.00  0.00     0.016 A 
ATOM     10  C   UNL d   1      33.157  19.444 -22.099  0.00  0.00     0.018 A 
ATOM     11  C   UNL d   1      33.238  21.077 -22.244  0.00  0.00     0.001 A 
ATOM     12  C   UNL d   1      33.241  20.949 -23.662  0.00  0.00     0.003 A 
ATOM     13  C   UNL d   1      33.216  20.734 -21.501  0.00  0.00     0.000 A 
ATOM     14  C   UNL d   1      33.175  19.911 -21.426  0.00  0.00     0.002 A 
ATOM     15  C   UNL d   1      33.222  20.479 -24.337  0.00  0.00     0.019 A 
ATOM     16  C   UNL d   1      33.181  19.652 -24.266  0.00  0.00     0.080 A 
ENDBRANCH   6   7
ENDBRANCH   2   6
BRANCH   3  17
ATOM     17  C   UNL d   1      30.684  17.159 -24.327  0.00  0.00     0.043 A 
ATOM     18  C   UNL d   1      30.099  17.606 -24.700  0.00  0.00     0.004 A 
ATOM     19  C   UNL d   1      29.324  17.323 -24.729  0.00  0.00     0.000 A 
ATOM     20  C   UNL d   1      29.140  16.594 -24.383  0.00  0.00     0.000 A 
ATOM     21  C   UNL d   1      29.732  16.151 -24.011  0.00  0.00     0.000 A 
ATOM     22  C   UNL d   1      30.504  16.438 -23.985  0.00  0.00     0.004 A 
ENDBRANCH   3  17
TORSDOF 3
ENDMDL
MODEL 5
REMARK VINA RESULT:      -3.1      2.275      3.651
REMARK  3 active torsions:
REMARK  status: ('A' for Active; 'I' for Inactive)
REMARK    1  A    between atoms: C_8  and  C_2 
REMARK    2  A    between atoms: C_9  and  C_3 
REMARK    3  A    between atoms: N_6  and  C_8 
ROOT
ATOM      1  N   UNL d   1      33.239  18.348 -22.424  0.00  0.00    -0.121 NA
ATOM      2  C   UNL d   1      32.512  18.048 -23.501  0.00  0.00     0.222 A 
ATOM      3  C   UNL d   1      32.914  19.049 -22.708  0.00  0.00     0.204 A 
ATOM      4  O   UNL d   1      32.462  18.859 -23.378  0.00  0.00    -0.267 OA
ATOM      5  N   UNL d   1      32.994  17.727 -22.910  0.00  0.00    -0.119 NA
ENDROOT
BRANCH   2   6
ATOM      6  C   UNL d   1      32.146  17.619 -24.109  0.00  0.00     0.127 C 
BRANCH   6   7
ATOM      7  N   UNL d   1      31.606  17.023 -23.929  0.00  0.00    -0.301 N 
ATOM      8  C   UNL d   1      30.853  17.053 -24.250  0.00  0.00     0.064 A 
ATOM      9  C   UNL d   1      30.304  16.463 -24.077  0.00  0.00     0.016 A 
ATOM     10  C   UNL d   1      30.634  17.667 -24.746  0.00  0.00     0.018 A 
ATOM     11  C   UNL d   1      29.552  16.485 -24.394  0.00  0.00     0.001 A 
ATOM     12  C   UNL d   1      30.524  15.842 -23.576  0.00  0.00     0.003 A 
ATOM     13  C   UNL d   1      29.336  17.100 -24.889  0.00  0.00     0.000 A 
ATOM     14  C   UNL d   1      29.881  17.697 -25.068  0.00  0.00     0.002 A 
ATOM     15  C   UNL d   1      31.281  15.813 -23.254  0.00  0.00     0.019 A 
ATOM     16  C   UNL d   1      31.830  16.410 -23.432  0.00  0.00     0.080 A 
ENDBRANCH   6   7
ENDBRANCH   2   6
BRANCH   3  17
ATOM     17  C   UNL d   1      33.019  19.803 -22.385  0.00  0.00     0.043 A 
ATOM     18  C   UNL d   1      33.002  19.898 -21.565  0.00  0.00     0.004 A 
ATOM     19  C   UNL d   1      33.105  20.649 -21.238  0.00  0.00     0.000 A 
ATOM     20  C   UNL d   1      33.225  21.300 -21.734  0.00  0.00     0.000 A 
ATOM     21  C   UNL d   1      33.241  21.197 -22.556  0.00  0.00     0.000 A 
ATOM     22  C   UNL d   1      33.137  20.446 -22.877  0.00  0.00     0.004 A 
ENDBRANCH   3  17
TORSDOF 3
ENDMDL
MODEL 6
REMARK VINA RESULT:      -2.9      3.670      5.589
REMARK  3 active torsions:
REMARK  status: ('A' for Active; 'I' for Inactive)
REMARK    1  A    between atoms: C_8  and  C_2 
REMARK    2  A    between atoms: C_9  and  C_3 
REMARK    3  A    between atoms: N_6  and  C_8 
ROOT
ATOM      1  N   UNL d   1      32.619  16.569 -24.375  0.00  0.00    -0.121 NA
ATOM      2  C   UNL d   1      31.505  16.109 -23.803  0.00  0.00     0.222 A 
ATOM      3  C   UNL d   1      32.289  17.186 -23.941  0.00  0.00     0.204 A 
ATOM      4  O   UNL d   1      31.596  16.896 -23.587  0.00  0.00    -0.267 OA
ATOM      5  N   UNL d   1      32.139  15.902 -24.294  0.00  0.00    -0.119 NA
ENDROOT
BRANCH   2   6
ATOM      6  C   UNL d   1      30.889  15.604 -23.576  0.00  0.00     0.127 C 
BRANCH   6   7
ATOM      7  N   UNL d   1      30.148  15.666 -23.932  0.00  0.00    -0.301 N 
ATOM      8  C   UNL d   1      29.474  15.615 -23.469  0.00  0.00     0.064 A 
ATOM      9  C   UNL d   1      28.727  15.676 -23.814  0.00  0.00     0.016 A 
ATOM     10  C   UNL d   1      29.529  15.504 -22.659  0.00  0.00     0.018 A 
ATOM     11  C   UNL d   1      28.051  15.626 -23.360  0.00  0.00     0.001 A 
ATOM     12  C   UNL d   1      28.670  15.789 -24.633  0.00  0.00     0.003 A 
ATOM     13  C   UNL d   1      28.110  15.515 -22.551  0.00  0.00     0.000 A 
ATOM     14  C   UNL d   1      28.856  15.453 -22.196  0.00  0.00     0.002 A 
ATOM     15  C   UNL d   1      29.348  15.840 -25.096  0.00  0.00     0.019 A 
ATOM     16  C   UNL d   1      30.097  15.778 -24.743  0.00  0.00     0.080 A 
ENDBRANCH   6   7
ENDBRANCH   2   6
BRANCH   3  17
ATOM     17  C   UNL d   1      32.593  17.952 -23.871  0.00  0.00     0.043 A 
ATOM     18  C   UNL d   1      32.937  18.313 -24.529  0.00  0.00     0.004 A 
ATOM     19  C   UNL d   1      33.241  19.077 -24.464  0.00  0.00     0.000 A 
ATOM     20  C   UNL d   1      33.198  19.476 -23.740  0.00  0.00     0.000 A 
ATOM     21  C   UNL d   1      32.851  19.108 -23.084  0.00  0.00     0.000 A 
ATOM     22  C   UNL d   1      32.549  18.345 -23.154  0.00  0.00     0.004 A 
ENDBRANCH   3  17
TORSDOF 3
ENDMDL
MODEL 7
REMARK VINA RESULT:      -1.9      4.071      5.992
REMARK  3 active torsions:
REMARK  status: ('A' for Active; 'I' for Inactive)
REMARK    1  A    between atoms: C_8  and  C_2 
REMARK    2  A    between atoms: C_9  and  C_3 
REMARK    3  A    between atoms: N_6  and  C_8 
ROOT
ATOM      1  N   UNL d   1      29.083  17.577 -24.743  0.00  0.00    -0.121 NA
ATOM      2  C   UNL d   1      30.347  17.151 -24.734  0.00  0.00     0.222 A 
ATOM      3  C   UNL d   1      29.112  16.896 -24.282  0.00  0.00     0.204 A 
ATOM      4  O   UNL d   1      29.900  16.633 -24.278  0.00  0.00    -0.267 OA
ATOM      5  N   UNL d   1      29.842  17.739 -25.024  0.00  0.00    -0.119 NA
ENDROOT
BRANCH   2   6
ATOM      6  C   UNL d   1      31.161  17.100 -24.881  0.00  0.00     0.127 C 
BRANCH   6   7
ATOM      7  N   UNL d   1      31.702  17.348 -24.311  0.00  0.00    -0.301 N 
ATOM      8  C   UNL d   1      32.198  16.797 -23.961  0.00  0.00     0.064 A 
ATOM      9  C   UNL d   1      32.743  17.033 -23.389  0.00  0.00     0.016 A 
ATOM     10  C   UNL d   1      32.161  16.007 -24.173  0.00  0.00     0.018 A 
ATOM     11  C   UNL d   1      33.241  16.491 -23.037  0.00  0.00     0.001 A 
ATOM     12  C   UNL d   1      32.782  17.832 -23.174  0.00  0.00     0.003 A 
ATOM     13  C   UNL d   1      33.201  15.702 -23.250  0.00  0.00     0.000 A 
ATOM     14  C   UNL d   1      32.657  15.456 -23.824  0.00  0.00     0.002 A 
ATOM     15  C   UNL d   1      32.283  18.384 -23.526  0.00  0.00     0.019 A 
ATOM     16  C   UNL d   1      31.736  18.140 -24.102  0.00  0.00     0.080 A 
ENDBRANCH   6   7
ENDBRANCH   2   6
BRANCH   3  17
ATOM     17  C   UNL d   1      28.475  16.539 -23.895  0.00  0.00     0.043 A 
ATOM     18  C   UNL d   1      28.191  15.812 -24.167  0.00  0.00     0.004 A 
ATOM     19  C   UNL d   1      27.555  15.453 -23.783  0.00  0.00     0.000 A 
ATOM     20  C   UNL d   1      27.207  15.822 -23.129  0.00  0.00     0.000 A 
ATOM     21  C   UNL d   1      27.497  16.550 -22.862  0.00  0.00     0.000 A 
ATOM     22  C   UNL d   1      28.132  16.905 -23.248  0.00  0.00     0.004 A 
ENDBRANCH   3  17
TORSDOF 3
ENDMDL
