MODEL 1
REMARK VINA RESULT:      27.7      0.000      0.000
REMARK  4 active torsions:
REMARK  status: ('A' for Active; 'I' for Inactive)
REMARK    1  A    between atoms: C_8  and  C_1 
REMARK    2  A    between atoms: C_6  and  C_2 
REMARK    3  A    between atoms: O_17  and  C_8 
REMARK    4  A    between atoms: C_20  and  O_17 
ROOT
ATOM      1  C   UNL d   1      14.658  13.384  -1.407  0.00  0.00     0.099 A 
ATOM      2  C   UNL d   1      14.300  13.714  -2.057  0.00  0.00     0.093 A 
ATOM      3  C   UNL d   1      14.982  13.867  -0.823  0.00  0.00     0.093 A 
ATOM      4  C   UNL d   1      14.575  15.009  -1.568  0.00  0.00     0.369 A 
ATOM      5  N   UNL d   1      14.939  14.677  -0.906  0.00  0.00    -0.191 NA
ATOM      6  N   UNL d   1      14.260  14.527  -2.134  0.00  0.00    -0.191 NA
ATOM      7  O   UNL d   1      14.525  15.838  -1.664  0.00  0.00    -0.242 OA
ATOM      8  C   UNL d   1      15.353  13.534  -0.148  0.00  0.00     0.021 C 
ENDROOT
BRANCH   2   9
ATOM      9  C   UNL d   1      13.883  13.143  -2.810  0.00  0.00     0.029 A 
ATOM     10  C   UNL d   1      13.730  13.552  -3.497  0.00  0.00     0.060 A 
ATOM     11  C   UNL d   1      13.385  13.075  -4.116  0.00  0.00     0.023 A 
ATOM     12 CL   UNL d   1      13.869  14.310  -3.623  0.00  0.00    -0.082 Cl
ATOM     13  C   UNL d   1      13.239  12.262  -3.971  0.00  0.00     0.059 A 
ATOM     14  C   UNL d   1      13.419  11.928  -3.260  0.00  0.00     0.011 A 
ATOM     15 CL   UNL d   1      12.902  11.786  -4.568  0.00  0.00    -0.082 Cl
ATOM     16  C   UNL d   1      13.756  12.381  -2.648  0.00  0.00     0.003 A 
ENDBRANCH   2   9
BRANCH   1  17
ATOM     17  C   UNL d   1      14.689  12.562  -1.345  0.00  0.00     0.303 C 
ATOM     18  O   UNL d   1      15.372  12.143  -1.495  0.00  0.00    -0.259 OA
BRANCH  17  19
ATOM     19  O   UNL d   1      13.993  12.124  -1.119  0.00  0.00    -0.271 OA
BRANCH  19  20
ATOM     20  C   UNL d   1      13.877  11.949  -0.299  0.00  0.00     0.126 C 
ATOM     21  C   UNL d   1      13.121  11.780  -0.016  0.00  0.00     0.029 C 
ENDBRANCH  19  20
ENDBRANCH  17  19
ENDBRANCH   1  17
TORSDOF 4
ENDMDL
MODEL 2
REMARK VINA RESULT:      28.1      1.909      3.509
REMARK  4 active torsions:
REMARK  status: ('A' for Active; 'I' for Inactive)
REMARK    1  A    between atoms: C_8  and  C_1 
REMARK    2  A    between atoms: C_6  and  C_2 
REMARK    3  A    between atoms: O_17  and  C_8 
REMARK    4  A    between atoms: C_20  and  O_17 
ROOT
ATOM      1  C   UNL d   1      13.742  13.581  -3.367  0.00  0.00     0.099 A 
ATOM      2  C   UNL d   1      13.776  12.802  -3.143  0.00  0.00     0.093 A 
ATOM      3  C   UNL d   1      13.459  13.786  -4.114  0.00  0.00     0.093 A 
ATOM      4  C   UNL d   1      13.249  12.407  -4.392  0.00  0.00     0.369 A 
ATOM      5  N   UNL d   1      13.214  13.198  -4.623  0.00  0.00    -0.191 NA
ATOM      6  N   UNL d   1      13.528  12.217  -3.658  0.00  0.00    -0.191 NA
ATOM      7  O   UNL d   1      13.001  11.795  -4.905  0.00  0.00    -0.242 OA
ATOM      8  C   UNL d   1      13.421  14.590  -4.353  0.00  0.00     0.021 C 
ENDROOT
BRANCH   2   9
ATOM      9  C   UNL d   1      14.124  12.505  -2.217  0.00  0.00     0.029 A 
ATOM     10  C   UNL d   1      13.615  12.023  -1.805  0.00  0.00     0.060 A 
ATOM     11  C   UNL d   1      13.907  11.780  -1.040  0.00  0.00     0.023 A 
ATOM     12 CL   UNL d   1      12.913  11.779  -2.047  0.00  0.00    -0.082 Cl
ATOM     13  C   UNL d   1      14.662  12.047  -0.789  0.00  0.00     0.059 A 
ATOM     14  C   UNL d   1      15.110  12.526  -1.258  0.00  0.00     0.011 A 
ATOM     15 CL   UNL d   1      14.959  11.817  -0.044  0.00  0.00    -0.082 Cl
ATOM     16  C   UNL d   1      14.837  12.770  -2.005  0.00  0.00     0.003 A 
ENDBRANCH   2   9
BRANCH   1  17
ATOM     17  C   UNL d   1      13.996  14.159  -2.835  0.00  0.00     0.303 C 
ATOM     18  O   UNL d   1      14.004  14.030  -2.029  0.00  0.00    -0.259 OA
BRANCH  17  19
ATOM     19  O   UNL d   1      14.261  14.917  -3.121  0.00  0.00    -0.271 OA
BRANCH  19  20
ATOM     20  C   UNL d   1      14.357  15.547  -2.563  0.00  0.00     0.126 C 
ATOM     21  C   UNL d   1      14.994  16.066  -2.632  0.00  0.00     0.029 C 
ENDBRANCH  19  20
ENDBRANCH  17  19
ENDBRANCH   1  17
TORSDOF 4
ENDMDL
MODEL 3
REMARK VINA RESULT:      29.6      8.924      9.913
REMARK  4 active torsions:
REMARK  status: ('A' for Active; 'I' for Inactive)
REMARK    1  A    between atoms: C_8  and  C_1 
REMARK    2  A    between atoms: C_6  and  C_2 
REMARK    3  A    between atoms: O_17  and  C_8 
REMARK    4  A    between atoms: C_20  and  O_17 
ROOT
ATOM      1  C   UNL d   1      23.396  13.500  -1.161  0.00  0.00     0.099 A 
ATOM      2  C   UNL d   1      23.305  12.761  -1.485  0.00  0.00     0.093 A 
ATOM      3  C   UNL d   1      23.031  13.686  -0.445  0.00  0.00     0.093 A 
ATOM      4  C   UNL d   1      22.491  12.371  -0.400  0.00  0.00     0.369 A 
ATOM      5  N   UNL d   1      22.581  13.121  -0.068  0.00  0.00    -0.191 NA
ATOM      6  N   UNL d   1      22.852  12.199  -1.101  0.00  0.00    -0.191 NA
ATOM      7  O   UNL d   1      22.031  11.783  -0.023  0.00  0.00    -0.242 OA
ATOM      8  C   UNL d   1      23.120  14.448  -0.104  0.00  0.00     0.021 C 
ENDROOT
BRANCH   2   9
ATOM      9  C   UNL d   1      23.745  12.489  -2.379  0.00  0.00     0.029 A 
ATOM     10  C   UNL d   1      24.409  12.024  -2.301  0.00  0.00     0.060 A 
ATOM     11  C   UNL d   1      24.768  11.802  -3.043  0.00  0.00     0.023 A 
ATOM     12 CL   UNL d   1      24.723  11.780  -1.628  0.00  0.00    -0.082 Cl
ATOM     13  C   UNL d   1      24.423  12.070  -3.759  0.00  0.00     0.059 A 
ATOM     14  C   UNL d   1      23.761  12.530  -3.754  0.00  0.00     0.011 A 
ATOM     15 CL   UNL d   1      24.765  11.860  -4.490  0.00  0.00    -0.082 Cl
ATOM     16  C   UNL d   1      23.401  12.754  -3.039  0.00  0.00     0.003 A 
ENDBRANCH   2   9
BRANCH   1  17
ATOM     17  C   UNL d   1      23.857  14.055  -1.562  0.00  0.00     0.303 C 
ATOM     18  O   UNL d   1      23.591  14.434  -2.233  0.00  0.00    -0.259 OA
BRANCH  17  19
ATOM     19  O   UNL d   1      24.637  14.248  -1.276  0.00  0.00    -0.271 OA
BRANCH  19  20
ATOM     20  C   UNL d   1      24.765  15.016  -0.943  0.00  0.00     0.126 C 
ATOM     21  C   UNL d   1      24.519  15.178  -0.173  0.00  0.00     0.029 C 
ENDBRANCH  19  20
ENDBRANCH  17  19
ENDBRANCH   1  17
TORSDOF 4
ENDMDL
