MODEL 1
REMARK VINA RESULT:      -7.4      0.000      0.000
REMARK  6 active torsions:
REMARK  status: ('A' for Active; 'I' for Inactive)
REMARK    1  A    between atoms: C_5  and  N_1 
REMARK    2  A    between atoms: C_8  and  C_3 
REMARK    3  A    between atoms: C_7  and  C_4 
REMARK    4  A    between atoms: N_12  and  C_5 
REMARK    5  A    between atoms: N_11  and  C_10 
REMARK    6  A    between atoms: O_22  and  C_19 
ROOT
ATOM      1  N   UNL d   1      52.439  33.671  53.272  0.00  0.00    -0.203 N 
ATOM      2  N   UNL d   1      52.934  33.049  53.459  0.00  0.00    -0.163 NA
ATOM      3  C   UNL d   1      52.513  32.353  53.303  0.00  0.00     0.103 A 
ATOM      4  C   UNL d   1      51.718  33.359  53.004  0.00  0.00     0.087 A 
ATOM      5  C   UNL d   1      51.754  32.548  53.019  0.00  0.00     0.040 A 
ENDROOT
BRANCH   4   6
ATOM      6  C   UNL d   1      51.051  33.773  52.753  0.00  0.00     0.018 A 
ATOM      7  C   UNL d   1      50.464  33.983  53.291  0.00  0.00     0.003 A 
ATOM      8  C   UNL d   1      49.796  34.398  53.040  0.00  0.00     0.018 A 
ATOM      9  C   UNL d   1      49.715  34.603  52.250  0.00  0.00     0.064 A 
ATOM     10  C   UNL d   1      50.296  34.398  51.700  0.00  0.00     0.018 A 
ATOM     11  C   UNL d   1      50.963  33.982  51.960  0.00  0.00     0.003 A 
BRANCH   9  12
ATOM     12  N   UNL d   1      49.047  35.014  52.018  0.00  0.00    -0.301 N 
ATOM     13  C   UNL d   1      48.723  34.892  51.263  0.00  0.00     0.100 C 
ATOM     14  C   UNL d   1      48.693  35.549  52.533  0.00  0.00     0.100 C 
ENDBRANCH   9  12
ENDBRANCH   4   6
BRANCH   1  15
ATOM     15  C   UNL d   1      52.655  34.483  53.351  0.00  0.00     0.222 C 
ATOM     16  S   UNL d   1      52.986  34.894  52.706  0.00  0.00    -0.037 SA
BRANCH  15  17
ATOM     17  N   UNL d   1      52.533  34.883  54.094  0.00  0.00    -0.214 NA
ATOM     18  C   UNL d   1      53.059  35.508  54.317  0.00  0.00     0.122 C 
ENDBRANCH  15  17
ENDBRANCH   1  15
BRANCH   3  19
ATOM     19  C   UNL d   1      52.838  31.623  53.427  0.00  0.00     0.019 A 
ATOM     20  C   UNL d   1      53.378  31.497  54.030  0.00  0.00     0.004 A 
ATOM     21  C   UNL d   1      53.701  30.746  54.142  0.00  0.00     0.024 A 
ATOM     22  C   UNL d   1      53.489  30.111  53.654  0.00  0.00     0.094 A 
ATOM     23  C   UNL d   1      52.949  30.238  53.050  0.00  0.00     0.024 A 
ATOM     24  C   UNL d   1      52.630  30.988  52.942  0.00  0.00     0.004 A 
BRANCH  22  25
ATOM     25  O   UNL d   1      53.819  29.353  53.773  0.00  0.00    -0.328 OA
ATOM     26  C   UNL d   1      53.553  28.883  54.405  0.00  0.00     0.181 C 
ENDBRANCH  22  25
ENDBRANCH   3  19
TORSDOF 6
ENDMDL
MODEL 2
REMARK VINA RESULT:      -6.4      1.997      4.874
REMARK  6 active torsions:
REMARK  status: ('A' for Active; 'I' for Inactive)
REMARK    1  A    between atoms: C_5  and  N_1 
REMARK    2  A    between atoms: C_8  and  C_3 
REMARK    3  A    between atoms: C_7  and  C_4 
REMARK    4  A    between atoms: N_12  and  C_5 
REMARK    5  A    between atoms: N_11  and  C_10 
REMARK    6  A    between atoms: O_22  and  C_19 
ROOT
ATOM      1  N   UNL d   1      51.643  34.345  53.241  0.00  0.00    -0.203 N 
ATOM      2  N   UNL d   1      51.021  34.845  53.070  0.00  0.00    -0.163 NA
ATOM      3  C   UNL d   1      50.426  34.378  52.731  0.00  0.00     0.103 A 
ATOM      4  C   UNL d   1      51.432  33.576  53.010  0.00  0.00     0.087 A 
ATOM      5  C   UNL d   1      50.684  33.587  52.695  0.00  0.00     0.040 A 
ENDROOT
BRANCH   4   6
ATOM      6  C   UNL d   1      51.882  32.888  53.073  0.00  0.00     0.018 A 
ATOM      7  C   UNL d   1      51.706  32.327  53.650  0.00  0.00     0.003 A 
ATOM      8  C   UNL d   1      52.157  31.638  53.714  0.00  0.00     0.018 A 
ATOM      9  C   UNL d   1      52.783  31.510  53.200  0.00  0.00     0.064 A 
ATOM     10  C   UNL d   1      52.970  32.065  52.617  0.00  0.00     0.018 A 
ATOM     11  C   UNL d   1      52.513  32.753  52.559  0.00  0.00     0.003 A 
BRANCH   9  12
ATOM     12  N   UNL d   1      53.219  30.823  53.277  0.00  0.00    -0.301 N 
ATOM     13  C   UNL d   1      52.937  30.111  52.953  0.00  0.00     0.100 C 
ATOM     14  C   UNL d   1      53.939  30.833  53.675  0.00  0.00     0.100 C 
ENDBRANCH   9  12
ENDBRANCH   4   6
BRANCH   1  15
ATOM     15  C   UNL d   1      52.366  34.599  53.595  0.00  0.00     0.222 C 
ATOM     16  S   UNL d   1      53.006  34.840  53.117  0.00  0.00    -0.037 SA
BRANCH  15  17
ATOM     17  N   UNL d   1      52.442  34.609  54.444  0.00  0.00    -0.214 NA
ATOM     18  C   UNL d   1      52.991  35.143  54.804  0.00  0.00     0.122 C 
ENDBRANCH  15  17
ENDBRANCH   1  15
BRANCH   3  19
ATOM     19  C   UNL d   1      49.723  34.696  52.491  0.00  0.00     0.019 A 
ATOM     20  C   UNL d   1      49.268  35.150  53.000  0.00  0.00     0.004 A 
ATOM     21  C   UNL d   1      48.552  35.467  52.739  0.00  0.00     0.024 A 
ATOM     22  C   UNL d   1      48.281  35.334  51.968  0.00  0.00     0.094 A 
ATOM     23  C   UNL d   1      48.736  34.880  51.459  0.00  0.00     0.024 A 
ATOM     24  C   UNL d   1      49.449  34.566  51.724  0.00  0.00     0.004 A 
BRANCH  22  25
ATOM     25  O   UNL d   1      47.555  35.659  51.710  0.00  0.00    -0.328 OA
ATOM     26  C   UNL d   1      47.220  36.299  52.122  0.00  0.00     0.181 C 
ENDBRANCH  22  25
ENDBRANCH   3  19
TORSDOF 6
ENDMDL
MODEL 3
REMARK VINA RESULT:      -6.2      1.938      4.887
REMARK  6 active torsions:
REMARK  status: ('A' for Active; 'I' for Inactive)
REMARK    1  A    between atoms: C_5  and  N_1 
REMARK    2  A    between atoms: C_8  and  C_3 
REMARK    3  A    between atoms: C_7  and  C_4 
REMARK    4  A    between atoms: N_12  and  C_5 
REMARK    5  A    between atoms: N_11  and  C_10 
REMARK    6  A    between atoms: O_22  and  C_19 
ROOT
ATOM      1  N   UNL d   1      53.172  32.832  53.618  0.00  0.00    -0.203 N 
ATOM      2  N   UNL d   1      52.710  33.453  53.360  0.00  0.00    -0.163 NA
ATOM      3  C   UNL d   1      51.991  33.127  53.108  0.00  0.00     0.103 A 
ATOM      4  C   UNL d   1      52.740  32.129  53.525  0.00  0.00     0.087 A 
ATOM      5  C   UNL d   1      52.012  32.301  53.212  0.00  0.00     0.040 A 
ENDROOT
BRANCH   4   6
ATOM      6  C   UNL d   1      52.979  31.362  53.710  0.00  0.00     0.018 A 
ATOM      7  C   UNL d   1      52.955  31.093  54.488  0.00  0.00     0.003 A 
ATOM      8  C   UNL d   1      53.194  30.325  54.673  0.00  0.00     0.018 A 
ATOM      9  C   UNL d   1      53.457  29.825  54.079  0.00  0.00     0.064 A 
ATOM     10  C   UNL d   1      53.487  30.081  53.295  0.00  0.00     0.018 A 
ATOM     11  C   UNL d   1      53.245  30.854  53.117  0.00  0.00     0.003 A 
BRANCH   9  12
ATOM     12  N   UNL d   1      53.691  29.067  54.279  0.00  0.00    -0.301 N 
ATOM     13  C   UNL d   1      54.335  28.713  53.892  0.00  0.00     0.100 C 
ATOM     14  C   UNL d   1      53.287  28.653  54.865  0.00  0.00     0.100 C 
ENDBRANCH   9  12
ENDBRANCH   4   6
BRANCH   1  15
ATOM     15  C   UNL d   1      53.954  32.923  53.922  0.00  0.00     0.222 C 
ATOM     16  S   UNL d   1      54.614  32.836  53.420  0.00  0.00    -0.037 SA
BRANCH  15  17
ATOM     17  N   UNL d   1      54.069  33.105  54.747  0.00  0.00    -0.214 NA
ATOM     18  C   UNL d   1      54.783  33.490  54.990  0.00  0.00     0.122 C 
ENDBRANCH  15  17
ENDBRANCH   1  15
BRANCH   3  19
ATOM     19  C   UNL d   1      51.395  33.589  52.815  0.00  0.00     0.019 A 
ATOM     20  C   UNL d   1      51.406  33.852  52.039  0.00  0.00     0.004 A 
ATOM     21  C   UNL d   1      50.791  34.322  51.755  0.00  0.00     0.024 A 
ATOM     22  C   UNL d   1      50.156  34.536  52.242  0.00  0.00     0.094 A 
ATOM     23  C   UNL d   1      50.145  34.272  53.018  0.00  0.00     0.024 A 
ATOM     24  C   UNL d   1      50.761  33.804  53.297  0.00  0.00     0.004 A 
BRANCH  22  25
ATOM     25  O   UNL d   1      49.535  35.013  51.949  0.00  0.00    -0.328 OA
ATOM     26  C   UNL d   1      48.991  34.692  51.407  0.00  0.00     0.181 C 
ENDBRANCH  22  25
ENDBRANCH   3  19
TORSDOF 6
ENDMDL
MODEL 4
REMARK VINA RESULT:      -6.1      2.333      4.979
REMARK  6 active torsions:
REMARK  status: ('A' for Active; 'I' for Inactive)
REMARK    1  A    between atoms: C_5  and  N_1 
REMARK    2  A    between atoms: C_8  and  C_3 
REMARK    3  A    between atoms: C_7  and  C_4 
REMARK    4  A    between atoms: N_12  and  C_5 
REMARK    5  A    between atoms: N_11  and  C_10 
REMARK    6  A    between atoms: O_22  and  C_19 
ROOT
ATOM      1  N   UNL d   1      52.054  32.651  53.078  0.00  0.00    -0.203 N 
ATOM      2  N   UNL d   1      51.352  32.831  52.702  0.00  0.00    -0.163 NA
ATOM      3  C   UNL d   1      51.242  33.649  52.782  0.00  0.00     0.103 A 
ATOM      4  C   UNL d   1      52.372  33.353  53.387  0.00  0.00     0.087 A 
ATOM      5  C   UNL d   1      51.879  33.972  53.210  0.00  0.00     0.040 A 
ENDROOT
BRANCH   4   6
ATOM      6  C   UNL d   1      53.073  33.445  53.811  0.00  0.00     0.018 A 
ATOM      7  C   UNL d   1      53.074  33.395  54.633  0.00  0.00     0.003 A 
ATOM      8  C   UNL d   1      53.776  33.488  55.057  0.00  0.00     0.018 A 
ATOM      9  C   UNL d   1      54.478  33.630  54.659  0.00  0.00     0.064 A 
ATOM     10  C   UNL d   1      54.492  33.683  53.835  0.00  0.00     0.018 A 
ATOM     11  C   UNL d   1      53.784  33.589  53.416  0.00  0.00     0.003 A 
BRANCH   9  12
ATOM     12  N   UNL d   1      55.165  33.720  55.094  0.00  0.00    -0.301 N 
ATOM     13  C   UNL d   1      55.885  33.875  54.711  0.00  0.00     0.100 C 
ATOM     14  C   UNL d   1      55.144  33.656  55.914  0.00  0.00     0.100 C 
ENDBRANCH   9  12
ENDBRANCH   4   6
BRANCH   1  15
ATOM     15  C   UNL d   1      52.374  31.872  53.127  0.00  0.00     0.222 C 
ATOM     16  S   UNL d   1      52.202  31.387  53.783  0.00  0.00    -0.037 SA
BRANCH  15  17
ATOM     17  N   UNL d   1      52.874  31.580  52.502  0.00  0.00    -0.214 NA
ATOM     18  C   UNL d   1      53.011  30.746  52.436  0.00  0.00     0.122 C 
ENDBRANCH  15  17
ENDBRANCH   1  15
BRANCH   3  19
ATOM     19  C   UNL d   1      50.595  34.022  52.472  0.00  0.00     0.019 A 
ATOM     20  C   UNL d   1      50.458  34.030  51.664  0.00  0.00     0.004 A 
ATOM     21  C   UNL d   1      49.793  34.416  51.364  0.00  0.00     0.024 A 
ATOM     22  C   UNL d   1      49.256  34.798  51.866  0.00  0.00     0.094 A 
ATOM     23  C   UNL d   1      49.394  34.789  52.674  0.00  0.00     0.024 A 
ATOM     24  C   UNL d   1      50.058  34.404  52.969  0.00  0.00     0.004 A 
BRANCH  22  25
ATOM     25  O   UNL d   1      48.585  35.186  51.556  0.00  0.00    -0.328 OA
ATOM     26  C   UNL d   1      48.145  34.826  50.949  0.00  0.00     0.181 C 
ENDBRANCH  22  25
ENDBRANCH   3  19
TORSDOF 6
ENDMDL
