MODEL 1
REMARK VINA RESULT:      47.3      0.000      0.000
REMARK  4 active torsions:
REMARK  status: ('A' for Active; 'I' for Inactive)
REMARK    1  A    between atoms: C_2  and  C_1 
REMARK    2  A    between atoms: C_3  and  C_1 
REMARK       I    between atoms: N_7  and  C_2 
REMARK    3  A    between atoms: C_4  and  C_3 
REMARK    4  A    between atoms: C_13  and  N_7 
ROOT
ATOM      1  C   UNL d   1      60.375  48.918  50.872  0.00  0.00     0.128 C 
ATOM      2  C   UNL d   1      60.614  49.307  50.194  0.00  0.00     0.106 C 
ATOM      3  N   UNL d   1      60.858  49.708  49.504  0.00  0.00    -0.191 NA
ENDROOT
BRANCH   1   4
ATOM      4  C   UNL d   1      60.326  49.320  51.601  0.00  0.00     0.289 C 
ATOM      5  N   UNL d   1      59.631  49.708  51.805  0.00  0.00    -0.207 NA
ATOM      6  O   UNL d   1      60.979  49.321  52.107  0.00  0.00    -0.264 OA
BRANCH   5   7
ATOM      7  C   UNL d   1      58.979  49.707  51.300  0.00  0.00     0.085 A 
ATOM      8  C   UNL d   1      59.091  49.708  50.483  0.00  0.00     0.020 A 
ATOM      9  C   UNL d   1      58.438  49.707  49.978  0.00  0.00     0.008 A 
ATOM     10  C   UNL d   1      57.675  49.705  50.289  0.00  0.00     0.035 A 
ATOM     11  C   UNL d   1      57.563  49.704  51.106  0.00  0.00     0.008 A 
ATOM     12 BR   UNL d   1      57.024  49.704  49.775  0.00  0.00    -0.049 Br
ATOM     13  C   UNL d   1      58.215  49.705  51.611  0.00  0.00     0.020 A 
ENDBRANCH   5   7
ENDBRANCH   1   4
BRANCH   1  14
ATOM     14  C   UNL d   1      60.179  48.117  50.838  0.00  0.00     0.040 C 
BRANCH  14  15
ATOM     15  C   UNL d   1      60.734  47.558  50.581  0.00  0.00     0.101 A 
ATOM     16  O   UNL d   1      61.440  47.623  50.169  0.00  0.00    -0.307 OA
ATOM     17  C   UNL d   1      61.746  46.861  50.078  0.00  0.00     0.100 A 
ATOM     18  C   UNL d   1      62.461  46.662  49.690  0.00  0.00     0.027 C 
ATOM     19  C   UNL d   1      61.237  46.330  50.428  0.00  0.00     0.027 A 
ATOM     20  C   UNL d   1      60.603  46.761  50.744  0.00  0.00     0.027 A 
ENDBRANCH  14  15
ENDBRANCH   1  14
TORSDOF 4
ENDMDL
