MODEL 1
REMARK VINA RESULT:      20.4      0.000      0.000
REMARK  6 active torsions:
REMARK  status: ('A' for Active; 'I' for Inactive)
REMARK    1  A    between atoms: C_3  and  C_1 
REMARK    2  A    between atoms: S_2  and  C_3 
REMARK    3  A    between atoms: C_8  and  S_2 
REMARK    4  A    between atoms: C_9  and  C_3 
REMARK    5  A    between atoms: N_7  and  C_4 
REMARK    6  A    between atoms: C_25  and  N_16 
ROOT
ATOM      1  C   UNL d   1     -42.743-122.220 -50.609  0.00  0.00     0.128 A 
ATOM      2  C   UNL d   1     -43.053-122.338 -49.858  0.00  0.00     0.166 A 
ATOM      3  N   UNL d   1     -43.205-121.891 -51.200  0.00  0.00    -0.240 NA
ATOM      4  N   UNL d   1     -43.826-122.127 -49.698  0.00  0.00    -0.225 NA
ATOM      5  C   UNL d   1     -43.979-121.681 -51.036  0.00  0.00     0.099 A 
ATOM      6  C   UNL d   1     -44.294-121.797 -50.286  0.00  0.00     0.101 A 
ATOM      7  C   UNL d   1     -45.074-121.583 -50.129  0.00  0.00     0.021 A 
ATOM      8  C   UNL d   1     -44.444-121.350 -51.633  0.00  0.00     0.021 A 
ATOM      9  C   UNL d   1     -45.224-121.136 -51.475  0.00  0.00     0.002 A 
ATOM     10  C   UNL d   1     -45.535-121.254 -50.723  0.00  0.00     0.002 A 
ENDROOT
BRANCH   1  11
ATOM     11  C   UNL d   1     -41.968-122.431 -50.773  0.00  0.00     0.129 C 
BRANCH  11  12
ATOM     12  S   UNL d   1     -41.575-122.078 -51.498  0.00  0.00     0.213 S 
ATOM     13  O   UNL d   1     -41.405-121.550 -50.871  0.00  0.00    -0.217 OA
ATOM     14  O   UNL d   1     -41.131-121.313 -51.402  0.00  0.00    -0.217 OA
BRANCH  12  15
ATOM     15  C   UNL d   1     -41.532-122.325 -52.294  0.00  0.00     0.088 A 
ATOM     16  C   UNL d   1     -41.698-121.788 -52.901  0.00  0.00     0.011 A 
ATOM     17  C   UNL d   1     -41.656-122.030 -53.688  0.00  0.00     0.001 A 
ATOM     18  C   UNL d   1     -41.821-121.499 -54.294  0.00  0.00     0.000 C 
ATOM     19  C   UNL d   1     -41.447-122.812 -53.869  0.00  0.00     0.000 A 
ATOM     20  C   UNL d   1     -41.281-123.345 -53.259  0.00  0.00     0.001 A 
ATOM     21  C   UNL d   1     -41.404-123.058 -54.658  0.00  0.00     0.000 C 
ATOM     22  C   UNL d   1     -41.322-123.105 -52.469  0.00  0.00     0.011 A 
ENDBRANCH  12  15
ENDBRANCH  11  12
BRANCH  11  23
ATOM     23  C   UNL d   1     -41.425-122.963 -50.350  0.00  0.00     0.135 C 
ATOM     24  N   UNL d   1     -41.127-123.755 -50.605  0.00  0.00    -0.146 N 
ENDBRANCH  11  23
ENDBRANCH   1  11
BRANCH   2  25
ATOM     25  N   UNL d   1     -42.571-122.674 -49.265  0.00  0.00    -0.285 N 
ATOM     26  C   UNL d   1     -42.314-123.455 -49.327  0.00  0.00     0.101 A 
ATOM     27  C   UNL d   1     -41.834-123.780 -48.731  0.00  0.00     0.100 A 
ATOM     28  N   UNL d   1     -41.614-123.316 -48.074  0.00  0.00    -0.300 N 
ATOM     29  C   UNL d   1     -41.874-122.528 -48.014  0.00  0.00     0.100 A 
ATOM     30  C   UNL d   1     -42.350-122.210 -48.608  0.00  0.00     0.101 A 
BRANCH  28  31
ATOM     31  C   UNL d   1     -41.128-123.647 -47.474  0.00  0.00     0.080 C 
ATOM     32  C   UNL d   1     -41.357-123.565 -46.676  0.00  0.00     0.021 C 
ENDBRANCH  28  31
ENDBRANCH   2  25
TORSDOF 6
ENDMDL
MODEL 2
REMARK VINA RESULT:      22.9      1.883      4.699
REMARK  6 active torsions:
REMARK  status: ('A' for Active; 'I' for Inactive)
REMARK    1  A    between atoms: C_3  and  C_1 
REMARK    2  A    between atoms: S_2  and  C_3 
REMARK    3  A    between atoms: C_8  and  S_2 
REMARK    4  A    between atoms: C_9  and  C_3 
REMARK    5  A    between atoms: N_7  and  C_4 
REMARK    6  A    between atoms: C_25  and  N_16 
ROOT
ATOM      1  C   UNL d   1     -41.682-121.715 -52.306  0.00  0.00     0.128 A 
ATOM      2  C   UNL d   1     -41.751-121.173 -52.919  0.00  0.00     0.166 A 
ATOM      3  N   UNL d   1     -41.508-121.459 -51.547  0.00  0.00    -0.240 NA
ATOM      4  N   UNL d   1     -41.646-120.376 -52.772  0.00  0.00    -0.225 NA
ATOM      5  C   UNL d   1     -41.404-120.660 -51.405  0.00  0.00     0.099 A 
ATOM      6  C   UNL d   1     -41.472-120.115 -52.015  0.00  0.00     0.101 A 
ATOM      7  C   UNL d   1     -41.366-119.312 -51.864  0.00  0.00     0.021 A 
ATOM      8  C   UNL d   1     -41.229-120.405 -50.639  0.00  0.00     0.021 A 
ATOM      9  C   UNL d   1     -41.122-119.601 -50.489  0.00  0.00     0.002 A 
ATOM     10  C   UNL d   1     -41.192-119.059 -51.102  0.00  0.00     0.002 A 
ENDROOT
BRANCH   1  11
ATOM     11  C   UNL d   1     -41.787-122.515 -52.448  0.00  0.00     0.129 C 
BRANCH  11  12
ATOM     12  S   UNL d   1     -41.763-123.079 -51.750  0.00  0.00     0.213 S 
ATOM     13  O   UNL d   1     -41.124-123.302 -52.242  0.00  0.00    -0.217 OA
ATOM     14  O   UNL d   1     -41.123-123.696 -51.735  0.00  0.00    -0.217 OA
BRANCH  12  15
ATOM     15  C   UNL d   1     -42.239-123.156 -51.070  0.00  0.00     0.088 A 
ATOM     16  C   UNL d   1     -41.903-123.414 -50.359  0.00  0.00     0.011 A 
ATOM     17  C   UNL d   1     -42.372-123.491 -49.686  0.00  0.00     0.001 A 
ATOM     18  C   UNL d   1     -42.041-123.747 -48.978  0.00  0.00     0.000 C 
ATOM     19  C   UNL d   1     -43.181-123.309 -49.723  0.00  0.00     0.000 A 
ATOM     20  C   UNL d   1     -43.512-123.052 -50.435  0.00  0.00     0.001 A 
ATOM     21  C   UNL d   1     -43.654-123.386 -49.048  0.00  0.00     0.000 C 
ATOM     22  C   UNL d   1     -43.045-122.974 -51.112  0.00  0.00     0.011 A 
ENDBRANCH  12  15
ENDBRANCH  11  12
BRANCH  11  23
ATOM     23  C   UNL d   1     -41.925-122.943 -53.192  0.00  0.00     0.135 C 
ATOM     24  N   UNL d   1     -41.968-123.817 -53.321  0.00  0.00    -0.146 N 
ENDBRANCH  11  23
ENDBRANCH   1  11
BRANCH   2  25
ATOM     25  N   UNL d   1     -41.929-121.447 -53.688  0.00  0.00    -0.285 N 
ATOM     26  C   UNL d   1     -42.697-121.675 -53.883  0.00  0.00     0.101 A 
ATOM     27  C   UNL d   1     -42.863-121.946 -54.652  0.00  0.00     0.100 A 
ATOM     28  N   UNL d   1     -42.254-121.987 -55.220  0.00  0.00    -0.300 N 
ATOM     29  C   UNL d   1     -41.480-121.757 -55.020  0.00  0.00     0.100 A 
ATOM     30  C   UNL d   1     -41.320-121.488 -54.256  0.00  0.00     0.101 A 
BRANCH  28  31
ATOM     31  C   UNL d   1     -42.425-122.262 -55.995  0.00  0.00     0.080 C 
ATOM     32  C   UNL d   1     -41.962-121.992 -56.634  0.00  0.00     0.021 C 
ENDBRANCH  28  31
ENDBRANCH   2  25
TORSDOF 6
ENDMDL
