MODEL 1
REMARK VINA RESULT:      -4.5      0.000      0.000
REMARK  4 active torsions:
REMARK  status: ('A' for Active; 'I' for Inactive)
REMARK    1  A    between atoms: C_7  and  C_1 
REMARK    2  A    between atoms: C_6  and  C_3 
REMARK    3  A    between atoms: O_15  and  C_8 
REMARK    4  A    between atoms: O_16  and  C_12 
ROOT
ATOM      1  C   UNL d   1      56.667  -0.119  32.238  0.00  0.00     0.042 A 
ATOM      2  C   UNL d   1      57.018   0.258  32.880  0.00  0.00     0.098 A 
ATOM      3  C   UNL d   1      56.599   0.351  33.580  0.00  0.00     0.048 A 
ATOM      4  C   UNL d   1      55.898  -0.402  32.293  0.00  0.00     0.005 A 
ATOM      5  C   UNL d   1      55.824   0.067  33.641  0.00  0.00     0.096 A 
ATOM      6  C   UNL d   1      55.473  -0.311  32.993  0.00  0.00     0.024 A 
ENDROOT
BRANCH   1   7
ATOM      7  C   UNL d   1      57.093  -0.210  31.536  0.00  0.00     0.107 A 
ATOM      8  C   UNL d   1      57.571   0.682  30.533  0.00  0.00     0.048 A 
ATOM      9  C   UNL d   1      57.894   0.042  30.125  0.00  0.00     0.169 A 
ATOM     10  N   UNL d   1      57.821  -0.727  30.413  0.00  0.00    -0.142 NA
ATOM     11  N   UNL d   1      57.417  -0.847  31.124  0.00  0.00    -0.148 NA
BRANCH   9  12
ATOM     12  C   UNL d   1      58.296   0.172  29.414  0.00  0.00     0.231 C 
ATOM     13  O   UNL d   1      59.116   0.086  29.385  0.00  0.00    -0.643 OA
ATOM     14  O   UNL d   1      57.880   0.388  28.737  0.00  0.00    -0.643 OA
ENDBRANCH   9  12
ENDBRANCH   1   7
BRANCH   2  15
ATOM     15  O   UNL d   1      57.793   0.542  32.820  0.00  0.00    -0.328 OA
ATOM     16  C   UNL d   1      58.234   0.681  33.506  0.00  0.00     0.181 C 
ENDBRANCH   2  15
BRANCH   5  17
ATOM     17  O   UNL d   1      55.404   0.160  34.344  0.00  0.00    -0.328 OA
ATOM     18  C   UNL d   1      54.741   0.656  34.369  0.00  0.00     0.181 C 
ENDBRANCH   5  17
TORSDOF 4
ENDMDL
MODEL 2
REMARK VINA RESULT:      -3.7      1.105      1.434
REMARK  4 active torsions:
REMARK  status: ('A' for Active; 'I' for Inactive)
REMARK    1  A    between atoms: C_7  and  C_1 
REMARK    2  A    between atoms: C_6  and  C_3 
REMARK    3  A    between atoms: O_15  and  C_8 
REMARK    4  A    between atoms: O_16  and  C_12 
ROOT
ATOM      1  C   UNL d   1      56.282  -0.295  32.313  0.00  0.00     0.042 A 
ATOM      2  C   UNL d   1      56.003  -0.887  32.812  0.00  0.00     0.098 A 
ATOM      3  C   UNL d   1      55.499  -0.698  33.431  0.00  0.00     0.048 A 
ATOM      4  C   UNL d   1      56.059   0.486  32.431  0.00  0.00     0.005 A 
ATOM      5  C   UNL d   1      55.270   0.089  33.554  0.00  0.00     0.096 A 
ATOM      6  C   UNL d   1      55.552   0.682  33.051  0.00  0.00     0.024 A 
ENDROOT
BRANCH   1   7
ATOM      7  C   UNL d   1      56.789  -0.492  31.692  0.00  0.00     0.107 A 
ATOM      8  C   UNL d   1      57.717   0.234  30.890  0.00  0.00     0.048 A 
ATOM      9  C   UNL d   1      57.896  -0.458  30.478  0.00  0.00     0.169 A 
ATOM     10  N   UNL d   1      57.527  -1.171  30.665  0.00  0.00    -0.142 NA
ATOM     11  N   UNL d   1      56.971  -1.181  31.277  0.00  0.00    -0.148 NA
BRANCH   9  12
ATOM     12  C   UNL d   1      58.453  -0.437  29.868  0.00  0.00     0.231 C 
ATOM     13  O   UNL d   1      58.272  -0.768  29.135  0.00  0.00    -0.643 OA
ATOM     14  O   UNL d   1      59.188  -0.087  29.992  0.00  0.00    -0.643 OA
ENDBRANCH   9  12
ENDBRANCH   1   7
BRANCH   2  15
ATOM     15  O   UNL d   1      56.231  -1.673  32.689  0.00  0.00    -0.328 OA
ATOM     16  C   UNL d   1      55.848  -2.281  33.099  0.00  0.00     0.181 C 
ENDBRANCH   2  15
BRANCH   5  17
ATOM     17  O   UNL d   1      54.764   0.279  34.176  0.00  0.00    -0.328 OA
ATOM     18  C   UNL d   1      55.052   0.681  34.839  0.00  0.00     0.181 C 
ENDBRANCH   5  17
TORSDOF 4
ENDMDL
MODEL 3
REMARK VINA RESULT:      -3.6      1.325      4.101
REMARK  4 active torsions:
REMARK  status: ('A' for Active; 'I' for Inactive)
REMARK    1  A    between atoms: C_7  and  C_1 
REMARK    2  A    between atoms: C_6  and  C_3 
REMARK    3  A    between atoms: O_15  and  C_8 
REMARK    4  A    between atoms: O_16  and  C_12 
ROOT
ATOM      1  C   UNL d   1      57.923   0.307  30.674  0.00  0.00     0.042 A 
ATOM      2  C   UNL d   1      58.675   0.556  30.898  0.00  0.00     0.098 A 
ATOM      3  C   UNL d   1      59.253   0.680  30.329  0.00  0.00     0.048 A 
ATOM      4  C   UNL d   1      57.747   0.183  29.882  0.00  0.00     0.005 A 
ATOM      5  C   UNL d   1      59.080   0.556  29.529  0.00  0.00     0.096 A 
ATOM      6  C   UNL d   1      58.323   0.306  29.306  0.00  0.00     0.024 A 
ENDROOT
BRANCH   1   7
ATOM      7  C   UNL d   1      57.346   0.184  31.251  0.00  0.00     0.107 A 
ATOM      8  C   UNL d   1      56.807  -0.966  31.898  0.00  0.00     0.048 A 
ATOM      9  C   UNL d   1      56.306  -0.479  32.336  0.00  0.00     0.169 A 
ATOM     10  N   UNL d   1      56.317   0.339  32.240  0.00  0.00    -0.142 NA
ATOM     11  N   UNL d   1      56.843   0.667  31.692  0.00  0.00    -0.148 NA
BRANCH   9  12
ATOM     12  C   UNL d   1      55.784  -0.817  32.881  0.00  0.00     0.231 C 
ATOM     13  O   UNL d   1      55.331  -0.331  33.371  0.00  0.00    -0.643 OA
ATOM     14  O   UNL d   1      55.716  -1.635  32.936  0.00  0.00    -0.643 OA
ENDBRANCH   9  12
ENDBRANCH   1   7
BRANCH   2  15
ATOM     15  O   UNL d   1      58.848   0.680  31.698  0.00  0.00    -0.328 OA
ATOM     16  C   UNL d   1      59.635   0.682  31.953  0.00  0.00     0.181 C 
ENDBRANCH   2  15
BRANCH   5  17
ATOM     17  O   UNL d   1      59.661   0.681  28.956  0.00  0.00    -0.328 OA
ATOM     18  C   UNL d   1      60.161   0.062  28.730  0.00  0.00     0.181 C 
ENDBRANCH   5  17
TORSDOF 4
ENDMDL
MODEL 4
REMARK VINA RESULT:      -2.9      1.476      4.357
REMARK  4 active torsions:
REMARK  status: ('A' for Active; 'I' for Inactive)
REMARK    1  A    between atoms: C_7  and  C_1 
REMARK    2  A    between atoms: C_6  and  C_3 
REMARK    3  A    between atoms: O_15  and  C_8 
REMARK    4  A    between atoms: O_16  and  C_12 
ROOT
ATOM      1  C   UNL d   1      58.530   0.355  30.797  0.00  0.00     0.042 A 
ATOM      2  C   UNL d   1      58.352   0.524  30.011  0.00  0.00     0.098 A 
ATOM      3  C   UNL d   1      58.957   0.633  29.468  0.00  0.00     0.048 A 
ATOM      4  C   UNL d   1      59.312   0.295  31.041  0.00  0.00     0.005 A 
ATOM      5  C   UNL d   1      59.747   0.573  29.709  0.00  0.00     0.096 A 
ATOM      6  C   UNL d   1      59.924   0.403  30.499  0.00  0.00     0.024 A 
ENDROOT
BRANCH   1   7
ATOM      7  C   UNL d   1      57.918   0.247  31.340  0.00  0.00     0.107 A 
ATOM      8  C   UNL d   1      56.956  -0.779  31.572  0.00  0.00     0.048 A 
ATOM      9  C   UNL d   1      56.649  -0.341  32.201  0.00  0.00     0.169 A 
ATOM     10  N   UNL d   1      56.968   0.390  32.407  0.00  0.00    -0.142 NA
ATOM     11  N   UNL d   1      57.607   0.681  31.969  0.00  0.00    -0.148 NA
BRANCH   9  12
ATOM     12  C   UNL d   1      56.010  -0.641  32.632  0.00  0.00     0.231 C 
ATOM     13  O   UNL d   1      55.889  -1.456  32.675  0.00  0.00    -0.643 OA
ATOM     14  O   UNL d   1      55.495  -0.127  33.018  0.00  0.00    -0.643 OA
ENDBRANCH   9  12
ENDBRANCH   1   7
BRANCH   2  15
ATOM     15  O   UNL d   1      57.562   0.584  29.771  0.00  0.00    -0.328 OA
ATOM     16  C   UNL d   1      57.384   0.682  28.969  0.00  0.00     0.181 C 
ENDBRANCH   2  15
BRANCH   5  17
ATOM     17  O   UNL d   1      60.355   0.682  29.162  0.00  0.00    -0.328 OA
ATOM     18  C   UNL d   1      61.132   0.478  29.359  0.00  0.00     0.181 C 
ENDBRANCH   5  17
TORSDOF 4
ENDMDL
MODEL 5
REMARK VINA RESULT:      -2.7      1.563      4.316
REMARK  4 active torsions:
REMARK  status: ('A' for Active; 'I' for Inactive)
REMARK    1  A    between atoms: C_7  and  C_1 
REMARK    2  A    between atoms: C_6  and  C_3 
REMARK    3  A    between atoms: O_15  and  C_8 
REMARK    4  A    between atoms: O_16  and  C_12 
ROOT
ATOM      1  C   UNL d   1      58.207  -0.659  30.195  0.00  0.00     0.042 A 
ATOM      2  C   UNL d   1      58.931  -0.318  30.002  0.00  0.00     0.098 A 
ATOM      3  C   UNL d   1      59.447  -0.708  29.497  0.00  0.00     0.048 A 
ATOM      4  C   UNL d   1      57.997  -1.389  29.884  0.00  0.00     0.005 A 
ATOM      5  C   UNL d   1      59.240  -1.445  29.181  0.00  0.00     0.096 A 
ATOM      6  C   UNL d   1      58.511  -1.786  29.376  0.00  0.00     0.024 A 
ENDROOT
BRANCH   1   7
ATOM      7  C   UNL d   1      57.692  -0.262  30.705  0.00  0.00     0.107 A 
ATOM      8  C   UNL d   1      57.292  -0.439  32.061  0.00  0.00     0.048 A 
ATOM      9  C   UNL d   1      56.799   0.220  31.996  0.00  0.00     0.169 A 
ATOM     10  N   UNL d   1      56.746   0.643  31.292  0.00  0.00    -0.142 NA
ATOM     11  N   UNL d   1      57.198   0.396  30.645  0.00  0.00    -0.148 NA
BRANCH   9  12
ATOM     12  C   UNL d   1      56.351   0.459  32.648  0.00  0.00     0.231 C 
ATOM     13  O   UNL d   1      55.528   0.481  32.596  0.00  0.00    -0.643 OA
ATOM     14  O   UNL d   1      56.725   0.676  33.349  0.00  0.00    -0.643 OA
ENDBRANCH   9  12
ENDBRANCH   1   7
BRANCH   2  15
ATOM     15  O   UNL d   1      59.138   0.418  30.319  0.00  0.00    -0.328 OA
ATOM     16  C   UNL d   1      59.921   0.682  30.268  0.00  0.00     0.181 C 
ENDBRANCH   2  15
BRANCH   5  17
ATOM     17  O   UNL d   1      59.758  -1.837  28.673  0.00  0.00    -0.328 OA
ATOM     18  C   UNL d   1      59.866  -2.654  28.740  0.00  0.00     0.181 C 
ENDBRANCH   5  17
TORSDOF 4
ENDMDL
MODEL 6
REMARK VINA RESULT:      -2.7      1.651      4.328
REMARK  4 active torsions:
REMARK  status: ('A' for Active; 'I' for Inactive)
REMARK    1  A    between atoms: C_7  and  C_1 
REMARK    2  A    between atoms: C_6  and  C_3 
REMARK    3  A    between atoms: O_15  and  C_8 
REMARK    4  A    between atoms: O_16  and  C_12 
ROOT
ATOM      1  C   UNL d   1      56.781   0.126  32.594  0.00  0.00     0.042 A 
ATOM      2  C   UNL d   1      56.646  -0.588  32.208  0.00  0.00     0.098 A 
ATOM      3  C   UNL d   1      57.023  -0.748  31.497  0.00  0.00     0.048 A 
ATOM      4  C   UNL d   1      57.292   0.681  32.271  0.00  0.00     0.005 A 
ATOM      5  C   UNL d   1      57.540  -0.191  31.167  0.00  0.00     0.096 A 
ATOM      6  C   UNL d   1      57.674   0.526  31.557  0.00  0.00     0.024 A 
ENDROOT
BRANCH   1   7
ATOM      7  C   UNL d   1      56.399   0.282  33.309  0.00  0.00     0.107 A 
ATOM      8  C   UNL d   1      55.039   0.291  33.736  0.00  0.00     0.048 A 
ATOM      9  C   UNL d   1      55.284   0.504  34.495  0.00  0.00     0.169 A 
ATOM     10  N   UNL d   1      56.082   0.608  34.670  0.00  0.00    -0.142 NA
ATOM     11  N   UNL d   1      56.639   0.495  34.069  0.00  0.00    -0.148 NA
BRANCH   9  12
ATOM     12  C   UNL d   1      54.720   0.615  35.089  0.00  0.00     0.231 C 
ATOM     13  O   UNL d   1      54.957   0.659  35.878  0.00  0.00    -0.643 OA
ATOM     14  O   UNL d   1      53.923   0.682  34.894  0.00  0.00    -0.643 OA
ENDBRANCH   9  12
ENDBRANCH   1   7
BRANCH   2  15
ATOM     15  O   UNL d   1      56.129  -1.145  32.538  0.00  0.00    -0.328 OA
ATOM     16  C   UNL d   1      56.177  -1.938  32.306  0.00  0.00     0.181 C 
ENDBRANCH   2  15
BRANCH   5  17
ATOM     17  O   UNL d   1      57.919  -0.352  30.453  0.00  0.00    -0.328 OA
ATOM     18  C   UNL d   1      57.866   0.184  29.824  0.00  0.00     0.181 C 
ENDBRANCH   5  17
TORSDOF 4
ENDMDL
