MODEL 1
REMARK VINA RESULT:      29.0      0.000      0.000
REMARK  5 active torsions:
REMARK  status: ('A' for Active; 'I' for Inactive)
REMARK    1  A    between atoms: S_8  and  C_2 
REMARK    2  A    between atoms: C_4  and  C_3 
REMARK    3  A    between atoms: C_18  and  S_8 
REMARK    4  A    between atoms: C_9  and  C_18 
REMARK       I    between atoms: N_11  and  C_9 
REMARK    5  A    between atoms: C_13  and  N_11 
ROOT
ATOM      1  C   UNL d   1      13.370  13.784  -3.653  0.00  0.00     0.096 A 
ATOM      2  C   UNL d   1      13.321  13.010  -3.298  0.00  0.00     0.120 A 
ATOM      3  C   UNL d   1      13.248  13.870  -4.473  0.00  0.00     0.085 A 
ATOM      4  N   UNL d   1      13.151  12.365  -3.783  0.00  0.00    -0.238 NA
ATOM      5  C   UNL d   1      13.536  14.442  -3.203  0.00  0.00     0.103 C 
ATOM      6  N   UNL d   1      13.702  15.102  -2.753  0.00  0.00    -0.191 NA
ATOM      7  C   UNL d   1      13.077  13.208  -4.950  0.00  0.00     0.024 A 
ATOM      8  C   UNL d   1      13.028  12.434  -4.595  0.00  0.00     0.082 A 
ATOM      9  C   UNL d   1      12.865  11.780  -5.032  0.00  0.00     0.021 C 
ENDROOT
BRANCH   2  10
ATOM     10  S   UNL d   1      13.445  12.941  -2.485  0.00  0.00    -0.062 SA
BRANCH  10  11
ATOM     11  C   UNL d   1      13.884  12.320  -2.178  0.00  0.00     0.099 C 
BRANCH  11  12
ATOM     12  C   UNL d   1      13.696  12.021  -1.429  0.00  0.00     0.281 C 
ATOM     13  N   UNL d   1      14.275  11.967  -0.864  0.00  0.00    -0.238 NA
ATOM     14  O   UNL d   1      12.917  11.780  -1.262  0.00  0.00    -0.265 OA
BRANCH  13  15
ATOM     15  C   UNL d   1      15.042  12.207  -1.034  0.00  0.00     0.088 C 
ATOM     16  C   UNL d   1      15.825  12.449  -1.214  0.00  0.00     0.025 C 
ATOM     17  C   UNL d   1      15.060  12.634  -0.342  0.00  0.00     0.025 C 
ATOM     18  C   UNL d   1      15.009  11.779  -1.717  0.00  0.00     0.025 C 
ENDBRANCH  13  15
ENDBRANCH  11  12
ENDBRANCH  10  11
ENDBRANCH   2  10
BRANCH   3  19
ATOM     19  C   UNL d   1      13.295  14.614  -4.814  0.00  0.00     0.419 C 
ATOM     20  F   UNL d   1      13.342  15.351  -5.152  0.00  0.00    -0.166 F 
ATOM     21  F   UNL d   1      13.650  14.285  -5.482  0.00  0.00    -0.166 F 
ATOM     22  F   UNL d   1      12.940  14.943  -4.144  0.00  0.00    -0.166 F 
ENDBRANCH   3  19
TORSDOF 5
ENDMDL
MODEL 2
REMARK VINA RESULT:      31.4      2.071      3.664
REMARK  5 active torsions:
REMARK  status: ('A' for Active; 'I' for Inactive)
REMARK    1  A    between atoms: S_8  and  C_2 
REMARK    2  A    between atoms: C_4  and  C_3 
REMARK    3  A    between atoms: C_18  and  S_8 
REMARK    4  A    between atoms: C_9  and  C_18 
REMARK       I    between atoms: N_11  and  C_9 
REMARK    5  A    between atoms: C_13  and  N_11 
ROOT
ATOM      1  C   UNL d   1      14.560  14.082  -1.369  0.00  0.00     0.096 A 
ATOM      2  C   UNL d   1      14.160  13.366  -1.604  0.00  0.00     0.120 A 
ATOM      3  C   UNL d   1      15.033  14.084  -0.682  0.00  0.00     0.085 A 
ATOM      4  N   UNL d   1      14.255  12.692  -1.139  0.00  0.00    -0.238 NA
ATOM      5  C   UNL d   1      14.488  14.765  -1.805  0.00  0.00     0.103 C 
ATOM      6  N   UNL d   1      14.415  15.450  -2.242  0.00  0.00    -0.191 NA
ATOM      7  C   UNL d   1      15.119  13.393  -0.223  0.00  0.00     0.024 A 
ATOM      8  C   UNL d   1      14.719  12.678  -0.458  0.00  0.00     0.082 A 
ATOM      9  C   UNL d   1      14.785  11.999  -0.033  0.00  0.00     0.021 C 
ENDROOT
BRANCH   2  10
ATOM     10  S   UNL d   1      13.696  13.380  -2.286  0.00  0.00    -0.062 SA
BRANCH  10  11
ATOM     11  C   UNL d   1      13.824  12.843  -2.892  0.00  0.00     0.099 C 
BRANCH  11  12
ATOM     12  C   UNL d   1      13.292  12.217  -2.999  0.00  0.00     0.281 C 
ATOM     13  N   UNL d   1      13.035  12.035  -3.747  0.00  0.00    -0.238 NA
ATOM     14  O   UNL d   1      13.026  11.781  -2.341  0.00  0.00    -0.265 OA
BRANCH  13  15
ATOM     15  C   UNL d   1      13.301  12.468  -4.392  0.00  0.00     0.088 C 
ATOM     16  C   UNL d   1      13.575  12.906  -5.053  0.00  0.00     0.025 C 
ATOM     17  C   UNL d   1      12.955  13.137  -4.082  0.00  0.00     0.025 C 
ATOM     18  C   UNL d   1      13.637  11.798  -4.686  0.00  0.00     0.025 C 
ENDBRANCH  13  15
ENDBRANCH  11  12
ENDBRANCH  10  11
ENDBRANCH   2  10
BRANCH   3  19
ATOM     19  C   UNL d   1      15.417  14.771  -0.457  0.00  0.00     0.419 C 
ATOM     20  F   UNL d   1      15.798  15.454  -0.233  0.00  0.00    -0.166 F 
ATOM     21  F   UNL d   1      16.123  14.479  -0.769  0.00  0.00    -0.166 F 
ATOM     22  F   UNL d   1      14.710  15.064  -0.144  0.00  0.00    -0.166 F 
ENDBRANCH   3  19
TORSDOF 5
ENDMDL
