MODEL 1
REMARK VINA RESULT:      10.7      0.000      0.000
REMARK  5 active torsions:
REMARK  status: ('A' for Active; 'I' for Inactive)
REMARK    1  A    between atoms: C_10  and  N_1 
REMARK    2  A    between atoms: C_7  and  C_2 
REMARK    3  A    between atoms: C_3  and  C_11 
REMARK    4  A    between atoms: O_14  and  C_10 
REMARK    5  A    between atoms: C_11  and  O_14 
ROOT
ATOM      1  C   UNL d   1      56.832  -0.609  32.082  0.00  0.00     0.305 C 
ATOM      2  O   UNL d   1      57.071  -1.191  32.623  0.00  0.00    -0.259 OA
ENDROOT
BRANCH   1   3
ATOM      3  C   UNL d   1      56.138  -0.189  32.209  0.00  0.00     0.108 A 
ATOM      4  C   UNL d   1      55.616  -0.286  32.845  0.00  0.00     0.118 A 
ATOM      5  N   UNL d   1      54.995   0.241  32.759  0.00  0.00    -0.126 NA
ATOM      6  O   UNL d   1      55.135   0.671  32.059  0.00  0.00    -0.211 OA
ATOM      7  C   UNL d   1      55.838   0.402  31.726  0.00  0.00     0.132 A 
ATOM      8  C   UNL d   1      56.175   0.680  31.034  0.00  0.00     0.029 C 
BRANCH   4   9
ATOM      9  C   UNL d   1      55.702  -0.823  33.465  0.00  0.00     0.058 A 
ATOM     10  C   UNL d   1      56.038  -0.585  34.174  0.00  0.00     0.061 A 
ATOM     11 CL   UNL d   1      56.396   0.057  34.642  0.00  0.00    -0.082 Cl
ATOM     12  C   UNL d   1      56.126  -1.115  34.794  0.00  0.00     0.012 A 
ATOM     13  C   UNL d   1      55.874  -1.891  34.700  0.00  0.00     0.003 A 
ATOM     14  C   UNL d   1      55.529  -2.142  33.979  0.00  0.00     0.030 A 
ATOM     15  C   UNL d   1      55.448  -1.605  33.371  0.00  0.00     0.142 A 
ATOM     16  F   UNL d   1      55.112  -1.835  32.657  0.00  0.00    -0.204 F 
ENDBRANCH   4   9
ENDBRANCH   1   3
BRANCH   1  17
ATOM     17  O   UNL d   1      57.298  -0.453  31.411  0.00  0.00    -0.252 OA
BRANCH  17  18
ATOM     18  C   UNL d   1      58.093  -0.689  31.398  0.00  0.00     0.216 C 
BRANCH  18  19
ATOM     19  N   UNL d   1      58.576  -0.473  30.760  0.00  0.00    -0.218 N 
ATOM     20  C   UNL d   1      59.107   0.151  30.746  0.00  0.00     0.269 A 
ATOM     21  C   UNL d   1      59.471   0.168  30.005  0.00  0.00     0.061 A 
ATOM     22  O   UNL d   1      59.257   0.678  31.372  0.00  0.00    -0.267 OA
ATOM     23  C   UNL d   1      60.044   0.664  29.676  0.00  0.00     0.005 A 
ATOM     24  C   UNL d   1      59.156  -0.457  29.555  0.00  0.00     0.061 A 
ATOM     25  C   UNL d   1      60.302   0.540  28.906  0.00  0.00     0.000 A 
ATOM     26  C   UNL d   1      59.987  -0.086  28.456  0.00  0.00     0.000 A 
ATOM     27  C   UNL d   1      59.417  -0.580  28.781  0.00  0.00     0.005 A 
ATOM     28  C   UNL d   1      58.599  -0.859  30.019  0.00  0.00     0.269 A 
ATOM     29  O   UNL d   1      58.154  -1.512  29.797  0.00  0.00    -0.267 OA
ENDBRANCH  18  19
ENDBRANCH  17  18
ENDBRANCH   1  17
TORSDOF 5
ENDMDL
MODEL 2
REMARK VINA RESULT:      13.4      8.825      9.907
REMARK  5 active torsions:
REMARK  status: ('A' for Active; 'I' for Inactive)
REMARK    1  A    between atoms: C_10  and  N_1 
REMARK    2  A    between atoms: C_7  and  C_2 
REMARK    3  A    between atoms: C_3  and  C_11 
REMARK    4  A    between atoms: O_14  and  C_10 
REMARK    5  A    between atoms: C_11  and  O_14 
ROOT
ATOM      1  C   UNL d   1      59.357  -9.550  32.123  0.00  0.00     0.305 C 
ATOM      2  O   UNL d   1      58.572  -9.818  32.132  0.00  0.00    -0.259 OA
ENDROOT
BRANCH   1   3
ATOM      3  C   UNL d   1      59.768  -9.502  31.413  0.00  0.00     0.108 A 
ATOM      4  C   UNL d   1      59.434  -9.470  30.655  0.00  0.00     0.118 A 
ATOM      5  N   UNL d   1      60.038  -9.426  30.103  0.00  0.00    -0.126 NA
ATOM      6  O   UNL d   1      60.755  -9.430  30.527  0.00  0.00    -0.211 OA
ATOM      7  C   UNL d   1      60.583  -9.477  31.330  0.00  0.00     0.132 A 
ATOM      8  C   UNL d   1      61.133  -9.494  31.935  0.00  0.00     0.029 C 
BRANCH   4   9
ATOM      9  C   UNL d   1      58.628  -9.481  30.479  0.00  0.00     0.058 A 
ATOM     10  C   UNL d   1      58.374  -9.633  29.714  0.00  0.00     0.061 A 
ATOM     11 CL   UNL d   1      58.587  -9.812  28.888  0.00  0.00    -0.082 Cl
ATOM     12  C   UNL d   1      57.575  -9.646  29.534  0.00  0.00     0.012 A 
ATOM     13  C   UNL d   1      57.025  -9.504  30.128  0.00  0.00     0.003 A 
ATOM     14  C   UNL d   1      57.276  -9.348  30.911  0.00  0.00     0.030 A 
ATOM     15  C   UNL d   1      58.075  -9.339  31.077  0.00  0.00     0.142 A 
ATOM     16  F   UNL d   1      58.337  -9.188  31.841  0.00  0.00    -0.204 F 
ENDBRANCH   4   9
ENDBRANCH   1   3
BRANCH   1  17
ATOM     17  O   UNL d   1      59.726  -9.329  32.835  0.00  0.00    -0.252 OA
BRANCH  17  18
ATOM     18  C   UNL d   1      59.266  -9.177  33.508  0.00  0.00     0.216 C 
BRANCH  18  19
ATOM     19  N   UNL d   1      59.612  -8.821  34.170  0.00  0.00    -0.218 N 
ATOM     20  C   UNL d   1      59.339  -8.151  34.556  0.00  0.00     0.269 A 
ATOM     21  C   UNL d   1      59.847  -7.986  35.186  0.00  0.00     0.061 A 
ATOM     22  O   UNL d   1      58.664  -7.711  34.349  0.00  0.00    -0.267 OA
ATOM     23  C   UNL d   1      59.850  -7.391  35.758  0.00  0.00     0.005 A 
ATOM     24  C   UNL d   1      60.443  -8.566  35.187  0.00  0.00     0.061 A 
ATOM     25  C   UNL d   1      60.443  -7.372  36.328  0.00  0.00     0.000 A 
ATOM     26  C   UNL d   1      61.039  -7.952  36.329  0.00  0.00     0.000 A 
ATOM     27  C   UNL d   1      61.038  -8.545  35.761  0.00  0.00     0.005 A 
ATOM     28  C   UNL d   1      60.303  -9.088  34.558  0.00  0.00     0.269 A 
ATOM     29  O   UNL d   1      60.753  -9.742  34.352  0.00  0.00    -0.267 OA
ENDBRANCH  18  19
ENDBRANCH  17  18
ENDBRANCH   1  17
TORSDOF 5
ENDMDL
