MODEL 1
REMARK VINA RESULT:      66.2      0.000      0.000
REMARK  8 active torsions:
REMARK  status: ('A' for Active; 'I' for Inactive)
REMARK    1  A    between atoms: C_6  and  N_1 
REMARK    2  A    between atoms: C_15  and  N_2 
REMARK    3  A    between atoms: C_8  and  C_3 
REMARK    4  A    between atoms: O_23  and  C_5 
REMARK    5  A    between atoms: C_7  and  O_9 
REMARK    6  A    between atoms: O_9  and  C_21 
REMARK    7  A    between atoms: C_20  and  C_15 
REMARK    8  A    between atoms: C_21  and  C_20 
ROOT
ATOM      1  C   UNL d   1      13.963  15.510  -5.397  0.00  0.00     0.238 C 
ATOM      2  O   UNL d   1      14.422  14.906  -5.721  0.00  0.00    -0.283 OA
ENDROOT
BRANCH   1   3
ATOM      3  C   UNL d   1      13.399  15.340  -4.819  0.00  0.00     0.125 C 
BRANCH   3   4
ATOM      4  N   UNL d   1      13.587  14.837  -4.183  0.00  0.00    -0.297 N 
ATOM      5  C   UNL d   1      13.444  14.024  -4.264  0.00  0.00     0.100 A 
ATOM      6  C   UNL d   1      13.626  13.515  -3.640  0.00  0.00     0.100 A 
ATOM      7  N   UNL d   1      13.950  13.819  -2.942  0.00  0.00    -0.301 N 
ATOM      8  C   UNL d   1      14.092  14.632  -2.866  0.00  0.00     0.100 A 
ATOM      9  C   UNL d   1      13.907  15.147  -3.497  0.00  0.00     0.100 A 
BRANCH   7  10
ATOM     10  C   UNL d   1      14.132  13.310  -2.319  0.00  0.00     0.064 A 
ATOM     11  C   UNL d   1      13.913  12.516  -2.356  0.00  0.00     0.020 A 
ATOM     12  C   UNL d   1      14.094  12.002  -1.732  0.00  0.00     0.031 A 
ATOM     13  C   UNL d   1      14.495  12.292  -1.075  0.00  0.00     0.140 A 
ATOM     14  C   UNL d   1      14.716  13.091  -1.037  0.00  0.00     0.031 A 
ATOM     15  F   UNL d   1      14.678  11.783  -0.452  0.00  0.00    -0.204 F 
ATOM     16  C   UNL d   1      14.531  13.592  -1.662  0.00  0.00     0.020 A 
ENDBRANCH   7  10
ENDBRANCH   3   4
ENDBRANCH   1   3
BRANCH   1  17
ATOM     17  C   UNL d   1      14.068  16.302  -5.652  0.00  0.00     0.166 C 
BRANCH  17  18
ATOM     18  O   UNL d   1      13.435  16.849  -5.598  0.00  0.00    -0.300 OA
BRANCH  18  19
ATOM     19  C   UNL d   1      13.541  17.664  -5.758  0.00  0.00     0.122 A 
ATOM     20  C   UNL d   1      14.231  18.039  -5.532  0.00  0.00     0.117 A 
ATOM     21  C   UNL d   1      14.336  18.837  -5.687  0.00  0.00     0.029 A 
ATOM     22  C   UNL d   1      13.743  19.262  -6.074  0.00  0.00     0.041 A 
ATOM     23  C   UNL d   1      13.054  18.887  -6.301  0.00  0.00     0.005 A 
ATOM     24  C   UNL d   1      12.944  18.079  -6.145  0.00  0.00     0.027 A 
BRANCH  20  25
ATOM     25  O   UNL d   1      14.819  17.614  -5.147  0.00  0.00    -0.326 OA
ATOM     26  C   UNL d   1      15.499  17.998  -4.881  0.00  0.00     0.181 C 
ENDBRANCH  20  25
BRANCH  22  27
ATOM     27  C   UNL d   1      13.847  20.064  -6.232  0.00  0.00     0.196 C 
ATOM     28  O   UNL d   1      14.605  20.390  -6.232  0.00  0.00    -0.287 OA
ATOM     29  C   UNL d   1      13.194  20.539  -6.388  0.00  0.00     0.045 C 
ENDBRANCH  22  27
ENDBRANCH  18  19
ENDBRANCH  17  18
ENDBRANCH   1  17
TORSDOF 8
ENDMDL
