MODEL 1
REMARK VINA RESULT:      -1.9      0.000      0.000
REMARK  3 active torsions:
REMARK  status: ('A' for Active; 'I' for Inactive)
REMARK    1  A    between atoms: N_7  and  C_1 
REMARK    2  A    between atoms: C_11  and  N_3 
REMARK       I    between atoms: C_9  and  N_7 
REMARK    3  A    between atoms: C_12  and  C_9 
ROOT
ATOM      1  C   UNL d   1      31.791  16.693 -23.873  0.00  0.00     0.165 A 
ATOM      2  C   UNL d   1      31.677  17.356 -24.263  0.00  0.00     0.067 A 
ATOM      3  N   UNL d   1      32.525  16.693 -23.614  0.00  0.00    -0.238 N 
ATOM      4  C   UNL d   1      32.345  17.768 -24.246  0.00  0.00     0.116 A 
ATOM      5  N   UNL d   1      32.865  17.356 -23.845  0.00  0.00    -0.168 NA
ATOM      6  S   UNL d   1      31.488  18.427 -24.896  0.00  0.00     0.213 S 
ATOM      7  C   UNL d   1      32.225  18.427 -24.637  0.00  0.00     0.120 A 
ATOM      8  C   UNL d   1      31.150  17.764 -24.664  0.00  0.00     0.103 A 
ATOM      9  O   UNL d   1      31.892  19.059 -25.088  0.00  0.00    -0.217 OA
ATOM     10  O   UNL d   1      30.847  18.379 -25.097  0.00  0.00    -0.217 OA
ENDROOT
BRANCH   1  11
ATOM     11  N   UNL d   1      31.133  16.462 -23.982  0.00  0.00    -0.189 NA
ATOM     12  C   UNL d   1      30.472  15.892 -23.480  0.00  0.00     0.281 C 
ATOM     13  O   UNL d   1      30.641  15.591 -22.799  0.00  0.00    -0.265 OA
BRANCH  12  14
ATOM     14  C   UNL d   1      29.734  15.747 -23.810  0.00  0.00     0.058 A 
ATOM     15  C   UNL d   1      29.055  15.697 -23.311  0.00  0.00     0.005 A 
ATOM     16  C   UNL d   1      29.128  15.793 -22.494  0.00  0.00     0.000 C 
ATOM     17  C   UNL d   1      28.306  15.550 -23.649  0.00  0.00     0.000 A 
ATOM     18  C   UNL d   1      28.237  15.453 -24.479  0.00  0.00     0.000 A 
ATOM     19  C   UNL d   1      28.912  15.504 -24.958  0.00  0.00     0.000 A 
ATOM     20  C   UNL d   1      29.662  15.651 -24.625  0.00  0.00     0.005 A 
ENDBRANCH  12  14
ENDBRANCH   1  11
BRANCH   3  21
ATOM     21  C   UNL d   1      32.886  16.089 -23.168  0.00  0.00     0.088 C 
ATOM     22  C   UNL d   1      33.001  16.073 -22.342  0.00  0.00     0.025 C 
ATOM     23  C   UNL d   1      33.142  15.456 -23.639  0.00  0.00     0.025 C 
ATOM     24  C   UNL d   1      33.222  15.557 -22.635  0.00  0.00     0.025 C 
ENDBRANCH   3  21
TORSDOF 3
ENDMDL
MODEL 2
REMARK VINA RESULT:      -0.0      4.191      5.607
REMARK  3 active torsions:
REMARK  status: ('A' for Active; 'I' for Inactive)
REMARK    1  A    between atoms: N_7  and  C_1 
REMARK    2  A    between atoms: C_11  and  N_3 
REMARK       I    between atoms: C_9  and  N_7 
REMARK    3  A    between atoms: C_12  and  C_9 
ROOT
ATOM      1  C   UNL d   1      32.883  21.899 -22.283  0.00  0.00     0.165 A 
ATOM      2  C   UNL d   1      32.984  22.277 -22.955  0.00  0.00     0.067 A 
ATOM      3  N   UNL d   1      32.787  22.430 -21.723  0.00  0.00    -0.238 N 
ATOM      4  C   UNL d   1      32.950  23.048 -22.809  0.00  0.00     0.116 A 
ATOM      5  N   UNL d   1      32.828  23.139 -22.049  0.00  0.00    -0.168 NA
ATOM      6  S   UNL d   1      33.148  22.885 -24.044  0.00  0.00     0.213 S 
ATOM      7  C   UNL d   1      33.051  23.420 -23.483  0.00  0.00     0.120 A 
ATOM      8  C   UNL d   1      33.106  22.180 -23.717  0.00  0.00     0.103 A 
ATOM      9  O   UNL d   1      33.177  23.618 -24.294  0.00  0.00    -0.217 OA
ATOM     10  O   UNL d   1      33.226  22.388 -24.492  0.00  0.00    -0.217 OA
ENDROOT
BRANCH   1  11
ATOM     11  N   UNL d   1      32.940  21.261 -22.581  0.00  0.00    -0.189 NA
ATOM     12  C   UNL d   1      32.612  20.332 -22.372  0.00  0.00     0.281 C 
ATOM     13  O   UNL d   1      32.187  20.188 -21.754  0.00  0.00    -0.265 OA
BRANCH  12  14
ATOM     14  C   UNL d   1      32.806  19.714 -22.879  0.00  0.00     0.058 A 
ATOM     15  C   UNL d   1      33.044  18.971 -22.558  0.00  0.00     0.005 A 
ATOM     16  C   UNL d   1      33.084  18.861 -21.741  0.00  0.00     0.000 C 
ATOM     17  C   UNL d   1      33.241  18.345 -23.074  0.00  0.00     0.000 A 
ATOM     18  C   UNL d   1      33.198  18.462 -23.904  0.00  0.00     0.000 A 
ATOM     19  C   UNL d   1      32.962  19.197 -24.205  0.00  0.00     0.000 A 
ATOM     20  C   UNL d   1      32.766  19.825 -23.693  0.00  0.00     0.005 A 
ENDBRANCH  12  14
ENDBRANCH   1  11
BRANCH   3  21
ATOM     21  C   UNL d   1      32.661  22.272 -20.915  0.00  0.00     0.088 C 
ATOM     22  C   UNL d   1      33.237  22.069 -20.345  0.00  0.00     0.025 C 
ATOM     23  C   UNL d   1      31.863  22.335 -20.700  0.00  0.00     0.025 C 
ATOM     24  C   UNL d   1      32.650  22.098 -20.108  0.00  0.00     0.025 C 
ENDBRANCH   3  21
TORSDOF 3
ENDMDL
MODEL 3
REMARK VINA RESULT:       0.7      4.503      6.056
REMARK  3 active torsions:
REMARK  status: ('A' for Active; 'I' for Inactive)
REMARK    1  A    between atoms: N_7  and  C_1 
REMARK    2  A    between atoms: C_11  and  N_3 
REMARK       I    between atoms: C_9  and  N_7 
REMARK    3  A    between atoms: C_12  and  C_9 
ROOT
ATOM      1  C   UNL d   1      33.013  20.942 -22.577  0.00  0.00     0.165 A 
ATOM      2  C   UNL d   1      33.076  21.490 -23.126  0.00  0.00     0.067 A 
ATOM      3  N   UNL d   1      33.016  20.249 -22.931  0.00  0.00    -0.238 N 
ATOM      4  C   UNL d   1      33.118  21.132 -23.824  0.00  0.00     0.116 A 
ATOM      5  N   UNL d   1      33.081  20.367 -23.700  0.00  0.00    -0.168 NA
ATOM      6  S   UNL d   1      33.177  22.378 -24.011  0.00  0.00     0.213 S 
ATOM      7  C   UNL d   1      33.181  21.683 -24.367  0.00  0.00     0.120 A 
ATOM      8  C   UNL d   1      33.112  22.257 -23.244  0.00  0.00     0.103 A 
ATOM      9  O   UNL d   1      33.240  22.416 -24.782  0.00  0.00    -0.217 OA
ATOM     10  O   UNL d   1      33.170  22.952 -23.658  0.00  0.00    -0.217 OA
ENDROOT
BRANCH   1  11
ATOM     11  N   UNL d   1      32.988  21.410 -22.048  0.00  0.00    -0.189 NA
ATOM     12  C   UNL d   1      32.353  21.620 -21.296  0.00  0.00     0.281 C 
ATOM     13  O   UNL d   1      31.708  21.223 -21.195  0.00  0.00    -0.265 OA
BRANCH  12  14
ATOM     14  C   UNL d   1      32.532  22.233 -20.779  0.00  0.00     0.058 A 
ATOM     15  C   UNL d   1      32.864  22.058 -20.023  0.00  0.00     0.005 A 
ATOM     16  C   UNL d   1      33.010  21.276 -19.801  0.00  0.00     0.000 C 
ATOM     17  C   UNL d   1      33.045  22.682 -19.499  0.00  0.00     0.000 A 
ATOM     18  C   UNL d   1      32.895  23.475 -19.729  0.00  0.00     0.000 A 
ATOM     19  C   UNL d   1      32.568  23.632 -20.474  0.00  0.00     0.000 A 
ATOM     20  C   UNL d   1      32.386  23.012 -21.001  0.00  0.00     0.005 A 
ENDBRANCH  12  14
ENDBRANCH   1  11
BRANCH   3  21
ATOM     21  C   UNL d   1      32.960  19.508 -22.555  0.00  0.00     0.088 C 
ATOM     22  C   UNL d   1      33.240  19.305 -21.796  0.00  0.00     0.025 C 
ATOM     23  C   UNL d   1      32.575  18.943 -23.024  0.00  0.00     0.025 C 
ATOM     24  C   UNL d   1      32.958  18.823 -22.095  0.00  0.00     0.025 C 
ENDBRANCH   3  21
TORSDOF 3
ENDMDL
