MODEL 1
REMARK VINA RESULT:      -4.3      0.000      0.000
REMARK  4 active torsions:
REMARK  status: ('A' for Active; 'I' for Inactive)
REMARK    1  A    between atoms: S_7  and  C_1 
REMARK       I    between atoms: N_5  and  C_9 
REMARK    2  A    between atoms: C_10  and  S_7 
REMARK    3  A    between atoms: C_15  and  N_8 
REMARK    4  A    between atoms: C_9  and  C_10 
ROOT
ATOM      1  N   UNL d   1     -41.682-122.145 -51.642  0.00  0.00    -0.269 N 
ATOM      2  N   UNL d   1     -41.798-122.144 -53.293  0.00  0.00    -0.301 N 
ATOM      3  C   UNL d   1     -41.619-122.142 -50.811  0.00  0.00     0.271 C 
ATOM      4  C   UNL d   1     -42.177-122.688 -52.024  0.00  0.00     0.102 A 
ATOM      5  C   UNL d   1     -41.243-121.601 -52.082  0.00  0.00     0.102 A 
ATOM      6  C   UNL d   1     -41.304-121.603 -52.906  0.00  0.00     0.100 A 
ATOM      7  C   UNL d   1     -42.235-122.688 -52.842  0.00  0.00     0.100 A 
ATOM      8  O   UNL d   1     -41.123-121.597 -50.434  0.00  0.00    -0.266 OA
ENDROOT
BRANCH   3   9
ATOM      9  C   UNL d   1     -42.061-122.689 -50.374  0.00  0.00     0.097 C 
BRANCH   9  10
ATOM     10  S   UNL d   1     -41.701-123.082 -49.742  0.00  0.00    -0.080 SA
BRANCH  10  11
ATOM     11  C   UNL d   1     -42.167-123.333 -49.100  0.00  0.00     0.049 A 
ATOM     12  C   UNL d   1     -42.932-123.630 -49.142  0.00  0.00     0.087 A 
ATOM     13  N   UNL d   1     -43.183-123.810 -48.378  0.00  0.00    -0.245 NA
ATOM     14  C   UNL d   1     -43.367-123.729 -49.835  0.00  0.00     0.021 C 
ATOM     15  C   UNL d   1     -42.558-123.618 -47.863  0.00  0.00     0.082 A 
ATOM     16  C   UNL d   1     -41.934-123.324 -48.314  0.00  0.00     0.025 A 
ATOM     17  C   UNL d   1     -42.486-123.676 -47.042  0.00  0.00     0.019 A 
ATOM     18  C   UNL d   1     -41.240-123.089 -47.943  0.00  0.00     0.002 A 
ATOM     19  C   UNL d   1     -41.157-123.143 -47.125  0.00  0.00     0.000 A 
ATOM     20  C   UNL d   1     -41.794-123.442 -46.676  0.00  0.00     0.002 A 
ENDBRANCH  10  11
ENDBRANCH   9  10
ENDBRANCH   3   9
BRANCH   2  21
ATOM     21  C   UNL d   1     -41.853-122.140 -54.113  0.00  0.00     0.064 A 
ATOM     22  C   UNL d   1     -41.378-122.646 -54.561  0.00  0.00     0.018 A 
ATOM     23  C   UNL d   1     -41.437-122.638 -55.393  0.00  0.00     0.002 A 
ATOM     24  C   UNL d   1     -41.969-122.124 -55.764  0.00  0.00     0.000 A 
ATOM     25  C   UNL d   1     -42.441-121.621 -55.314  0.00  0.00     0.002 A 
ATOM     26  C   UNL d   1     -42.382-121.629 -54.496  0.00  0.00     0.018 A 
ENDBRANCH   2  21
TORSDOF 4
ENDMDL
MODEL 2
REMARK VINA RESULT:      -3.8      1.179      5.832
REMARK  4 active torsions:
REMARK  status: ('A' for Active; 'I' for Inactive)
REMARK    1  A    between atoms: S_7  and  C_1 
REMARK       I    between atoms: N_5  and  C_9 
REMARK    2  A    between atoms: C_10  and  S_7 
REMARK    3  A    between atoms: C_15  and  N_8 
REMARK    4  A    between atoms: C_9  and  C_10 
ROOT
ATOM      1  N   UNL d   1     -41.536-123.133 -50.851  0.00  0.00    -0.269 N 
ATOM      2  N   UNL d   1     -41.772-123.135 -49.214  0.00  0.00    -0.301 N 
ATOM      3  C   UNL d   1     -41.415-123.137 -51.675  0.00  0.00     0.271 C 
ATOM      4  C   UNL d   1     -41.827-122.456 -50.473  0.00  0.00     0.102 A 
ATOM      5  C   UNL d   1     -41.361-123.811 -50.414  0.00  0.00     0.102 A 
ATOM      6  C   UNL d   1     -41.480-123.809 -49.597  0.00  0.00     0.100 A 
ATOM      7  C   UNL d   1     -41.945-122.457 -49.661  0.00  0.00     0.100 A 
ATOM      8  O   UNL d   1     -41.123-123.815 -52.050  0.00  0.00    -0.266 OA
ENDROOT
BRANCH   3   9
ATOM      9  C   UNL d   1     -41.591-122.454 -52.110  0.00  0.00     0.097 C 
BRANCH   9  10
ATOM     10  S   UNL d   1     -41.198-122.320 -52.824  0.00  0.00    -0.080 SA
BRANCH  10  11
ATOM     11  C   UNL d   1     -41.602-121.946 -53.448  0.00  0.00     0.049 A 
ATOM     12  C   UNL d   1     -41.894-121.179 -53.446  0.00  0.00     0.087 A 
ATOM     13  N   UNL d   1     -42.254-121.035 -54.174  0.00  0.00    -0.245 NA
ATOM     14  C   UNL d   1     -41.835-120.648 -52.818  0.00  0.00     0.021 C 
ATOM     15  C   UNL d   1     -42.176-121.730 -54.626  0.00  0.00     0.082 A 
ATOM     16  C   UNL d   1     -41.773-122.288 -54.173  0.00  0.00     0.025 A 
ATOM     17  C   UNL d   1     -42.425-121.916 -55.392  0.00  0.00     0.019 A 
ATOM     18  C   UNL d   1     -41.620-123.031 -54.487  0.00  0.00     0.002 A 
ATOM     19  C   UNL d   1     -41.863-123.228 -55.249  0.00  0.00     0.000 A 
ATOM     20  C   UNL d   1     -42.270-122.657 -55.701  0.00  0.00     0.002 A 
ENDBRANCH  10  11
ENDBRANCH   9  10
ENDBRANCH   3   9
BRANCH   2  21
ATOM     21  C   UNL d   1     -41.888-123.141 -48.399  0.00  0.00     0.064 A 
ATOM     22  C   UNL d   1     -42.652-123.088 -48.091  0.00  0.00     0.018 A 
ATOM     23  C   UNL d   1     -42.766-123.094 -47.265  0.00  0.00     0.002 A 
ATOM     24  C   UNL d   1     -42.112-123.153 -46.760  0.00  0.00     0.000 A 
ATOM     25  C   UNL d   1     -41.352-123.205 -47.071  0.00  0.00     0.002 A 
ATOM     26  C   UNL d   1     -41.242-123.199 -47.884  0.00  0.00     0.018 A 
ENDBRANCH   2  21
TORSDOF 4
ENDMDL
