MODEL 1
REMARK VINA RESULT:      -2.9      0.000      0.000
REMARK  2 active torsions:
REMARK  status: ('A' for Active; 'I' for Inactive)
REMARK    1  A    between atoms: N_7  and  C_3 
REMARK       I    between atoms: C_8  and  N_7 
REMARK    2  A    between atoms: C_9  and  C_8 
ROOT
ATOM      1  N   UNL d   1      33.236  20.734 -22.262  0.00  0.00    -0.190 NA
ATOM      2  C   UNL d   1      32.649  20.872 -21.700  0.00  0.00     0.281 C 
ATOM      3  O   UNL d   1      32.060  20.310 -21.571  0.00  0.00    -0.265 OA
ENDROOT
BRANCH   1   4
ATOM      4  C   UNL d   1      33.234  20.030 -22.697  0.00  0.00     0.159 A 
ATOM      5  N   UNL d   1      33.236  20.051 -23.519  0.00  0.00    -0.241 N 
ATOM      6  C   UNL d   1      33.234  19.355 -23.949  0.00  0.00     0.343 A 
ATOM      7  C   UNL d   1      33.240  20.778 -23.911  0.00  0.00     0.105 C 
ATOM      8  N   UNL d   1      33.230  18.629 -23.557  0.00  0.00    -0.224 N 
ATOM      9  O   UNL d   1      33.236  19.378 -24.776  0.00  0.00    -0.245 OA
ATOM     10  C   UNL d   1      33.228  18.590 -22.731  0.00  0.00     0.271 A 
ATOM     11  C   UNL d   1      33.228  17.925 -23.992  0.00  0.00     0.107 C 
ATOM     12  C   UNL d   1      33.230  19.304 -22.305  0.00  0.00     0.099 A 
ATOM     13  O   UNL d   1      33.224  17.871 -22.343  0.00  0.00    -0.266 OA
ENDBRANCH   1   4
BRANCH   2  14
ATOM     14  C   UNL d   1      32.652  21.574 -21.267  0.00  0.00     0.069 A 
ATOM     15  C   UNL d   1      32.929  21.567 -20.516  0.00  0.00     0.062 A 
ATOM     16  C   UNL d   1      32.939  22.257 -20.072  0.00  0.00     0.012 A 
ATOM     17 CL   UNL d   1      33.210  20.860 -20.178  0.00  0.00    -0.082 Cl
ATOM     18  C   UNL d   1      32.662  22.960 -20.403  0.00  0.00     0.008 A 
ATOM     19  C   UNL d   1      32.383  22.958 -21.166  0.00  0.00     0.035 A 
ATOM     20  C   UNL d   1      32.371  22.268 -21.614  0.00  0.00     0.012 A 
ATOM     21 BR   UNL d   1      32.102  23.677 -21.497  0.00  0.00    -0.049 Br
ENDBRANCH   2  14
TORSDOF 2
ENDMDL
MODEL 2
REMARK VINA RESULT:      -2.0      2.095      4.296
REMARK  2 active torsions:
REMARK  status: ('A' for Active; 'I' for Inactive)
REMARK    1  A    between atoms: N_7  and  C_3 
REMARK       I    between atoms: C_8  and  N_7 
REMARK    2  A    between atoms: C_9  and  C_8 
ROOT
ATOM      1  N   UNL d   1      32.835  20.441 -21.954  0.00  0.00    -0.190 NA
ATOM      2  C   UNL d   1      33.055  20.482 -22.747  0.00  0.00     0.281 C 
ATOM      3  O   UNL d   1      33.228  21.212 -23.091  0.00  0.00    -0.265 OA
ENDROOT
BRANCH   1   4
ATOM      4  C   UNL d   1      32.789  21.133 -21.502  0.00  0.00     0.159 A 
ATOM      5  N   UNL d   1      32.991  21.120 -20.705  0.00  0.00    -0.241 N 
ATOM      6  C   UNL d   1      32.944  21.805 -20.258  0.00  0.00     0.343 A 
ATOM      7  C   UNL d   1      33.241  20.415 -20.355  0.00  0.00     0.105 C 
ATOM      8  N   UNL d   1      32.695  22.509 -20.607  0.00  0.00    -0.224 N 
ATOM      9  O   UNL d   1      33.148  21.791 -19.456  0.00  0.00    -0.245 OA
ATOM     10  C   UNL d   1      32.488  22.538 -21.408  0.00  0.00     0.271 A 
ATOM     11  C   UNL d   1      32.648  23.200 -20.155  0.00  0.00     0.107 C 
ATOM     12  C   UNL d   1      32.539  21.837 -21.851  0.00  0.00     0.099 A 
ATOM     13  O   UNL d   1      32.240  23.235 -21.754  0.00  0.00    -0.266 OA
ENDBRANCH   1   4
BRANCH   2  14
ATOM     14  C   UNL d   1      33.101  19.792 -23.197  0.00  0.00     0.069 A 
ATOM     15  C   UNL d   1      33.193  19.849 -23.990  0.00  0.00     0.062 A 
ATOM     16  C   UNL d   1      33.240  19.173 -24.451  0.00  0.00     0.012 A 
ATOM     17 CL   UNL d   1      33.241  20.597 -24.354  0.00  0.00    -0.082 Cl
ATOM     18  C   UNL d   1      33.193  18.431 -24.095  0.00  0.00     0.008 A 
ATOM     19  C   UNL d   1      33.100  18.382 -23.288  0.00  0.00     0.035 A 
ATOM     20  C   UNL d   1      33.052  19.058 -22.823  0.00  0.00     0.012 A 
ATOM     21 BR   UNL d   1      33.052  17.623 -22.932  0.00  0.00    -0.049 Br
ENDBRANCH   2  14
TORSDOF 2
ENDMDL
MODEL 3
REMARK VINA RESULT:      -1.9      1.891      3.946
REMARK  2 active torsions:
REMARK  status: ('A' for Active; 'I' for Inactive)
REMARK    1  A    between atoms: N_7  and  C_3 
REMARK       I    between atoms: C_8  and  N_7 
REMARK    2  A    between atoms: C_9  and  C_8 
ROOT
ATOM      1  N   UNL d   1      33.238  20.909 -22.523  0.00  0.00    -0.190 NA
ATOM      2  C   UNL d   1      32.824  20.202 -22.431  0.00  0.00     0.281 C 
ATOM      3  O   UNL d   1      32.274  20.122 -21.822  0.00  0.00    -0.265 OA
ENDROOT
BRANCH   1   4
ATOM      4  C   UNL d   1      33.100  21.539 -22.005  0.00  0.00     0.159 A 
ATOM      5  N   UNL d   1      33.029  22.305 -22.294  0.00  0.00    -0.241 N 
ATOM      6  C   UNL d   1      32.893  22.928 -21.781  0.00  0.00     0.343 A 
ATOM      7  C   UNL d   1      33.096  22.446 -23.105  0.00  0.00     0.105 C 
ATOM      8  N   UNL d   1      32.827  22.788 -20.970  0.00  0.00    -0.224 N 
ATOM      9  O   UNL d   1      32.822  23.699 -22.073  0.00  0.00    -0.245 OA
ATOM     10  C   UNL d   1      32.896  22.023 -20.664  0.00  0.00     0.271 A 
ATOM     11  C   UNL d   1      32.690  23.418 -20.452  0.00  0.00     0.107 C 
ATOM     12  C   UNL d   1      33.034  21.399 -21.194  0.00  0.00     0.099 A 
ATOM     13  O   UNL d   1      32.830  21.884 -19.861  0.00  0.00    -0.266 OA
ENDBRANCH   1   4
BRANCH   2  14
ATOM     14  C   UNL d   1      32.962  19.575 -22.948  0.00  0.00     0.069 A 
ATOM     15  C   UNL d   1      33.044  18.836 -22.652  0.00  0.00     0.062 A 
ATOM     16  C   UNL d   1      33.181  18.202 -23.153  0.00  0.00     0.012 A 
ATOM     17 CL   UNL d   1      32.989  18.704 -21.831  0.00  0.00    -0.082 Cl
ATOM     18  C   UNL d   1      33.236  18.327 -23.966  0.00  0.00     0.008 A 
ATOM     19  C   UNL d   1      33.153  19.081 -24.259  0.00  0.00     0.035 A 
ATOM     20  C   UNL d   1      33.014  19.720 -23.759  0.00  0.00     0.012 A 
ATOM     21 BR   UNL d   1      33.210  19.202 -25.088  0.00  0.00    -0.049 Br
ENDBRANCH   2  14
TORSDOF 2
ENDMDL
MODEL 4
REMARK VINA RESULT:      -1.7      2.275      4.405
REMARK  2 active torsions:
REMARK  status: ('A' for Active; 'I' for Inactive)
REMARK    1  A    between atoms: N_7  and  C_3 
REMARK       I    between atoms: C_8  and  N_7 
REMARK    2  A    between atoms: C_9  and  C_8 
ROOT
ATOM      1  N   UNL d   1      33.218  19.321 -22.518  0.00  0.00    -0.190 NA
ATOM      2  C   UNL d   1      32.763  19.230 -23.199  0.00  0.00     0.281 C 
ATOM      3  O   UNL d   1      32.307  19.858 -23.479  0.00  0.00    -0.265 OA
ENDROOT
BRANCH   1   4
ATOM      4  C   UNL d   1      33.218  20.044 -22.115  0.00  0.00     0.159 A 
ATOM      5  N   UNL d   1      33.229  20.059 -21.293  0.00  0.00    -0.241 N 
ATOM      6  C   UNL d   1      33.229  20.773 -20.895  0.00  0.00     0.343 A 
ATOM      7  C   UNL d   1      33.241  19.350 -20.869  0.00  0.00     0.105 C 
ATOM      8  N   UNL d   1      33.218  21.481 -21.318  0.00  0.00    -0.224 N 
ATOM      9  O   UNL d   1      33.241  20.787 -20.067  0.00  0.00    -0.245 OA
ATOM     10  C   UNL d   1      33.206  21.483 -22.145  0.00  0.00     0.271 A 
ATOM     11  C   UNL d   1      33.218  22.204 -20.915  0.00  0.00     0.107 C 
ATOM     12  C   UNL d   1      33.207  20.752 -22.538  0.00  0.00     0.099 A 
ATOM     13  O   UNL d   1      33.195  22.184 -22.564  0.00  0.00    -0.266 OA
ENDBRANCH   1   4
BRANCH   2  14
ATOM     14  C   UNL d   1      32.764  18.509 -23.600  0.00  0.00     0.069 A 
ATOM     15  C   UNL d   1      33.000  18.489 -24.366  0.00  0.00     0.062 A 
ATOM     16  C   UNL d   1      33.007  17.781 -24.778  0.00  0.00     0.012 A 
ATOM     17 CL   UNL d   1      33.241  19.188 -24.749  0.00  0.00    -0.082 Cl
ATOM     18  C   UNL d   1      32.769  17.086 -24.402  0.00  0.00     0.008 A 
ATOM     19  C   UNL d   1      32.532  17.115 -23.625  0.00  0.00     0.035 A 
ATOM     20  C   UNL d   1      32.523  17.824 -23.208  0.00  0.00     0.012 A 
ATOM     21 BR   UNL d   1      32.291  16.404 -23.249  0.00  0.00    -0.049 Br
ENDBRANCH   2  14
TORSDOF 2
ENDMDL
MODEL 5
REMARK VINA RESULT:      -1.7      1.590      2.399
REMARK  2 active torsions:
REMARK  status: ('A' for Active; 'I' for Inactive)
REMARK    1  A    between atoms: N_7  and  C_3 
REMARK       I    between atoms: C_8  and  N_7 
REMARK    2  A    between atoms: C_9  and  C_8 
ROOT
ATOM      1  N   UNL d   1      32.543  19.127 -22.666  0.00  0.00    -0.190 NA
ATOM      2  C   UNL d   1      32.918  19.812 -22.929  0.00  0.00     0.281 C 
ATOM      3  O   UNL d   1      33.224  19.848 -23.694  0.00  0.00    -0.265 OA
ENDROOT
BRANCH   1   4
ATOM      4  C   UNL d   1      32.474  18.474 -23.170  0.00  0.00     0.159 A 
ATOM      5  N   UNL d   1      32.819  17.756 -22.966  0.00  0.00    -0.241 N 
ATOM      6  C   UNL d   1      32.751  17.111 -23.465  0.00  0.00     0.343 A 
ATOM      7  C   UNL d   1      33.236  17.687 -22.256  0.00  0.00     0.105 C 
ATOM      8  N   UNL d   1      32.334  17.180 -24.174  0.00  0.00    -0.224 N 
ATOM      9  O   UNL d   1      33.099  16.389 -23.259  0.00  0.00    -0.245 OA
ATOM     10  C   UNL d   1      31.981  17.895 -24.392  0.00  0.00     0.271 A 
ATOM     11  C   UNL d   1      32.265  16.527 -24.677  0.00  0.00     0.107 C 
ATOM     12  C   UNL d   1      32.058  18.543 -23.878  0.00  0.00     0.099 A 
ATOM     13  O   UNL d   1      31.569  17.963 -25.094  0.00  0.00    -0.266 OA
ENDBRANCH   1   4
BRANCH   2  14
ATOM     14  C   UNL d   1      32.986  20.462 -22.426  0.00  0.00     0.069 A 
ATOM     15  C   UNL d   1      33.145  21.182 -22.738  0.00  0.00     0.062 A 
ATOM     16  C   UNL d   1      33.216  21.838 -22.252  0.00  0.00     0.012 A 
ATOM     17 CL   UNL d   1      33.241  21.270 -23.561  0.00  0.00    -0.082 Cl
ATOM     18  C   UNL d   1      33.122  21.754 -21.437  0.00  0.00     0.008 A 
ATOM     19  C   UNL d   1      32.960  21.020 -21.128  0.00  0.00     0.035 A 
ATOM     20  C   UNL d   1      32.889  20.360 -21.613  0.00  0.00     0.012 A 
ATOM     21 BR   UNL d   1      32.866  20.943 -20.297  0.00  0.00    -0.049 Br
ENDBRANCH   2  14
TORSDOF 2
ENDMDL
