MODEL 1
REMARK VINA RESULT:      52.1      0.000      0.000
REMARK  4 active torsions:
REMARK  status: ('A' for Active; 'I' for Inactive)
REMARK    1  A    between atoms: N_3  and  S_1 
REMARK    2  A    between atoms: C_4  and  S_1 
REMARK    3  A    between atoms: C_2  and  N_3 
REMARK    4  A    between atoms: O_18  and  C_13 
ROOT
ATOM      1  S   UNL d   1     -56.103 -99.567 -44.549  0.00  0.00     0.285 S 
ATOM      2  O   UNL d   1     -56.331-100.109 -43.921  0.00  0.00    -0.198 OA
ATOM      3  O   UNL d   1     -55.889 -99.029 -45.171  0.00  0.00    -0.198 OA
ENDROOT
BRANCH   1   4
ATOM      4  N   UNL d   1     -55.306 -99.761 -44.436  0.00  0.00    -0.157 NA
BRANCH   4   5
ATOM      5  C   UNL d   1     -55.103-100.495 -44.059  0.00  0.00     0.113 A 
ATOM      6  C   UNL d   1     -55.008-101.169 -44.524  0.00  0.00     0.100 A 
ATOM      7  C   UNL d   1     -54.811-101.881 -44.159  0.00  0.00     0.021 A 
ATOM      8  N   UNL d   1     -55.104-101.149 -45.334  0.00  0.00    -0.242 NA
ATOM      9  C   UNL d   1     -54.714-102.560 -44.611  0.00  0.00     0.003 A 
ATOM     10  C   UNL d   1     -54.712-101.906 -43.336  0.00  0.00     0.026 A 
ATOM     11  C   UNL d   1     -54.812-102.533 -45.428  0.00  0.00     0.021 A 
ATOM     12  C   UNL d   1     -55.010-101.820 -45.794  0.00  0.00     0.099 A 
ATOM     13  C   UNL d   1     -54.809-101.225 -42.879  0.00  0.00     0.096 A 
ATOM     14  C   UNL d   1     -55.006-100.512 -43.245  0.00  0.00     0.046 A 
BRANCH  13  15
ATOM     15  O   UNL d   1     -54.715-101.223 -42.053  0.00  0.00    -0.328 OA
ATOM     16  C   UNL d   1     -54.853-101.918 -41.616  0.00  0.00     0.181 C 
ENDBRANCH  13  15
ENDBRANCH   4   5
ENDBRANCH   1   4
BRANCH   1  17
ATOM     17  C   UNL d   1     -56.921 -99.360 -44.674  0.00  0.00     0.105 A 
ATOM     18  C   UNL d   1     -57.449 -99.360 -44.045  0.00  0.00     0.013 A 
ATOM     19  C   UNL d   1     -58.238 -99.159 -44.172  0.00  0.00     0.001 A 
ATOM     20  C   UNL d   1     -58.762 -99.159 -43.547  0.00  0.00     0.000 A 
ATOM     21  C   UNL d   1     -58.503 -98.958 -44.930  0.00  0.00     0.000 A 
ATOM     22  C   UNL d   1     -59.551 -98.957 -43.681  0.00  0.00     0.000 A 
ATOM     23  C   UNL d   1     -59.816 -98.757 -44.431  0.00  0.00     0.000 A 
ATOM     24  C   UNL d   1     -59.292 -98.758 -45.056  0.00  0.00     0.000 A 
ATOM     25  C   UNL d   1     -57.959 -98.958 -45.578  0.00  0.00     0.001 A 
ATOM     26  C   UNL d   1     -57.170 -99.160 -45.445  0.00  0.00     0.013 A 
ENDBRANCH   1  17
TORSDOF 4
ENDMDL
