MODEL 1
REMARK VINA RESULT:      -9.1      0.000      0.000
REMARK  4 active torsions:
REMARK  status: ('A' for Active; 'I' for Inactive)
REMARK    1  A    between atoms: N_3  and  S_1 
REMARK    2  A    between atoms: C_4  and  S_1 
REMARK    3  A    between atoms: C_13  and  N_3 
REMARK    4  A    between atoms: C_16  and  N_3 
ROOT
ATOM      1  S   UNL d   1     -48.355  13.826  22.923  0.00  0.00     0.271 S 
ATOM      2  O   UNL d   1     -48.782  13.891  23.624  0.00  0.00    -0.200 OA
ATOM      3  O   UNL d   1     -48.675  14.102  22.218  0.00  0.00    -0.200 OA
ENDROOT
BRANCH   1   4
ATOM      4  N   UNL d   1     -49.102  14.169  22.910  0.00  0.00    -0.231 N 
BRANCH   4   5
ATOM      5  C   UNL d   1     -49.750  13.748  22.591  0.00  0.00     0.075 A 
ATOM      6  C   UNL d   1     -49.866  13.734  21.779  0.00  0.00     0.018 A 
ATOM      7  C   UNL d   1     -50.504  13.318  21.465  0.00  0.00     0.002 A 
ATOM      8  C   UNL d   1     -51.027  12.918  21.962  0.00  0.00     0.000 A 
ATOM      9  C   UNL d   1     -50.911  12.932  22.772  0.00  0.00     0.002 A 
ATOM     10  C   UNL d   1     -50.271  13.347  23.093  0.00  0.00     0.018 A 
ENDBRANCH   4   5
BRANCH   4  11
ATOM     11  C   UNL d   1     -49.212  14.924  23.210  0.00  0.00     0.092 C 
ATOM     12  C   UNL d   1     -49.232  15.576  22.706  0.00  0.00     0.021 C 
ENDBRANCH   4  11
ENDBRANCH   1   4
BRANCH   1  13
ATOM     13  C   UNL d   1     -47.607  13.484  22.927  0.00  0.00     0.106 A 
ATOM     14  C   UNL d   1     -47.487  12.767  23.310  0.00  0.00     0.034 A 
ATOM     15  C   UNL d   1     -46.734  12.419  23.316  0.00  0.00     0.105 A 
ATOM     16  N   UNL d   1     -46.447  11.717  23.647  0.00  0.00    -0.189 NA
ATOM     17  C   UNL d   1     -46.100  12.798  22.933  0.00  0.00     0.104 A 
ATOM     18  C   UNL d   1     -45.634  11.659  23.470  0.00  0.00     0.369 A 
ATOM     19  O   UNL d   1     -45.131  11.046  23.695  0.00  0.00    -0.242 OA
ATOM     20  N   UNL d   1     -45.427  12.328  23.030  0.00  0.00    -0.189 NA
ATOM     21  C   UNL d   1     -46.226  13.522  22.547  0.00  0.00     0.021 A 
ATOM     22  C   UNL d   1     -46.979  13.859  22.547  0.00  0.00     0.015 A 
ENDBRANCH   1  13
TORSDOF 4
ENDMDL
MODEL 2
REMARK VINA RESULT:      -8.8      1.243      1.904
REMARK  4 active torsions:
REMARK  status: ('A' for Active; 'I' for Inactive)
REMARK    1  A    between atoms: N_3  and  S_1 
REMARK    2  A    between atoms: C_4  and  S_1 
REMARK    3  A    between atoms: C_13  and  N_3 
REMARK    4  A    between atoms: C_16  and  N_3 
ROOT
ATOM      1  S   UNL d   1     -49.064  12.744  22.995  0.00  0.00     0.271 S 
ATOM      2  O   UNL d   1     -49.443  12.505  22.304  0.00  0.00    -0.200 OA
ATOM      3  O   UNL d   1     -49.501  13.042  23.624  0.00  0.00    -0.200 OA
ENDROOT
BRANCH   1   4
ATOM      4  N   UNL d   1     -49.882  12.807  22.941  0.00  0.00    -0.231 N 
BRANCH   4   5
ATOM      5  C   UNL d   1     -50.243  13.560  22.934  0.00  0.00     0.075 A 
ATOM      6  C   UNL d   1     -50.506  13.879  22.225  0.00  0.00     0.018 A 
ATOM      7  C   UNL d   1     -50.862  14.622  22.218  0.00  0.00     0.002 A 
ATOM      8  C   UNL d   1     -50.957  15.046  22.919  0.00  0.00     0.000 A 
ATOM      9  C   UNL d   1     -50.695  14.728  23.627  0.00  0.00     0.002 A 
ATOM     10  C   UNL d   1     -50.336  13.982  23.639  0.00  0.00     0.018 A 
ENDBRANCH   4   5
BRANCH   4  11
ATOM     11  C   UNL d   1     -50.344  12.130  22.894  0.00  0.00     0.092 C 
ATOM     12  C   UNL d   1     -50.674  11.803  23.574  0.00  0.00     0.021 C 
ENDBRANCH   4  11
ENDBRANCH   1   4
BRANCH   1  13
ATOM     13  C   UNL d   1     -48.246  12.685  23.058  0.00  0.00     0.106 A 
ATOM     14  C   UNL d   1     -47.764  13.114  22.548  0.00  0.00     0.034 A 
ATOM     15  C   UNL d   1     -46.939  13.057  22.608  0.00  0.00     0.105 A 
ATOM     16  N   UNL d   1     -46.324  13.412  22.185  0.00  0.00    -0.189 NA
ATOM     17  C   UNL d   1     -46.600  12.563  23.186  0.00  0.00     0.104 A 
ATOM     18  C   UNL d   1     -45.601  13.140  22.498  0.00  0.00     0.369 A 
ATOM     19  O   UNL d   1     -44.848  13.354  22.239  0.00  0.00    -0.242 OA
ATOM     20  N   UNL d   1     -45.778  12.617  23.115  0.00  0.00    -0.189 NA
ATOM     21  C   UNL d   1     -47.089  12.132  23.698  0.00  0.00     0.021 A 
ATOM     22  C   UNL d   1     -47.910  12.196  23.630  0.00  0.00     0.015 A 
ENDBRANCH   1  13
TORSDOF 4
ENDMDL
MODEL 3
REMARK VINA RESULT:      -6.5      8.740      9.904
REMARK  4 active torsions:
REMARK  status: ('A' for Active; 'I' for Inactive)
REMARK    1  A    between atoms: N_3  and  S_1 
REMARK    2  A    between atoms: C_4  and  S_1 
REMARK    3  A    between atoms: C_13  and  N_3 
REMARK    4  A    between atoms: C_16  and  N_3 
ROOT
ATOM      1  S   UNL d   1     -40.326  15.212  18.163  0.00  0.00     0.271 S 
ATOM      2  O   UNL d   1     -40.594  14.532  17.783  0.00  0.00    -0.200 OA
ATOM      3  O   UNL d   1     -40.105  15.870  17.722  0.00  0.00    -0.200 OA
ENDROOT
BRANCH   1   4
ATOM      4  N   UNL d   1     -40.370  15.198  17.342  0.00  0.00    -0.231 N 
BRANCH   4   5
ATOM      5  C   UNL d   1     -39.669  15.170  16.887  0.00  0.00     0.075 A 
ATOM      6  C   UNL d   1     -39.395  14.450  16.605  0.00  0.00     0.018 A 
ATOM      7  C   UNL d   1     -38.705  14.422  16.156  0.00  0.00     0.002 A 
ATOM      8  C   UNL d   1     -38.288  15.114  15.989  0.00  0.00     0.000 A 
ATOM      9  C   UNL d   1     -38.560  15.833  16.270  0.00  0.00     0.002 A 
ATOM     10  C   UNL d   1     -39.254  15.866  16.721  0.00  0.00     0.018 A 
ENDBRANCH   4   5
BRANCH   4  11
ATOM     11  C   UNL d   1     -41.100  15.212  16.968  0.00  0.00     0.092 C 
ATOM     12  C   UNL d   1     -41.416  15.922  16.695  0.00  0.00     0.021 C 
ENDBRANCH   4  11
ENDBRANCH   1   4
BRANCH   1  13
ATOM     13  C   UNL d   1     -40.279  15.235  18.984  0.00  0.00     0.106 A 
ATOM     14  C   UNL d   1     -39.946  14.604  19.392  0.00  0.00     0.034 A 
ATOM     15  C   UNL d   1     -39.897  14.623  20.220  0.00  0.00     0.105 A 
ATOM     16  N   UNL d   1     -39.599  14.085  20.772  0.00  0.00    -0.189 NA
ATOM     17  C   UNL d   1     -40.187  15.283  20.636  0.00  0.00     0.104 A 
ATOM     18  C   UNL d   1     -39.702  14.410  21.533  0.00  0.00     0.369 A 
ATOM     19  O   UNL d   1     -39.482  14.058  22.245  0.00  0.00    -0.242 OA
ATOM     20  N   UNL d   1     -40.065  15.148  21.442  0.00  0.00    -0.189 NA
ATOM     21  C   UNL d   1     -40.522  15.917  20.220  0.00  0.00     0.021 A 
ATOM     22  C   UNL d   1     -40.566  15.888  19.395  0.00  0.00     0.015 A 
ENDBRANCH   1  13
TORSDOF 4
ENDMDL
