MODEL 1
REMARK VINA RESULT:      -5.7      0.000      0.000
REMARK  1 active torsions:
REMARK  status: ('A' for Active; 'I' for Inactive)
REMARK       I    between atoms: N_2  and  C_1 
REMARK       I    between atoms: N_4  and  C_1 
REMARK    1  A    between atoms: C_5  and  N_3 
ROOT
ATOM      1  C   UNL d   1     -41.396-122.106 -52.945  0.00  0.00     0.339 C 
ATOM      2  N   UNL d   1     -41.498-122.350 -52.164  0.00  0.00    -0.254 N 
ATOM      3  N   UNL d   1     -41.700-122.833 -50.617  0.00  0.00    -0.301 N 
ATOM      4  N   UNL d   1     -41.321-122.660 -53.550  0.00  0.00    -0.258 N 
ATOM      5  O   UNL d   1     -41.370-121.299 -53.119  0.00  0.00    -0.245 OA
ATOM      6  C   UNL d   1     -41.572-121.796 -51.567  0.00  0.00     0.104 A 
ATOM      7  C   UNL d   1     -41.525-123.166 -51.988  0.00  0.00     0.104 A 
ATOM      8  C   UNL d   1     -41.626-123.407 -51.216  0.00  0.00     0.100 A 
ATOM      9  C   UNL d   1     -41.673-122.037 -50.795  0.00  0.00     0.100 A 
ATOM     10  C   UNL d   1     -41.218-122.495 -54.345  0.00  0.00     0.085 A 
ATOM     11  C   UNL d   1     -41.337-123.478 -53.457  0.00  0.00     0.085 A 
ATOM     12  C   UNL d   1     -41.244-123.817 -54.196  0.00  0.00     0.021 A 
ATOM     13  C   UNL d   1     -41.169-123.214 -54.748  0.00  0.00     0.021 A 
ENDROOT
BRANCH   3  14
ATOM     14  C   UNL d   1     -41.803-123.080 -49.826  0.00  0.00     0.064 A 
ATOM     15  C   UNL d   1     -42.565-123.239 -49.540  0.00  0.00     0.018 A 
ATOM     16  C   UNL d   1     -42.673-123.486 -48.750  0.00  0.00     0.001 A 
ATOM     17  C   UNL d   1     -43.425-123.644 -48.463  0.00  0.00     0.000 C 
ATOM     18  C   UNL d   1     -42.006-123.574 -48.243  0.00  0.00     0.000 A 
ATOM     19  C   UNL d   1     -41.239-123.411 -48.540  0.00  0.00     0.002 A 
ATOM     20  C   UNL d   1     -42.108-123.817 -47.463  0.00  0.00     0.000 C 
ATOM     21  C   UNL d   1     -41.136-123.166 -49.327  0.00  0.00     0.018 A 
ENDBRANCH   3  14
TORSDOF 1
ENDMDL
MODEL 2
REMARK VINA RESULT:      -4.3      1.127      4.623
REMARK  1 active torsions:
REMARK  status: ('A' for Active; 'I' for Inactive)
REMARK       I    between atoms: N_2  and  C_1 
REMARK       I    between atoms: N_4  and  C_1 
REMARK    1  A    between atoms: C_5  and  N_3 
ROOT
ATOM      1  C   UNL d   1     -41.678-122.452 -49.892  0.00  0.00     0.339 C 
ATOM      2  N   UNL d   1     -41.670-122.474 -50.716  0.00  0.00    -0.254 N 
ATOM      3  N   UNL d   1     -41.655-122.518 -52.348  0.00  0.00    -0.301 N 
ATOM      4  N   UNL d   1     -42.216-122.909 -49.466  0.00  0.00    -0.258 N 
ATOM      5  O   UNL d   1     -41.141-121.967 -49.493  0.00  0.00    -0.245 OA
ATOM      6  C   UNL d   1     -41.135-122.019 -51.134  0.00  0.00     0.104 A 
ATOM      7  C   UNL d   1     -42.213-122.964 -51.119  0.00  0.00     0.104 A 
ATOM      8  C   UNL d   1     -42.205-122.986 -51.934  0.00  0.00     0.100 A 
ATOM      9  C   UNL d   1     -41.127-122.041 -51.949  0.00  0.00     0.100 A 
ATOM     10  C   UNL d   1     -42.283-122.939 -48.650  0.00  0.00     0.085 A 
ATOM     11  C   UNL d   1     -42.779-123.414 -49.790  0.00  0.00     0.085 A 
ATOM     12  C   UNL d   1     -43.194-123.756 -49.173  0.00  0.00     0.021 A 
ATOM     13  C   UNL d   1     -42.891-123.466 -48.467  0.00  0.00     0.021 A 
ENDROOT
BRANCH   3  14
ATOM     14  C   UNL d   1     -41.647-122.540 -53.183  0.00  0.00     0.064 A 
ATOM     15  C   UNL d   1     -42.129-122.022 -53.613  0.00  0.00     0.018 A 
ATOM     16  C   UNL d   1     -42.125-122.041 -54.448  0.00  0.00     0.001 A 
ATOM     17  C   UNL d   1     -42.601-121.530 -54.879  0.00  0.00     0.000 C 
ATOM     18  C   UNL d   1     -41.628-122.588 -54.853  0.00  0.00     0.000 A 
ATOM     19  C   UNL d   1     -41.143-123.109 -54.410  0.00  0.00     0.002 A 
ATOM     20  C   UNL d   1     -41.620-122.610 -55.676  0.00  0.00     0.000 C 
ATOM     21  C   UNL d   1     -41.151-123.086 -53.579  0.00  0.00     0.018 A 
ENDBRANCH   3  14
TORSDOF 1
ENDMDL
MODEL 3
REMARK VINA RESULT:      -3.8      1.448      4.647
REMARK  1 active torsions:
REMARK  status: ('A' for Active; 'I' for Inactive)
REMARK       I    between atoms: N_2  and  C_1 
REMARK       I    between atoms: N_4  and  C_1 
REMARK    1  A    between atoms: C_5  and  N_3 
ROOT
ATOM      1  C   UNL d   1     -42.550-122.758 -48.666  0.00  0.00     0.339 C 
ATOM      2  N   UNL d   1     -42.349-122.824 -49.463  0.00  0.00    -0.254 N 
ATOM      3  N   UNL d   1     -41.951-122.954 -51.041  0.00  0.00    -0.301 N 
ATOM      4  N   UNL d   1     -42.088-123.118 -48.086  0.00  0.00    -0.258 N 
ATOM      5  O   UNL d   1     -43.221-122.327 -48.450  0.00  0.00    -0.245 OA
ATOM      6  C   UNL d   1     -42.811-122.465 -50.034  0.00  0.00     0.104 A 
ATOM      7  C   UNL d   1     -41.671-123.260 -49.681  0.00  0.00     0.104 A 
ATOM      8  C   UNL d   1     -41.472-123.325 -50.468  0.00  0.00     0.100 A 
ATOM      9  C   UNL d   1     -42.612-122.530 -50.822  0.00  0.00     0.100 A 
ATOM     10  C   UNL d   1     -42.224-123.097 -47.279  0.00  0.00     0.085 A 
ATOM     11  C   UNL d   1     -41.409-123.562 -48.222  0.00  0.00     0.085 A 
ATOM     12  C   UNL d   1     -41.125-123.815 -47.497  0.00  0.00     0.021 A 
ATOM     13  C   UNL d   1     -41.625-123.530 -46.911  0.00  0.00     0.021 A 
ENDROOT
BRANCH   3  14
ATOM     14  C   UNL d   1     -41.748-123.021 -51.848  0.00  0.00     0.064 A 
ATOM     15  C   UNL d   1     -41.870-122.379 -52.358  0.00  0.00     0.018 A 
ATOM     16  C   UNL d   1     -41.668-122.441 -53.166  0.00  0.00     0.001 A 
ATOM     17  C   UNL d   1     -41.787-121.808 -53.675  0.00  0.00     0.000 C 
ATOM     18  C   UNL d   1     -41.339-123.158 -53.462  0.00  0.00     0.000 A 
ATOM     19  C   UNL d   1     -41.218-123.803 -52.940  0.00  0.00     0.002 A 
ATOM     20  C   UNL d   1     -41.138-123.224 -54.258  0.00  0.00     0.000 C 
ATOM     21  C   UNL d   1     -41.421-123.736 -52.137  0.00  0.00     0.018 A 
ENDBRANCH   3  14
TORSDOF 1
ENDMDL
