MODEL 1
REMARK VINA RESULT:      -9.6      0.000      0.000
REMARK  1 active torsions:
REMARK  status: ('A' for Active; 'I' for Inactive)
REMARK    1  A    between atoms: C_6  and  C_1 
ROOT
ATOM      1  C   UNL d   1      53.174  32.859  53.751  0.00  0.00     0.162 A 
ATOM      2  N   UNL d   1      52.630  32.464  53.267  0.00  0.00    -0.225 NA
ATOM      3  N   UNL d   1      53.721  32.322  54.020  0.00  0.00    -0.225 NA
ATOM      4  C   UNL d   1      52.842  31.665  53.232  0.00  0.00     0.101 A 
ATOM      5  C   UNL d   1      53.512  31.583  53.696  0.00  0.00     0.101 A 
ATOM      6  C   UNL d   1      52.515  31.016  52.845  0.00  0.00     0.021 A 
ATOM      7  C   UNL d   1      53.871  30.838  53.780  0.00  0.00     0.021 A 
ATOM      8  C   UNL d   1      52.858  30.260  52.916  0.00  0.00     0.002 A 
ATOM      9  C   UNL d   1      53.540  30.157  53.383  0.00  0.00     0.002 A 
ENDROOT
BRANCH   1  10
ATOM     10  C   UNL d   1      53.125  33.639  53.898  0.00  0.00     0.036 A 
ATOM     11  C   UNL d   1      53.307  33.929  54.652  0.00  0.00     0.005 A 
ATOM     12  C   UNL d   1      53.259  34.736  54.814  0.00  0.00     0.030 A 
ATOM     13  C   UNL d   1      53.028  35.261  54.223  0.00  0.00     0.140 A 
ATOM     14  C   UNL d   1      52.846  34.976  53.470  0.00  0.00     0.030 A 
ATOM     15  F   UNL d   1      52.983  36.080  54.400  0.00  0.00    -0.204 F 
ATOM     16  C   UNL d   1      52.891  34.179  53.301  0.00  0.00     0.005 A 
ENDBRANCH   1  10
TORSDOF 1
ENDMDL
MODEL 2
REMARK VINA RESULT:      -9.6      1.945      2.850
REMARK  1 active torsions:
REMARK  status: ('A' for Active; 'I' for Inactive)
REMARK    1  A    between atoms: C_6  and  C_1 
ROOT
ATOM      1  C   UNL d   1      52.363  33.701  53.559  0.00  0.00     0.162 A 
ATOM      2  N   UNL d   1      52.760  34.273  54.008  0.00  0.00    -0.225 NA
ATOM      3  N   UNL d   1      52.731  32.985  53.665  0.00  0.00    -0.225 NA
ATOM      4  C   UNL d   1      53.389  33.907  54.402  0.00  0.00     0.101 A 
ATOM      5  C   UNL d   1      53.367  33.117  54.188  0.00  0.00     0.101 A 
ATOM      6  C   UNL d   1      53.965  34.189  54.918  0.00  0.00     0.021 A 
ATOM      7  C   UNL d   1      53.931  32.588  54.492  0.00  0.00     0.021 A 
ATOM      8  C   UNL d   1      54.541  33.677  55.235  0.00  0.00     0.002 A 
ATOM      9  C   UNL d   1      54.535  32.870  55.029  0.00  0.00     0.002 A 
ENDROOT
BRANCH   1  10
ATOM     10  C   UNL d   1      51.729  33.876  53.113  0.00  0.00     0.036 A 
ATOM     11  C   UNL d   1      50.968  33.815  53.435  0.00  0.00     0.005 A 
ATOM     12  C   UNL d   1      50.304  33.994  52.980  0.00  0.00     0.030 A 
ATOM     13  C   UNL d   1      50.394  34.236  52.198  0.00  0.00     0.140 A 
ATOM     14  C   UNL d   1      51.151  34.298  51.872  0.00  0.00     0.030 A 
ATOM     15  F   UNL d   1      49.711  34.415  51.745  0.00  0.00    -0.204 F 
ATOM     16  C   UNL d   1      51.813  34.123  52.316  0.00  0.00     0.005 A 
ENDBRANCH   1  10
TORSDOF 1
ENDMDL
MODEL 3
REMARK VINA RESULT:      -9.4      1.778      3.876
REMARK  1 active torsions:
REMARK  status: ('A' for Active; 'I' for Inactive)
REMARK    1  A    between atoms: C_6  and  C_1 
ROOT
ATOM      1  C   UNL d   1      53.059  32.566  53.579  0.00  0.00     0.162 A 
ATOM      2  N   UNL d   1      53.344  32.924  54.269  0.00  0.00    -0.225 NA
ATOM      3  N   UNL d   1      52.757  33.141  53.092  0.00  0.00    -0.225 NA
ATOM      4  C   UNL d   1      53.218  33.740  54.212  0.00  0.00     0.101 A 
ATOM      5  C   UNL d   1      52.857  33.868  53.487  0.00  0.00     0.101 A 
ATOM      6  C   UNL d   1      53.382  34.368  54.717  0.00  0.00     0.021 A 
ATOM      7  C   UNL d   1      52.653  34.639  53.255  0.00  0.00     0.021 A 
ATOM      8  C   UNL d   1      53.186  35.150  54.504  0.00  0.00     0.002 A 
ATOM      9  C   UNL d   1      52.820  35.299  53.772  0.00  0.00     0.002 A 
ENDROOT
BRANCH   1  10
ATOM     10  C   UNL d   1      53.098  31.780  53.462  0.00  0.00     0.036 A 
ATOM     11  C   UNL d   1      52.548  31.409  52.965  0.00  0.00     0.005 A 
ATOM     12  C   UNL d   1      52.580  30.596  52.837  0.00  0.00     0.030 A 
ATOM     13  C   UNL d   1      53.163  30.144  53.204  0.00  0.00     0.140 A 
ATOM     14  C   UNL d   1      53.714  30.509  53.699  0.00  0.00     0.030 A 
ATOM     15  F   UNL d   1      53.186  29.317  53.065  0.00  0.00    -0.204 F 
ATOM     16  C   UNL d   1      53.689  31.315  53.832  0.00  0.00     0.005 A 
ENDBRANCH   1  10
TORSDOF 1
ENDMDL
MODEL 4
REMARK VINA RESULT:      -9.3      2.003      2.916
REMARK  1 active torsions:
REMARK  status: ('A' for Active; 'I' for Inactive)
REMARK    1  A    between atoms: C_6  and  C_1 
ROOT
ATOM      1  C   UNL d   1      52.761  33.760  53.787  0.00  0.00     0.162 A 
ATOM      2  N   UNL d   1      52.740  34.112  53.038  0.00  0.00    -0.225 NA
ATOM      3  N   UNL d   1      52.009  33.527  53.987  0.00  0.00    -0.225 NA
ATOM      4  C   UNL d   1      51.959  34.099  52.764  0.00  0.00     0.101 A 
ATOM      5  C   UNL d   1      51.515  33.739  53.350  0.00  0.00     0.101 A 
ATOM      6  C   UNL d   1      51.606  34.365  52.070  0.00  0.00     0.021 A 
ATOM      7  C   UNL d   1      50.696  33.638  53.248  0.00  0.00     0.021 A 
ATOM      8  C   UNL d   1      50.787  34.274  51.946  0.00  0.00     0.002 A 
ATOM      9  C   UNL d   1      50.319  33.910  52.531  0.00  0.00     0.002 A 
ENDROOT
BRANCH   1  10
ATOM     10  C   UNL d   1      53.435  33.685  54.203  0.00  0.00     0.036 A 
ATOM     11  C   UNL d   1      53.637  34.258  54.767  0.00  0.00     0.005 A 
ATOM     12  C   UNL d   1      54.333  34.189  55.203  0.00  0.00     0.030 A 
ATOM     13  C   UNL d   1      54.834  33.547  55.080  0.00  0.00     0.140 A 
ATOM     14  C   UNL d   1      54.637  32.974  54.519  0.00  0.00     0.030 A 
ATOM     15  F   UNL d   1      55.540  33.489  55.530  0.00  0.00    -0.204 F 
ATOM     16  C   UNL d   1      53.949  33.035  54.083  0.00  0.00     0.005 A 
ENDBRANCH   1  10
TORSDOF 1
ENDMDL
MODEL 5
REMARK VINA RESULT:      -7.4      0.791      1.093
REMARK  1 active torsions:
REMARK  status: ('A' for Active; 'I' for Inactive)
REMARK    1  A    between atoms: C_6  and  C_1 
ROOT
ATOM      1  C   UNL d   1      52.787  32.343  53.404  0.00  0.00     0.162 A 
ATOM      2  N   UNL d   1      53.456  31.980  53.078  0.00  0.00    -0.225 NA
ATOM      3  N   UNL d   1      52.281  31.766  53.671  0.00  0.00    -0.225 NA
ATOM      4  C   UNL d   1      53.367  31.160  53.143  0.00  0.00     0.101 A 
ATOM      5  C   UNL d   1      52.645  31.033  53.507  0.00  0.00     0.101 A 
ATOM      6  C   UNL d   1      53.844  30.526  52.920  0.00  0.00     0.021 A 
ATOM      7  C   UNL d   1      52.384  30.259  53.656  0.00  0.00     0.021 A 
ATOM      8  C   UNL d   1      53.603  29.741  53.060  0.00  0.00     0.002 A 
ATOM      9  C   UNL d   1      52.871  29.593  53.430  0.00  0.00     0.002 A 
ENDROOT
BRANCH   1  10
ATOM     10  C   UNL d   1      52.701  33.133  53.428  0.00  0.00     0.036 A 
ATOM     11  C   UNL d   1      53.262  33.598  53.822  0.00  0.00     0.005 A 
ATOM     12  C   UNL d   1      53.181  34.417  53.852  0.00  0.00     0.030 A 
ATOM     13  C   UNL d   1      52.538  34.781  53.488  0.00  0.00     0.140 A 
ATOM     14  C   UNL d   1      51.976  34.322  53.093  0.00  0.00     0.030 A 
ATOM     15  F   UNL d   1      52.467  35.616  53.525  0.00  0.00    -0.204 F 
ATOM     16  C   UNL d   1      52.049  33.509  53.059  0.00  0.00     0.005 A 
ENDBRANCH   1  10
TORSDOF 1
ENDMDL
