MODEL 1
REMARK VINA RESULT:       5.0      0.000      0.000
REMARK  2 active torsions:
REMARK  status: ('A' for Active; 'I' for Inactive)
REMARK    1  A    between atoms: C_6  and  C_3 
REMARK    2  A    between atoms: C_9  and  C_6 
ROOT
ATOM      1  C   UNL d   1      45.090 -13.544  44.952  0.00  0.00     0.011 C 
ENDROOT
BRANCH   1   2
ATOM      2  C   UNL d   1      45.246 -13.029  44.311  0.00  0.00     0.092 A 
ATOM      3  C   UNL d   1      45.747 -12.408  44.280  0.00  0.00     0.288 A 
ATOM      4  N   UNL d   1      45.711 -12.080  43.552  0.00  0.00    -0.163 NA
ATOM      5  O   UNL d   1      46.241 -12.149  44.938  0.00  0.00    -0.265 OA
ATOM      6  C   UNL d   1      45.150 -12.539  43.125  0.00  0.00     0.313 A 
ATOM      7  S   UNL d   1      44.887 -13.111  43.626  0.00  0.00    -0.021 SA
ATOM      8  O   UNL d   1      44.923 -12.402  42.323  0.00  0.00    -0.258 OA
ENDBRANCH   1   2
BRANCH   1   9
ATOM      9  C   UNL d   1      45.249 -14.355  44.941  0.00  0.00     0.001 A 
ATOM     10  C   UNL d   1      46.010 -14.672  44.918  0.00  0.00     0.001 A 
ATOM     11  C   UNL d   1      46.122 -15.467  44.909  0.00  0.00     0.011 A 
ATOM     12  C   UNL d   1      45.461 -15.998  44.922  0.00  0.00     0.058 A 
ATOM     13  C   UNL d   1      44.700 -15.681  44.945  0.00  0.00     0.011 A 
ATOM     14 CL   UNL d   1      45.559 -16.819  44.913  0.00  0.00    -0.082 Cl
ATOM     15  C   UNL d   1      44.588 -14.847  44.954  0.00  0.00     0.001 A 
ENDBRANCH   1   9
TORSDOF 2
ENDMDL
