MODEL 1
REMARK VINA RESULT:      -4.9      0.000      0.000
REMARK  3 active torsions:
REMARK  status: ('A' for Active; 'I' for Inactive)
REMARK    1  A    between atoms: S_6  and  C_2 
REMARK    2  A    between atoms: C_9  and  S_6 
REMARK    3  A    between atoms: C_7  and  C_9 
ROOT
ATOM      1  N   UNL d   1     -47.011  13.659  22.838  0.00  0.00    -0.196 NA
ATOM      2  C   UNL d   1     -47.107  12.943  23.254  0.00  0.00     0.213 A 
ATOM      3  N   UNL d   1     -45.814  13.301  23.328  0.00  0.00    -0.123 NA
ATOM      4  N   UNL d   1     -46.369  12.725  23.555  0.00  0.00    -0.120 NA
ATOM      5  C   UNL d   1     -46.207  13.874  22.888  0.00  0.00     0.224 A 
ENDROOT
BRANCH   2   6
ATOM      6  S   UNL d   1     -47.814  12.530  23.347  0.00  0.00    -0.062 SA
BRANCH   6   7
ATOM      7  C   UNL d   1     -47.937  11.816  22.943  0.00  0.00     0.162 C 
BRANCH   7   8
ATOM      8  C   UNL d   1     -48.664  11.430  22.986  0.00  0.00     0.197 C 
ATOM      9  O   UNL d   1     -48.887  11.049  23.692  0.00  0.00    -0.647 OA
ATOM     10  O   UNL d   1     -49.168  11.421  22.333  0.00  0.00    -0.647 OA
ENDBRANCH   7   8
ENDBRANCH   6   7
ENDBRANCH   2   6
TORSDOF 3
ENDMDL
MODEL 2
REMARK VINA RESULT:      -4.6      1.902      2.339
REMARK  3 active torsions:
REMARK  status: ('A' for Active; 'I' for Inactive)
REMARK    1  A    between atoms: S_6  and  C_2 
REMARK    2  A    between atoms: C_9  and  S_6 
REMARK    3  A    between atoms: C_7  and  C_9 
ROOT
ATOM      1  N   UNL d   1     -47.237  12.172  23.269  0.00  0.00    -0.196 NA
ATOM      2  C   UNL d   1     -46.964  12.914  23.006  0.00  0.00     0.213 A 
ATOM      3  N   UNL d   1     -45.973  12.325  23.696  0.00  0.00    -0.123 NA
ATOM      4  N   UNL d   1     -46.186  13.005  23.269  0.00  0.00    -0.120 NA
ATOM      5  C   UNL d   1     -46.617  11.812  23.696  0.00  0.00     0.224 A 
ENDROOT
BRANCH   2   6
ATOM      6  S   UNL d   1     -47.396  13.456  22.561  0.00  0.00    -0.062 SA
BRANCH   6   7
ATOM      7  C   UNL d   1     -47.922  13.978  22.935  0.00  0.00     0.162 C 
BRANCH   7   8
ATOM      8  C   UNL d   1     -48.351  14.528  22.494  0.00  0.00     0.197 C 
ATOM      9  O   UNL d   1     -48.979  14.269  22.012  0.00  0.00    -0.647 OA
ATOM     10  O   UNL d   1     -48.160  15.330  22.532  0.00  0.00    -0.647 OA
ENDBRANCH   7   8
ENDBRANCH   6   7
ENDBRANCH   2   6
TORSDOF 3
ENDMDL
MODEL 3
REMARK VINA RESULT:      -4.2      2.068      2.544
REMARK  3 active torsions:
REMARK  status: ('A' for Active; 'I' for Inactive)
REMARK    1  A    between atoms: S_6  and  C_2 
REMARK    2  A    between atoms: C_9  and  S_6 
REMARK    3  A    between atoms: C_7  and  C_9 
ROOT
ATOM      1  N   UNL d   1     -47.929  12.274  23.346  0.00  0.00    -0.196 NA
ATOM      2  C   UNL d   1     -48.722  12.104  23.154  0.00  0.00     0.213 A 
ATOM      3  N   UNL d   1     -48.177  11.003  23.698  0.00  0.00    -0.123 NA
ATOM      4  N   UNL d   1     -48.872  11.321  23.372  0.00  0.00    -0.120 NA
ATOM      5  C   UNL d   1     -47.597  11.587  23.682  0.00  0.00     0.224 A 
ENDROOT
BRANCH   2   6
ATOM      6  S   UNL d   1     -49.257  12.626  22.810  0.00  0.00    -0.062 SA
BRANCH   6   7
ATOM      7  C   UNL d   1     -49.353  12.643  21.986  0.00  0.00     0.162 C 
BRANCH   7   8
ATOM      8  C   UNL d   1     -49.866  13.185  21.634  0.00  0.00     0.197 C 
ATOM      9  O   UNL d   1     -50.663  12.978  21.511  0.00  0.00    -0.647 OA
ATOM     10  O   UNL d   1     -49.591  13.928  21.406  0.00  0.00    -0.647 OA
ENDBRANCH   7   8
ENDBRANCH   6   7
ENDBRANCH   2   6
TORSDOF 3
ENDMDL
MODEL 4
REMARK VINA RESULT:      -4.1      1.523      1.788
REMARK  3 active torsions:
REMARK  status: ('A' for Active; 'I' for Inactive)
REMARK    1  A    between atoms: S_6  and  C_2 
REMARK    2  A    between atoms: C_9  and  S_6 
REMARK    3  A    between atoms: C_7  and  C_9 
ROOT
ATOM      1  N   UNL d   1     -49.064  14.284  22.392  0.00  0.00    -0.196 NA
ATOM      2  C   UNL d   1     -48.511  13.681  22.554  0.00  0.00     0.213 A 
ATOM      3  N   UNL d   1     -47.893  14.865  22.697  0.00  0.00    -0.123 NA
ATOM      4  N   UNL d   1     -47.792  14.042  22.741  0.00  0.00    -0.120 NA
ATOM      5  C   UNL d   1     -48.673  15.015  22.483  0.00  0.00     0.224 A 
ENDROOT
BRANCH   2   6
ATOM      6  S   UNL d   1     -48.661  12.871  22.530  0.00  0.00    -0.062 SA
BRANCH   6   7
ATOM      7  C   UNL d   1     -48.758  12.443  23.233  0.00  0.00     0.162 C 
BRANCH   7   8
ATOM      8  C   UNL d   1     -48.938  11.638  23.213  0.00  0.00     0.197 C 
ATOM      9  O   UNL d   1     -48.348  11.090  23.001  0.00  0.00    -0.647 OA
ATOM     10  O   UNL d   1     -49.697  11.378  23.402  0.00  0.00    -0.647 OA
ENDBRANCH   7   8
ENDBRANCH   6   7
ENDBRANCH   2   6
TORSDOF 3
ENDMDL
MODEL 5
REMARK VINA RESULT:      -3.8      2.546      2.915
REMARK  3 active torsions:
REMARK  status: ('A' for Active; 'I' for Inactive)
REMARK    1  A    between atoms: S_6  and  C_2 
REMARK    2  A    between atoms: C_9  and  S_6 
REMARK    3  A    between atoms: C_7  and  C_9 
ROOT
ATOM      1  N   UNL d   1     -49.089  15.187  22.776  0.00  0.00    -0.196 NA
ATOM      2  C   UNL d   1     -49.271  14.387  22.920  0.00  0.00     0.213 A 
ATOM      3  N   UNL d   1     -50.131  15.144  23.621  0.00  0.00    -0.123 NA
ATOM      4  N   UNL d   1     -49.912  14.363  23.440  0.00  0.00    -0.120 NA
ATOM      5  C   UNL d   1     -49.626  15.651  23.214  0.00  0.00     0.224 A 
ENDROOT
BRANCH   2   6
ATOM      6  S   UNL d   1     -48.878  13.738  22.598  0.00  0.00    -0.062 SA
BRANCH   6   7
ATOM      7  C   UNL d   1     -49.226  13.300  21.986  0.00  0.00     0.162 C 
BRANCH   7   8
ATOM      8  C   UNL d   1     -48.831  12.656  21.653  0.00  0.00     0.197 C 
ATOM      9  O   UNL d   1     -48.915  11.902  21.995  0.00  0.00    -0.647 OA
ATOM     10  O   UNL d   1     -48.357  12.760  20.986  0.00  0.00    -0.647 OA
ENDBRANCH   7   8
ENDBRANCH   6   7
ENDBRANCH   2   6
TORSDOF 3
ENDMDL
MODEL 6
REMARK VINA RESULT:      -3.6      8.086      8.518
REMARK  3 active torsions:
REMARK  status: ('A' for Active; 'I' for Inactive)
REMARK    1  A    between atoms: S_6  and  C_2 
REMARK    2  A    between atoms: C_9  and  S_6 
REMARK    3  A    between atoms: C_7  and  C_9 
ROOT
ATOM      1  N   UNL d   1     -40.218  15.163  18.158  0.00  0.00    -0.196 NA
ATOM      2  C   UNL d   1     -40.372  14.612  18.764  0.00  0.00     0.213 A 
ATOM      3  N   UNL d   1     -40.826  14.100  17.607  0.00  0.00    -0.123 NA
ATOM      4  N   UNL d   1     -40.746  13.958  18.422  0.00  0.00    -0.120 NA
ATOM      5  C   UNL d   1     -40.503  14.838  17.444  0.00  0.00     0.224 A 
ENDROOT
BRANCH   2   6
ATOM      6  S   UNL d   1     -40.183  14.706  19.560  0.00  0.00    -0.062 SA
BRANCH   6   7
ATOM      7  C   UNL d   1     -40.774  14.655  20.139  0.00  0.00     0.162 C 
BRANCH   7   8
ATOM      8  C   UNL d   1     -40.617  14.869  20.920  0.00  0.00     0.197 C 
ATOM      9  O   UNL d   1     -41.002  15.528  21.252  0.00  0.00    -0.647 OA
ATOM     10  O   UNL d   1     -40.081  14.431  21.369  0.00  0.00    -0.647 OA
ENDBRANCH   7   8
ENDBRANCH   6   7
ENDBRANCH   2   6
TORSDOF 3
ENDMDL
MODEL 7
REMARK VINA RESULT:      -3.6      9.526      9.871
REMARK  3 active torsions:
REMARK  status: ('A' for Active; 'I' for Inactive)
REMARK    1  A    between atoms: S_6  and  C_2 
REMARK    2  A    between atoms: C_9  and  S_6 
REMARK    3  A    between atoms: C_7  and  C_9 
ROOT
ATOM      1  N   UNL d   1     -40.049  15.321  17.625  0.00  0.00    -0.196 NA
ATOM      2  C   UNL d   1     -40.164  14.508  17.766  0.00  0.00     0.213 A 
ATOM      3  N   UNL d   1     -41.312  15.015  17.287  0.00  0.00    -0.123 NA
ATOM      4  N   UNL d   1     -40.942  14.322  17.558  0.00  0.00    -0.120 NA
ATOM      5  C   UNL d   1     -40.766  15.629  17.328  0.00  0.00     0.224 A 
ENDROOT
BRANCH   2   6
ATOM      6  S   UNL d   1     -39.599  13.986  18.062  0.00  0.00    -0.062 SA
BRANCH   6   7
ATOM      7  C   UNL d   1     -39.103  13.570  17.544  0.00  0.00     0.162 C 
BRANCH   7   8
ATOM      8  C   UNL d   1     -38.602  12.978  17.826  0.00  0.00     0.197 C 
ATOM      9  O   UNL d   1     -38.759  12.182  17.641  0.00  0.00    -0.647 OA
ATOM     10  O   UNL d   1     -37.948  13.176  18.289  0.00  0.00    -0.647 OA
ENDBRANCH   7   8
ENDBRANCH   6   7
ENDBRANCH   2   6
TORSDOF 3
ENDMDL
MODEL 8
REMARK VINA RESULT:      -3.4      9.596     10.306
REMARK  3 active torsions:
REMARK  status: ('A' for Active; 'I' for Inactive)
REMARK    1  A    between atoms: S_6  and  C_2 
REMARK    2  A    between atoms: C_9  and  S_6 
REMARK    3  A    between atoms: C_7  and  C_9 
ROOT
ATOM      1  N   UNL d   1     -39.783  14.431  18.717  0.00  0.00    -0.196 NA
ATOM      2  C   UNL d   1     -39.798  14.096  17.954  0.00  0.00     0.213 A 
ATOM      3  N   UNL d   1     -41.028  13.985  18.484  0.00  0.00    -0.123 NA
ATOM      4  N   UNL d   1     -40.565  13.822  17.813  0.00  0.00    -0.120 NA
ATOM      5  C   UNL d   1     -40.549  14.358  19.040  0.00  0.00     0.224 A 
ENDROOT
BRANCH   2   6
ATOM      6  S   UNL d   1     -39.160  14.048  17.436  0.00  0.00    -0.062 SA
BRANCH   6   7
ATOM      7  C   UNL d   1     -39.191  14.425  16.698  0.00  0.00     0.162 C 
BRANCH   7   8
ATOM      8  C   UNL d   1     -38.542  14.408  16.189  0.00  0.00     0.197 C 
ATOM      9  O   UNL d   1     -38.320  13.691  15.830  0.00  0.00    -0.647 OA
ATOM     10  O   UNL d   1     -38.116  15.098  16.038  0.00  0.00    -0.647 OA
ENDBRANCH   7   8
ENDBRANCH   6   7
ENDBRANCH   2   6
TORSDOF 3
ENDMDL
MODEL 9
REMARK VINA RESULT:      -2.3      8.176      8.533
REMARK  3 active torsions:
REMARK  status: ('A' for Active; 'I' for Inactive)
REMARK    1  A    between atoms: S_6  and  C_2 
REMARK    2  A    between atoms: C_9  and  S_6 
REMARK    3  A    between atoms: C_7  and  C_9 
ROOT
ATOM      1  N   UNL d   1     -40.070  15.798  21.440  0.00  0.00    -0.196 NA
ATOM      2  C   UNL d   1     -39.957  14.976  21.512  0.00  0.00     0.213 A 
ATOM      3  N   UNL d   1     -41.097  15.183  20.831  0.00  0.00    -0.123 NA
ATOM      4  N   UNL d   1     -40.590  14.599  21.136  0.00  0.00    -0.120 NA
ATOM      5  C   UNL d   1     -40.779  15.919  21.016  0.00  0.00     0.224 A 
ENDROOT
BRANCH   2   6
ATOM      6  S   UNL d   1     -39.325  14.608  21.891  0.00  0.00    -0.062 SA
BRANCH   6   7
ATOM      7  C   UNL d   1     -39.283  13.780  21.925  0.00  0.00     0.162 C 
BRANCH   7   8
ATOM      8  C   UNL d   1     -38.655  13.407  22.310  0.00  0.00     0.197 C 
ATOM      9  O   UNL d   1     -38.044  13.063  21.862  0.00  0.00    -0.647 OA
ATOM     10  O   UNL d   1     -38.634  13.376  23.134  0.00  0.00    -0.647 OA
ENDBRANCH   7   8
ENDBRANCH   6   7
ENDBRANCH   2   6
TORSDOF 3
ENDMDL
