MODEL 1
REMARK VINA RESULT:       7.5      0.000      0.000
REMARK  3 active torsions:
REMARK  status: ('A' for Active; 'I' for Inactive)
REMARK    1  A    between atoms: C_6  and  C_1 
REMARK    2  A    between atoms: O_9  and  C_6 
REMARK    3  A    between atoms: C_12  and  O_9 
ROOT
ATOM      1  C   UNL d   1      45.292 -13.919  44.330  0.00  0.00     0.089 A 
ATOM      2  C   UNL d   1      46.048 -13.620  44.505  0.00  0.00     0.138 A 
ATOM      3  S   UNL d   1      46.113 -12.897  44.160  0.00  0.00    -0.066 SA
ATOM      4  C   UNL d   1      44.917 -13.363  43.880  0.00  0.00     0.013 A 
ATOM      5  C   UNL d   1      45.407 -12.741  43.772  0.00  0.00     0.031 A 
ATOM      6  N   UNL d   1      46.644 -13.986  44.953  0.00  0.00    -0.141 N 
ATOM      7  C   UNL d   1      44.151 -13.372  43.552  0.00  0.00     0.001 A 
ATOM      8  C   UNL d   1      45.162 -12.081  43.325  0.00  0.00     0.006 A 
ATOM      9  C   UNL d   1      43.910 -12.709  43.105  0.00  0.00     0.000 A 
ATOM     10  C   UNL d   1      44.405 -12.101  43.006  0.00  0.00     0.001 A 
ENDROOT
BRANCH   1  11
ATOM     11  C   UNL d   1      45.004 -14.666  44.591  0.00  0.00     0.302 C 
ATOM     12  O   UNL d   1      44.273 -14.703  44.931  0.00  0.00    -0.259 OA
BRANCH  11  13
ATOM     13  O   UNL d   1      45.468 -15.307  44.489  0.00  0.00    -0.271 OA
BRANCH  13  14
ATOM     14  C   UNL d   1      45.168 -16.044  44.653  0.00  0.00     0.126 C 
ATOM     15  C   UNL d   1      45.670 -16.628  44.950  0.00  0.00     0.029 C 
ENDBRANCH  13  14
ENDBRANCH  11  13
ENDBRANCH   1  11
TORSDOF 3
ENDMDL
MODEL 2
REMARK VINA RESULT:       8.0      7.272      7.794
REMARK  3 active torsions:
REMARK  status: ('A' for Active; 'I' for Inactive)
REMARK    1  A    between atoms: C_6  and  C_1 
REMARK    2  A    between atoms: O_9  and  C_6 
REMARK    3  A    between atoms: C_12  and  O_9 
ROOT
ATOM      1  C   UNL d   1      44.368 -15.536  36.934  0.00  0.00     0.089 A 
ATOM      2  C   UNL d   1      44.619 -16.225  36.542  0.00  0.00     0.138 A 
ATOM      3  S   UNL d   1      45.407 -16.153  36.396  0.00  0.00    -0.066 SA
ATOM      4  C   UNL d   1      45.017 -15.062  37.015  0.00  0.00     0.013 A 
ATOM      5  C   UNL d   1      45.650 -15.427  36.691  0.00  0.00     0.031 A 
ATOM      6  N   UNL d   1      44.157 -16.882  36.330  0.00  0.00    -0.141 N 
ATOM      7  C   UNL d   1      45.086 -14.309  37.364  0.00  0.00     0.001 A 
ATOM      8  C   UNL d   1      46.399 -15.061  36.696  0.00  0.00     0.006 A 
ATOM      9  C   UNL d   1      45.838 -13.946  37.367  0.00  0.00     0.000 A 
ATOM     10  C   UNL d   1      46.455 -14.319  37.043  0.00  0.00     0.001 A 
ENDROOT
BRANCH   1  11
ATOM     11  C   UNL d   1      43.578 -15.393  37.186  0.00  0.00     0.302 C 
ATOM     12  O   UNL d   1      43.447 -15.186  37.955  0.00  0.00    -0.259 OA
BRANCH  11  13
ATOM     13  O   UNL d   1      42.991 -15.468  36.651  0.00  0.00    -0.271 OA
BRANCH  13  14
ATOM     14  C   UNL d   1      42.219 -15.414  36.898  0.00  0.00     0.126 C 
ATOM     15  C   UNL d   1      41.612 -15.459  36.342  0.00  0.00     0.029 C 
ENDBRANCH  13  14
ENDBRANCH  11  13
ENDBRANCH   1  11
TORSDOF 3
ENDMDL
MODEL 3
REMARK VINA RESULT:       9.5      3.588      5.692
REMARK  3 active torsions:
REMARK  status: ('A' for Active; 'I' for Inactive)
REMARK    1  A    between atoms: C_6  and  C_1 
REMARK    2  A    between atoms: O_9  and  C_6 
REMARK    3  A    between atoms: C_12  and  O_9 
ROOT
ATOM      1  C   UNL d   1      46.343 -18.369  43.082  0.00  0.00     0.089 A 
ATOM      2  C   UNL d   1      46.315 -18.775  42.356  0.00  0.00     0.138 A 
ATOM      3  S   UNL d   1      46.400 -19.560  42.510  0.00  0.00    -0.066 SA
ATOM      4  C   UNL d   1      46.445 -18.924  43.659  0.00  0.00     0.013 A 
ATOM      5  C   UNL d   1      46.481 -19.648  43.322  0.00  0.00     0.031 A 
ATOM      6  N   UNL d   1      46.218 -18.449  41.599  0.00  0.00    -0.141 N 
ATOM      7  C   UNL d   1      46.509 -18.829  44.484  0.00  0.00     0.001 A 
ATOM      8  C   UNL d   1      46.584 -20.330  43.791  0.00  0.00     0.006 A 
ATOM      9  C   UNL d   1      46.613 -19.515  44.950  0.00  0.00     0.000 A 
ATOM     10  C   UNL d   1      46.647 -20.224  44.603  0.00  0.00     0.001 A 
ENDROOT
BRANCH   1  11
ATOM     11  C   UNL d   1      46.274 -17.534  43.162  0.00  0.00     0.302 C 
ATOM     12  O   UNL d   1      46.492 -17.065  42.543  0.00  0.00    -0.259 OA
BRANCH  11  13
ATOM     13  O   UNL d   1      45.995 -17.242  43.850  0.00  0.00    -0.271 OA
BRANCH  13  14
ATOM     14  C   UNL d   1      45.893 -16.440  43.928  0.00  0.00     0.126 C 
ATOM     15  C   UNL d   1      45.406 -16.150  44.528  0.00  0.00     0.029 C 
ENDBRANCH  13  14
ENDBRANCH  11  13
ENDBRANCH   1  11
TORSDOF 3
ENDMDL
