MODEL 1
REMARK VINA RESULT:      12.3      0.000      0.000
REMARK  4 active torsions:
REMARK  status: ('A' for Active; 'I' for Inactive)
REMARK    1  A    between atoms: C_3  and  C_1 
REMARK       I    between atoms: N_6  and  C_3 
REMARK    2  A    between atoms: C_12  and  N_5 
REMARK    3  A    between atoms: C_8  and  N_6 
REMARK    4  A    between atoms: S_11  and  C_10 
ROOT
ATOM      1  C   UNL d   1      46.230 -16.945  43.668  0.00  0.00     0.348 C 
ATOM      2  N   UNL d   1      46.248 -17.707  44.005  0.00  0.00    -0.363 NA
ATOM      3  O   UNL d   1      46.549 -16.816  42.888  0.00  0.00    -0.249 OA
ENDROOT
BRANCH   1   4
ATOM      4  C   UNL d   1      45.897 -16.314  44.104  0.00  0.00     0.173 A 
ATOM      5  N   UNL d   1      46.251 -15.571  44.232  0.00  0.00    -0.159 NA
ATOM      6  N   UNL d   1      45.721 -15.123  44.693  0.00  0.00    -0.227 N 
ATOM      7  C   UNL d   1      45.056 -15.584  44.844  0.00  0.00     0.102 A 
ATOM      8  C   UNL d   1      45.161 -16.322  44.481  0.00  0.00     0.048 A 
BRANCH   6   9
ATOM      9  C   UNL d   1      45.847 -14.347  44.953  0.00  0.00     0.101 C 
ATOM     10  C   UNL d   1      45.795 -13.602  44.602  0.00  0.00     0.022 C 
ENDBRANCH   6   9
ENDBRANCH   1   4
BRANCH   2  11
ATOM     11  C   UNL d   1      46.386 -18.583  44.127  0.00  0.00     0.141 A 
ATOM     12  C   UNL d   1      46.397 -19.064  43.462  0.00  0.00     0.055 A 
ATOM     13  C   UNL d   1      46.520 -19.856  43.547  0.00  0.00     0.009 A 
ATOM     14  C   UNL d   1      46.634 -20.178  44.300  0.00  0.00     0.001 A 
ATOM     15  C   UNL d   1      46.622 -19.695  44.953  0.00  0.00     0.003 A 
ATOM     16  C   UNL d   1      46.496 -18.891  44.860  0.00  0.00     0.033 A 
BRANCH  12  17
ATOM     17  S   UNL d   1      46.283 -18.747  42.704  0.00  0.00    -0.110 SA
ATOM     18  C   UNL d   1      46.432 -19.199  42.020  0.00  0.00     0.074 C 
ENDBRANCH  12  17
ENDBRANCH   2  11
TORSDOF 4
ENDMDL
