MODEL 1
REMARK VINA RESULT:      78.6      0.000      0.000
REMARK  5 active torsions:
REMARK  status: ('A' for Active; 'I' for Inactive)
REMARK    1  A    between atoms: C_9  and  N_1 
REMARK    2  A    between atoms: C_2  and  C_9 
REMARK    3  A    between atoms: S_14  and  C_5 
REMARK    4  A    between atoms: C_12  and  C_16 
REMARK       I    between atoms: N_13  and  C_12 
REMARK    5  A    between atoms: C_16  and  S_14 
ROOT
ATOM      1  C   UNL d   1      59.307  49.021  50.770  0.00  0.00     0.189 A 
ATOM      2  N   UNL d   1      60.056  49.036  50.437  0.00  0.00    -0.265 N 
ATOM      3  C   UNL d   1      60.372  48.276  50.486  0.00  0.00     0.202 A 
ATOM      4  N   UNL d   1      59.158  48.255  51.025  0.00  0.00    -0.126 NA
ATOM      5  N   UNL d   1      59.815  47.792  50.850  0.00  0.00    -0.121 NA
ATOM      6  C   UNL d   1      60.440  49.689  50.107  0.00  0.00     0.103 C 
ENDROOT
BRANCH   1   7
ATOM      7  C   UNL d   1      58.859  49.704  50.798  0.00  0.00     0.123 C 
BRANCH   7   8
ATOM      8  N   UNL d   1      58.036  49.662  50.862  0.00  0.00    -0.265 N 
ATOM      9  C   UNL d   1      57.604  49.620  51.568  0.00  0.00     0.296 A 
ATOM     10  S   UNL d   1      56.805  49.587  51.369  0.00  0.00    -0.025 SA
ATOM     11  O   UNL d   1      57.919  49.613  52.329  0.00  0.00    -0.259 OA
ATOM     12  C   UNL d   1      56.750  49.609  50.536  0.00  0.00     0.050 A 
ATOM     13  C   UNL d   1      57.513  49.655  50.230  0.00  0.00     0.074 A 
ATOM     14  C   UNL d   1      56.096  49.592  50.027  0.00  0.00     0.008 A 
ATOM     15  C   UNL d   1      57.626  49.685  49.408  0.00  0.00     0.018 A 
ATOM     16  C   UNL d   1      56.977  49.668  48.896  0.00  0.00     0.002 A 
ATOM     17  C   UNL d   1      56.210  49.621  49.216  0.00  0.00     0.001 A 
ENDBRANCH   7   8
ENDBRANCH   1   7
BRANCH   3  18
ATOM     18  S   UNL d   1      61.115  48.040  50.217  0.00  0.00    -0.043 SA
BRANCH  18  19
ATOM     19  C   UNL d   1      61.421  47.300  50.422  0.00  0.00     0.099 C 
BRANCH  19  20
ATOM     20  C   UNL d   1      61.970  46.923  49.931  0.00  0.00     0.271 C 
ATOM     21  N   UNL d   1      61.836  46.153  49.677  0.00  0.00    -0.272 N 
ATOM     22  C   UNL d   1      62.445  45.885  49.196  0.00  0.00     0.083 A 
ATOM     23  C   UNL d   1      61.152  45.753  49.912  0.00  0.00     0.083 A 
ATOM     24  C   UNL d   1      62.529  45.151  48.828  0.00  0.00     0.019 A 
ATOM     25  C   UNL d   1      62.024  44.507  48.851  0.00  0.00     0.002 A 
ATOM     26  C   UNL d   1      61.290  44.442  49.261  0.00  0.00     0.002 A 
ATOM     27  C   UNL d   1      60.905  44.981  49.724  0.00  0.00     0.019 A 
ATOM     28  O   UNL d   1      62.647  47.320  49.698  0.00  0.00    -0.266 OA
ENDBRANCH  19  20
ENDBRANCH  18  19
ENDBRANCH   3  18
TORSDOF 5
ENDMDL
