MODEL 1
REMARK VINA RESULT:      84.7      0.000      0.000
REMARK  6 active torsions:
REMARK  status: ('A' for Active; 'I' for Inactive)
REMARK    1  A    between atoms: C_14  and  N_1 
REMARK    2  A    between atoms: S_12  and  C_3 
REMARK    3  A    between atoms: C_5  and  N_11 
REMARK    4  A    between atoms: C_15  and  C_8 
REMARK       I    between atoms: N_11  and  C_13 
REMARK    5  A    between atoms: C_17  and  S_12 
REMARK    6  A    between atoms: C_13  and  C_17 
ROOT
ATOM      1  N   UNL d   1      61.658  46.169  49.748  0.00  0.00    -0.181 NA
ATOM      2  C   UNL d   1      61.206  46.605  50.299  0.00  0.00     0.288 C 
ATOM      3  O   UNL d   1      60.821  46.216  50.902  0.00  0.00    -0.265 OA
ENDROOT
BRANCH   2   4
ATOM      4  C   UNL d   1      61.156  47.423  50.221  0.00  0.00     0.101 C 
BRANCH   4   5
ATOM      5  S   UNL d   1      60.632  47.841  50.698  0.00  0.00    -0.041 SA
BRANCH   5   6
ATOM      6  C   UNL d   1      60.906  48.476  51.136  0.00  0.00     0.219 A 
ATOM      7  N   UNL d   1      60.472  49.178  51.176  0.00  0.00    -0.186 N 
ATOM      8  N   UNL d   1      60.881  49.707  51.650  0.00  0.00    -0.038 NA
ATOM      9  N   UNL d   1      61.564  49.346  51.906  0.00  0.00    -0.022 NA
ATOM     10  N   UNL d   1      61.589  48.578  51.592  0.00  0.00    -0.101 NA
BRANCH   7  11
ATOM     11  C   UNL d   1      59.755  49.354  50.819  0.00  0.00     0.087 A 
ATOM     12  C   UNL d   1      59.055  49.356  51.272  0.00  0.00     0.019 A 
ATOM     13  C   UNL d   1      58.338  49.532  50.915  0.00  0.00     0.002 A 
ATOM     14  C   UNL d   1      58.301  49.708  50.112  0.00  0.00     0.000 A 
ATOM     15  C   UNL d   1      58.996  49.706  49.660  0.00  0.00     0.002 A 
ATOM     16  C   UNL d   1      59.725  49.529  50.013  0.00  0.00     0.019 A 
ENDBRANCH   7  11
ENDBRANCH   5   6
ENDBRANCH   4   5
ENDBRANCH   2   4
BRANCH   1  17
ATOM     17  C   UNL d   1      61.715  45.341  49.818  0.00  0.00     0.216 A 
ATOM     18  N   UNL d   1      62.024  44.916  50.456  0.00  0.00    -0.200 NA
ATOM     19  C   UNL d   1      61.964  44.118  50.277  0.00  0.00     0.172 A 
ATOM     20  N   UNL d   1      61.622  44.046  49.538  0.00  0.00    -0.187 NA
ATOM     21  S   UNL d   1      61.468  44.814  49.256  0.00  0.00     0.054 SA
BRANCH  19  22
ATOM     22  C   UNL d   1      62.180  43.438  50.698  0.00  0.00     0.036 A 
ATOM     23  C   UNL d   1      61.758  43.222  51.367  0.00  0.00     0.003 A 
ATOM     24  C   UNL d   1      61.972  42.540  51.791  0.00  0.00     0.000 A 
ATOM     25  C   UNL d   1      62.604  42.086  51.542  0.00  0.00     0.000 A 
ATOM     26  C   UNL d   1      63.031  42.308  50.861  0.00  0.00     0.000 A 
ATOM     27  C   UNL d   1      62.824  42.980  50.439  0.00  0.00     0.003 A 
ENDBRANCH  19  22
ENDBRANCH   1  17
TORSDOF 6
ENDMDL
