MODEL 1
REMARK VINA RESULT:      10.8      0.000      0.000
REMARK  2 active torsions:
REMARK  status: ('A' for Active; 'I' for Inactive)
REMARK    1  A    between atoms: C_4  and  C_3 
REMARK    2  A    between atoms: S_11  and  C_6 
ROOT
ATOM      1  N   UNL d   1      58.732  49.707  49.668  0.00  0.00    -0.146 NA
ATOM      2  N   UNL d   1      59.536  49.703  49.859  0.00  0.00    -0.142 NA
ATOM      3  C   UNL d   1      58.169  49.691  50.268  0.00  0.00     0.126 A 
ATOM      4  C   UNL d   1      59.773  49.683  50.649  0.00  0.00     0.128 A 
ATOM      5  C   UNL d   1      58.405  49.671  51.058  0.00  0.00     0.025 A 
ATOM      6  C   UNL d   1      59.206  49.666  51.248  0.00  0.00     0.029 A 
ENDROOT
BRANCH   3   7
ATOM      7  C   UNL d   1      57.370  49.696  50.086  0.00  0.00     0.119 A 
ATOM      8  O   UNL d   1      56.752  49.705  50.630  0.00  0.00    -0.304 OA
ATOM      9  C   UNL d   1      56.034  49.706  50.219  0.00  0.00     0.123 A 
ATOM     10  C   UNL d   1      56.211  49.698  49.407  0.00  0.00     0.029 A 
ATOM     11  C   UNL d   1      57.035  49.691  49.329  0.00  0.00     0.028 A 
ENDBRANCH   3   7
BRANCH   4  12
ATOM     12  S   UNL d   1      60.578  49.678  50.840  0.00  0.00    -0.092 SA
ATOM     13  C   UNL d   1      60.814  49.698  51.630  0.00  0.00     0.076 C 
ENDBRANCH   4  12
TORSDOF 2
ENDMDL
MODEL 2
REMARK VINA RESULT:      11.0      1.596      3.213
REMARK  2 active torsions:
REMARK  status: ('A' for Active; 'I' for Inactive)
REMARK    1  A    between atoms: C_4  and  C_3 
REMARK    2  A    between atoms: S_11  and  C_6 
ROOT
ATOM      1  N   UNL d   1      58.498  49.688  49.863  0.00  0.00    -0.146 NA
ATOM      2  N   UNL d   1      57.702  49.691  49.638  0.00  0.00    -0.142 NA
ATOM      3  C   UNL d   1      58.697  49.693  50.662  0.00  0.00     0.126 A 
ATOM      4  C   UNL d   1      57.110  49.698  50.213  0.00  0.00     0.128 A 
ATOM      5  C   UNL d   1      58.105  49.700  51.236  0.00  0.00     0.025 A 
ATOM      6  C   UNL d   1      57.313  49.702  51.012  0.00  0.00     0.029 A 
ENDROOT
BRANCH   3   7
ATOM      7  C   UNL d   1      59.483  49.690  50.893  0.00  0.00     0.119 A 
ATOM      8  O   UNL d   1      59.756  49.670  51.669  0.00  0.00    -0.304 OA
ATOM      9  C   UNL d   1      60.584  49.675  51.660  0.00  0.00     0.123 A 
ATOM     10  C   UNL d   1      60.826  49.698  50.865  0.00  0.00     0.029 A 
ATOM     11  C   UNL d   1      60.144  49.708  50.395  0.00  0.00     0.028 A 
ENDBRANCH   3   7
BRANCH   4  12
ATOM     12  S   UNL d   1      56.314  49.700  49.987  0.00  0.00    -0.092 SA
ATOM     13  C   UNL d   1      56.111  49.640  49.190  0.00  0.00     0.076 C 
ENDBRANCH   4  12
TORSDOF 2
ENDMDL
