MODEL 1
REMARK VINA RESULT:      -5.4      0.000      0.000
REMARK  0 active torsions:
REMARK  status: ('A' for Active; 'I' for Inactive)
ROOT
ATOM      1  C   UNL d   1     -41.230-121.817 -51.995  0.00  0.00     0.134 A 
ATOM      2  N   UNL d   1     -41.297-122.009 -52.794  0.00  0.00    -0.234 NA
ATOM      3  C   UNL d   1     -41.210-122.423 -51.433  0.00  0.00     0.045 A 
ATOM      4  C   UNL d   1     -41.343-122.799 -53.027  0.00  0.00     0.207 A 
ATOM      5  N   UNL d   1     -41.324-123.409 -52.465  0.00  0.00    -0.244 NA
ATOM      6  C   UNL d   1     -41.257-123.217 -51.667  0.00  0.00     0.081 A 
ATOM      7  S   UNL d   1     -41.183-121.028 -51.759  0.00  0.00    -0.058 SA
ATOM      8  C   UNL d   1     -41.143-122.233 -50.631  0.00  0.00     0.004 A 
ATOM      9  C   UNL d   1     -41.363-122.200 -53.591  0.00  0.00     0.023 A 
ATOM     10  C   UNL d   1     -41.390-123.590 -53.255  0.00  0.00     0.023 A 
ATOM     11  C   UNL d   1     -41.236-123.817 -51.098  0.00  0.00     0.019 A 
ATOM     12  C   UNL d   1     -41.123-122.831 -50.066  0.00  0.00     0.000 A 
ATOM     13  C   UNL d   1     -41.456-123.784 -54.045  0.00  0.00    -0.001 A 
ATOM     14  C   UNL d   1     -41.430-122.392 -54.390  0.00  0.00    -0.001 A 
ATOM     15  C   UNL d   1     -41.169-123.625 -50.300  0.00  0.00     0.002 A 
ATOM     16  C   UNL d   1     -41.477-123.183 -54.619  0.00  0.00    -0.000 A 
ENDROOT
TORSDOF 0
ENDMDL
MODEL 2
REMARK VINA RESULT:      -4.4      1.137      1.885
REMARK  0 active torsions:
REMARK  status: ('A' for Active; 'I' for Inactive)
ROOT
ATOM      1  C   UNL d   1     -41.317-123.094 -52.713  0.00  0.00     0.134 A 
ATOM      2  N   UNL d   1     -41.511-123.060 -53.513  0.00  0.00    -0.234 NA
ATOM      3  C   UNL d   1     -41.318-122.398 -52.266  0.00  0.00     0.045 A 
ATOM      4  C   UNL d   1     -41.704-122.337 -53.861  0.00  0.00     0.207 A 
ATOM      5  N   UNL d   1     -41.706-121.638 -53.415  0.00  0.00    -0.244 NA
ATOM      6  C   UNL d   1     -41.512-121.672 -52.616  0.00  0.00     0.081 A 
ATOM      7  S   UNL d   1     -41.123-123.815 -52.361  0.00  0.00    -0.058 SA
ATOM      8  C   UNL d   1     -41.124-122.430 -51.463  0.00  0.00     0.004 A 
ATOM      9  C   UNL d   1     -41.704-123.026 -54.312  0.00  0.00     0.023 A 
ATOM     10  C   UNL d   1     -41.897-121.613 -54.205  0.00  0.00     0.023 A 
ATOM     11  C   UNL d   1     -41.511-120.981 -52.161  0.00  0.00     0.019 A 
ATOM     12  C   UNL d   1     -41.123-121.742 -51.012  0.00  0.00     0.000 A 
ATOM     13  C   UNL d   1     -42.089-121.576 -54.998  0.00  0.00    -0.001 A 
ATOM     14  C   UNL d   1     -41.899-122.992 -55.112  0.00  0.00    -0.001 A 
ATOM     15  C   UNL d   1     -41.317-121.016 -51.362  0.00  0.00     0.002 A 
ATOM     16  C   UNL d   1     -42.091-122.268 -55.457  0.00  0.00    -0.000 A 
ENDROOT
TORSDOF 0
ENDMDL
MODEL 3
REMARK VINA RESULT:      -4.2      0.626      2.834
REMARK  0 active torsions:
REMARK  status: ('A' for Active; 'I' for Inactive)
ROOT
ATOM      1  C   UNL d   1     -41.773-121.922 -53.031  0.00  0.00     0.134 A 
ATOM      2  N   UNL d   1     -41.698-122.111 -52.233  0.00  0.00    -0.234 NA
ATOM      3  C   UNL d   1     -41.595-122.494 -53.601  0.00  0.00     0.045 A 
ATOM      4  C   UNL d   1     -41.448-122.864 -52.008  0.00  0.00     0.207 A 
ATOM      5  N   UNL d   1     -41.269-123.440 -52.578  0.00  0.00    -0.244 NA
ATOM      6  C   UNL d   1     -41.344-123.251 -53.375  0.00  0.00     0.081 A 
ATOM      7  S   UNL d   1     -42.022-121.169 -53.260  0.00  0.00    -0.058 SA
ATOM      8  C   UNL d   1     -41.669-122.307 -54.403  0.00  0.00     0.004 A 
ATOM      9  C   UNL d   1     -41.623-122.299 -51.435  0.00  0.00     0.023 A 
ATOM     10  C   UNL d   1     -41.198-123.619 -51.788  0.00  0.00     0.023 A 
ATOM     11  C   UNL d   1     -41.168-123.817 -53.952  0.00  0.00     0.019 A 
ATOM     12  C   UNL d   1     -41.494-122.871 -54.976  0.00  0.00     0.000 A 
ATOM     13  C   UNL d   1     -41.123-123.809 -50.997  0.00  0.00    -0.001 A 
ATOM     14  C   UNL d   1     -41.548-122.488 -50.637  0.00  0.00    -0.001 A 
ATOM     15  C   UNL d   1     -41.243-123.628 -54.750  0.00  0.00     0.002 A 
ATOM     16  C   UNL d   1     -41.298-123.243 -50.416  0.00  0.00    -0.000 A 
ENDROOT
TORSDOF 0
ENDMDL
MODEL 4
REMARK VINA RESULT:      -3.4      0.898      2.917
REMARK  0 active torsions:
REMARK  status: ('A' for Active; 'I' for Inactive)
ROOT
ATOM      1  C   UNL d   1     -41.744-121.861 -51.825  0.00  0.00     0.134 A 
ATOM      2  N   UNL d   1     -41.840-122.059 -51.030  0.00  0.00    -0.234 NA
ATOM      3  C   UNL d   1     -41.537-122.451 -52.366  0.00  0.00     0.045 A 
ATOM      4  C   UNL d   1     -41.729-122.838 -50.782  0.00  0.00     0.207 A 
ATOM      5  N   UNL d   1     -41.521-123.431 -51.323  0.00  0.00    -0.244 NA
ATOM      6  C   UNL d   1     -41.426-123.234 -52.117  0.00  0.00     0.081 A 
ATOM      7  S   UNL d   1     -41.854-121.084 -52.077  0.00  0.00    -0.058 SA
ATOM      8  C   UNL d   1     -41.440-122.256 -53.164  0.00  0.00     0.004 A 
ATOM      9  C   UNL d   1     -41.936-122.256 -50.237  0.00  0.00     0.023 A 
ATOM     10  C   UNL d   1     -41.618-123.618 -50.538  0.00  0.00     0.023 A 
ATOM     11  C   UNL d   1     -41.218-123.817 -52.665  0.00  0.00     0.019 A 
ATOM     12  C   UNL d   1     -41.234-122.837 -53.709  0.00  0.00     0.000 A 
ATOM     13  C   UNL d   1     -41.712-123.817 -49.751  0.00  0.00    -0.001 A 
ATOM     14  C   UNL d   1     -42.032-122.453 -49.443  0.00  0.00    -0.001 A 
ATOM     15  C   UNL d   1     -41.123-123.619 -53.459  0.00  0.00     0.002 A 
ATOM     16  C   UNL d   1     -41.920-123.233 -49.198  0.00  0.00    -0.000 A 
ENDROOT
TORSDOF 0
ENDMDL
MODEL 5
REMARK VINA RESULT:      -2.5      2.599      4.616
REMARK  0 active torsions:
REMARK  status: ('A' for Active; 'I' for Inactive)
ROOT
ATOM      1  C   UNL d   1     -42.981-123.401 -49.374  0.00  0.00     0.134 A 
ATOM      2  N   UNL d   1     -42.797-123.539 -48.583  0.00  0.00    -0.234 NA
ATOM      3  C   UNL d   1     -42.419-123.042 -49.864  0.00  0.00     0.045 A 
ATOM      4  C   UNL d   1     -42.060-123.319 -48.285  0.00  0.00     0.207 A 
ATOM      5  N   UNL d   1     -41.494-122.959 -48.774  0.00  0.00    -0.244 NA
ATOM      6  C   UNL d   1     -41.678-122.821 -49.565  0.00  0.00     0.081 A 
ATOM      7  S   UNL d   1     -43.717-123.619 -49.675  0.00  0.00    -0.058 SA
ATOM      8  C   UNL d   1     -42.601-122.903 -50.658  0.00  0.00     0.004 A 
ATOM      9  C   UNL d   1     -42.614-123.676 -47.793  0.00  0.00     0.023 A 
ATOM     10  C   UNL d   1     -41.321-123.098 -47.992  0.00  0.00     0.023 A 
ATOM     11  C   UNL d   1     -41.123-122.463 -50.062  0.00  0.00     0.019 A 
ATOM     12  C   UNL d   1     -42.048-122.546 -51.151  0.00  0.00     0.000 A 
ATOM     13  C   UNL d   1     -41.136-123.233 -47.208  0.00  0.00    -0.001 A 
ATOM     14  C   UNL d   1     -42.431-123.814 -47.001  0.00  0.00    -0.001 A 
ATOM     15  C   UNL d   1     -41.307-122.325 -50.852  0.00  0.00     0.002 A 
ATOM     16  C   UNL d   1     -41.692-123.593 -46.707  0.00  0.00    -0.000 A 
ENDROOT
TORSDOF 0
ENDMDL
