MODEL 1
REMARK VINA RESULT:      -2.2      0.000      0.000
REMARK  6 active torsions:
REMARK  status: ('A' for Active; 'I' for Inactive)
REMARK    1  A    between atoms: C_4  and  C_2 
REMARK       I    between atoms: N_13  and  C_4 
REMARK    2  A    between atoms: O_17  and  C_8 
REMARK    3  A    between atoms: O_18  and  C_9 
REMARK    4  A    between atoms: C_19  and  N_13 
REMARK    5  A    between atoms: C_15  and  C_20 
REMARK    6  A    between atoms: C_20  and  C_19 
ROOT
ATOM      1  C   UNL d   1      32.793  17.806 -23.283  0.00  0.00     0.102 C 
ENDROOT
BRANCH   1   2
ATOM      2  N   UNL d   1      33.005  17.024 -23.441  0.00  0.00    -0.205 NA
ATOM      3  C   UNL d   1      32.452  16.500 -23.779  0.00  0.00     0.299 C 
ATOM      4  O   UNL d   1      32.675  15.716 -23.933  0.00  0.00    -0.263 OA
BRANCH   3   5
ATOM      5  C   UNL d   1      31.679  16.761 -23.963  0.00  0.00     0.161 A 
ATOM      6  N   UNL d   1      31.528  17.077 -24.706  0.00  0.00    -0.140 NA
ATOM      7  N   UNL d   1      30.774  17.334 -24.890  0.00  0.00    -0.105 NA
ATOM      8  C   UNL d   1      30.168  17.276 -24.334  0.00  0.00     0.297 A 
ATOM      9  C   UNL d   1      30.315  16.961 -23.593  0.00  0.00     0.066 A 
ATOM     10  O   UNL d   1      29.399  17.541 -24.532  0.00  0.00    -0.264 OA
ATOM     11  C   UNL d   1      31.073  16.703 -23.406  0.00  0.00     0.031 A 
ENDBRANCH   3   5
ENDBRANCH   1   2
BRANCH   1  12
ATOM     12  C   UNL d   1      33.239  18.256 -22.753  0.00  0.00     0.021 C 
BRANCH  12  13
ATOM     13  C   UNL d   1      33.237  19.076 -22.804  0.00  0.00     0.004 A 
ATOM     14  C   UNL d   1      33.231  19.524 -22.120  0.00  0.00     0.026 A 
ATOM     15  C   UNL d   1      33.229  20.347 -22.169  0.00  0.00     0.116 A 
ATOM     16  C   UNL d   1      33.232  20.716 -22.908  0.00  0.00     0.116 A 
ATOM     17  C   UNL d   1      33.238  20.260 -23.596  0.00  0.00     0.026 A 
ATOM     18  C   UNL d   1      33.241  19.444 -23.542  0.00  0.00     0.002 A 
BRANCH  15  19
ATOM     19  O   UNL d   1      33.223  20.807 -21.469  0.00  0.00    -0.326 OA
ATOM     20  C   UNL d   1      33.166  20.440 -20.732  0.00  0.00     0.181 C 
ENDBRANCH  15  19
BRANCH  16  21
ATOM     21  O   UNL d   1      33.230  21.550 -22.957  0.00  0.00    -0.326 OA
ATOM     22  C   UNL d   1      33.190  21.918 -23.695  0.00  0.00     0.181 C 
ENDBRANCH  16  21
ENDBRANCH  12  13
ENDBRANCH   1  12
TORSDOF 6
ENDMDL
MODEL 2
REMARK VINA RESULT:      -1.0      1.288      2.135
REMARK  6 active torsions:
REMARK  status: ('A' for Active; 'I' for Inactive)
REMARK    1  A    between atoms: C_4  and  C_2 
REMARK       I    between atoms: N_13  and  C_4 
REMARK    2  A    between atoms: O_17  and  C_8 
REMARK    3  A    between atoms: O_18  and  C_9 
REMARK    4  A    between atoms: C_19  and  N_13 
REMARK    5  A    between atoms: C_15  and  C_20 
REMARK    6  A    between atoms: C_20  and  C_19 
ROOT
ATOM      1  C   UNL d   1      32.711  19.137 -23.061  0.00  0.00     0.102 C 
ENDROOT
BRANCH   1   2
ATOM      2  N   UNL d   1      32.922  19.076 -23.857  0.00  0.00    -0.205 NA
ATOM      3  C   UNL d   1      32.710  18.400 -24.297  0.00  0.00     0.299 C 
ATOM      4  O   UNL d   1      32.926  18.349 -25.096  0.00  0.00    -0.263 OA
BRANCH   3   5
ATOM      5  C   UNL d   1      32.283  17.778 -23.937  0.00  0.00     0.161 A 
ATOM      6  N   UNL d   1      32.693  17.143 -23.614  0.00  0.00    -0.140 NA
ATOM      7  N   UNL d   1      32.280  16.533 -23.261  0.00  0.00    -0.105 NA
ATOM      8  C   UNL d   1      31.456  16.552 -23.228  0.00  0.00     0.297 A 
ATOM      9  C   UNL d   1      31.045  17.183 -23.548  0.00  0.00     0.066 A 
ATOM     10  O   UNL d   1      31.043  15.922 -22.864  0.00  0.00    -0.264 OA
ATOM     11  C   UNL d   1      31.459  17.798 -23.904  0.00  0.00     0.031 A 
ENDBRANCH   3   5
ENDBRANCH   1   2
BRANCH   1  12
ATOM     12  C   UNL d   1      33.230  19.487 -22.523  0.00  0.00     0.021 C 
BRANCH  12  13
ATOM     13  C   UNL d   1      32.985  20.129 -22.072  0.00  0.00     0.004 A 
ATOM     14  C   UNL d   1      32.903  20.862 -22.423  0.00  0.00     0.026 A 
ATOM     15  C   UNL d   1      32.656  21.508 -21.972  0.00  0.00     0.116 A 
ATOM     16  C   UNL d   1      32.494  21.411 -21.169  0.00  0.00     0.116 A 
ATOM     17  C   UNL d   1      32.579  20.669 -20.817  0.00  0.00     0.026 A 
ATOM     18  C   UNL d   1      32.823  20.032 -21.269  0.00  0.00     0.002 A 
BRANCH  15  19
ATOM     19  O   UNL d   1      32.572  22.260 -22.332  0.00  0.00    -0.326 OA
ATOM     20  C   UNL d   1      33.225  22.634 -22.670  0.00  0.00     0.181 C 
ENDBRANCH  15  19
BRANCH  16  21
ATOM     21  O   UNL d   1      32.245  22.065 -20.712  0.00  0.00    -0.326 OA
ATOM     22  C   UNL d   1      32.216  22.005 -19.890  0.00  0.00     0.181 C 
ENDBRANCH  16  21
ENDBRANCH  12  13
ENDBRANCH   1  12
TORSDOF 6
ENDMDL
MODEL 3
REMARK VINA RESULT:      -0.7      2.140      3.830
REMARK  6 active torsions:
REMARK  status: ('A' for Active; 'I' for Inactive)
REMARK    1  A    between atoms: C_4  and  C_2 
REMARK       I    between atoms: N_13  and  C_4 
REMARK    2  A    between atoms: O_17  and  C_8 
REMARK    3  A    between atoms: O_18  and  C_9 
REMARK    4  A    between atoms: C_19  and  N_13 
REMARK    5  A    between atoms: C_15  and  C_20 
REMARK    6  A    between atoms: C_20  and  C_19 
ROOT
ATOM      1  C   UNL d   1      30.088  17.634 -24.842  0.00  0.00     0.102 C 
ENDROOT
BRANCH   1   2
ATOM      2  N   UNL d   1      29.560  18.250 -24.994  0.00  0.00    -0.205 NA
ATOM      3  C   UNL d   1      28.759  18.182 -24.771  0.00  0.00     0.299 C 
ATOM      4  O   UNL d   1      28.238  18.807 -24.929  0.00  0.00    -0.263 OA
BRANCH   3   5
ATOM      5  C   UNL d   1      28.484  17.490 -24.392  0.00  0.00     0.161 A 
ATOM      6  N   UNL d   1      28.350  17.502 -23.582  0.00  0.00    -0.140 NA
ATOM      7  N   UNL d   1      28.080  16.828 -23.207  0.00  0.00    -0.105 NA
ATOM      8  C   UNL d   1      27.943  16.138 -23.638  0.00  0.00     0.297 A 
ATOM      9  C   UNL d   1      28.075  16.123 -24.445  0.00  0.00     0.066 A 
ATOM     10  O   UNL d   1      27.667  15.453 -23.245  0.00  0.00    -0.264 OA
ATOM     11  C   UNL d   1      28.347  16.800 -24.824  0.00  0.00     0.031 A 
ENDBRANCH   3   5
ENDBRANCH   1   2
BRANCH   1  12
ATOM     12  C   UNL d   1      30.876  17.697 -25.080  0.00  0.00     0.021 C 
BRANCH  12  13
ATOM     13  C   UNL d   1      31.465  17.301 -24.666  0.00  0.00     0.004 A 
ATOM     14  C   UNL d   1      31.827  17.665 -24.030  0.00  0.00     0.026 A 
ATOM     15  C   UNL d   1      32.419  17.268 -23.613  0.00  0.00     0.116 A 
ATOM     16  C   UNL d   1      32.642  16.507 -23.839  0.00  0.00     0.116 A 
ATOM     17  C   UNL d   1      32.274  16.142 -24.482  0.00  0.00     0.026 A 
ATOM     18  C   UNL d   1      31.688  16.539 -24.892  0.00  0.00     0.002 A 
BRANCH  15  19
ATOM     19  O   UNL d   1      32.790  17.641 -22.961  0.00  0.00    -0.326 OA
ATOM     20  C   UNL d   1      32.729  18.457 -22.859  0.00  0.00     0.181 C 
ENDBRANCH  15  19
BRANCH  16  21
ATOM     21  O   UNL d   1      33.241  16.105 -23.417  0.00  0.00    -0.326 OA
ATOM     22  C   UNL d   1      33.037  15.536 -22.855  0.00  0.00     0.181 C 
ENDBRANCH  16  21
ENDBRANCH  12  13
ENDBRANCH   1  12
TORSDOF 6
ENDMDL
MODEL 4
REMARK VINA RESULT:      -0.3      2.341      4.779
REMARK  6 active torsions:
REMARK  status: ('A' for Active; 'I' for Inactive)
REMARK    1  A    between atoms: C_4  and  C_2 
REMARK       I    between atoms: N_13  and  C_4 
REMARK    2  A    between atoms: O_17  and  C_8 
REMARK    3  A    between atoms: O_18  and  C_9 
REMARK    4  A    between atoms: C_19  and  N_13 
REMARK    5  A    between atoms: C_15  and  C_20 
REMARK    6  A    between atoms: C_20  and  C_19 
ROOT
ATOM      1  C   UNL d   1      31.062  17.730 -24.806  0.00  0.00     0.102 C 
ENDROOT
BRANCH   1   2
ATOM      2  N   UNL d   1      31.600  18.322 -25.009  0.00  0.00    -0.205 NA
ATOM      3  C   UNL d   1      32.360  18.335 -24.666  0.00  0.00     0.299 C 
ATOM      4  O   UNL d   1      32.892  18.935 -24.877  0.00  0.00    -0.263 OA
BRANCH   3   5
ATOM      5  C   UNL d   1      32.584  17.750 -24.113  0.00  0.00     0.161 A 
ATOM      6  N   UNL d   1      32.502  17.904 -23.310  0.00  0.00    -0.140 NA
ATOM      7  N   UNL d   1      32.720  17.335 -22.765  0.00  0.00    -0.105 NA
ATOM      8  C   UNL d   1      33.021  16.609 -23.019  0.00  0.00     0.297 A 
ATOM      9  C   UNL d   1      33.103  16.453 -23.818  0.00  0.00     0.066 A 
ATOM     10  O   UNL d   1      33.241  16.033 -22.454  0.00  0.00    -0.264 OA
ATOM     11  C   UNL d   1      32.885  17.025 -24.367  0.00  0.00     0.031 A 
ENDBRANCH   3   5
ENDBRANCH   1   2
BRANCH   1  12
ATOM     12  C   UNL d   1      30.264  17.813 -25.000  0.00  0.00     0.021 C 
BRANCH  12  13
ATOM     13  C   UNL d   1      29.711  17.280 -24.708  0.00  0.00     0.004 A 
ATOM     14  C   UNL d   1      29.176  17.523 -24.139  0.00  0.00     0.026 A 
ATOM     15  C   UNL d   1      28.620  16.989 -23.844  0.00  0.00     0.116 A 
ATOM     16  C   UNL d   1      28.606  16.213 -24.124  0.00  0.00     0.116 A 
ATOM     17  C   UNL d   1      29.147  15.971 -24.699  0.00  0.00     0.026 A 
ATOM     18  C   UNL d   1      29.697  16.504 -24.988  0.00  0.00     0.002 A 
BRANCH  15  19
ATOM     19  O   UNL d   1      28.072  17.237 -23.261  0.00  0.00    -0.326 OA
ATOM     20  C   UNL d   1      27.781  18.009 -23.267  0.00  0.00     0.181 C 
ENDBRANCH  15  19
BRANCH  16  21
ATOM     21  O   UNL d   1      28.043  15.672 -23.826  0.00  0.00    -0.326 OA
ATOM     22  C   UNL d   1      27.395  15.456 -24.288  0.00  0.00     0.181 C 
ENDBRANCH  16  21
ENDBRANCH  12  13
ENDBRANCH   1  12
TORSDOF 6
ENDMDL
