MODEL 1
REMARK VINA RESULT:      -0.7      0.000      0.000
REMARK  8 active torsions:
REMARK  status: ('A' for Active; 'I' for Inactive)
REMARK    1  A    between atoms: N_4  and  C_1 
REMARK    2  A    between atoms: C_2  and  O_12 
REMARK    3  A    between atoms: C_8  and  C_2 
REMARK       I    between atoms: C_10  and  N_4 
REMARK    4  A    between atoms: O_12  and  C_5 
REMARK    5  A    between atoms: S_20  and  C_6 
REMARK    6  A    between atoms: C_14  and  C_10 
REMARK    7  A    between atoms: C_16  and  C_26 
REMARK    8  A    between atoms: C_26  and  S_20 
ROOT
ATOM      1  C   UNL d   1      59.097  -1.812  28.847  0.00  0.00     0.167 A 
ATOM      2  C   UNL d   1      58.330  -1.527  28.766  0.00  0.00     0.222 A 
ATOM      3  C   UNL d   1      58.175  -0.749  29.010  0.00  0.00     0.069 A 
ATOM      4  C   UNL d   1      59.695  -1.340  29.160  0.00  0.00     0.151 A 
ATOM      5  C   UNL d   1      58.773  -0.278  29.323  0.00  0.00     0.110 A 
ATOM      6  O   UNL d   1      59.534  -0.579  29.397  0.00  0.00    -0.302 OA
ATOM      7  O   UNL d   1      57.738  -1.994  28.455  0.00  0.00    -0.284 OA
ENDROOT
BRANCH   5   8
ATOM      8  C   UNL d   1      58.609   0.491  29.562  0.00  0.00     0.062 C 
BRANCH   8   9
ATOM      9  S   UNL d   1      58.523   0.659  30.365  0.00  0.00    -0.057 SA
BRANCH   9  10
ATOM     10  C   UNL d   1      58.009   0.585  31.154  0.00  0.00     0.166 A 
ATOM     11  S   UNL d   1      57.248   0.512  31.461  0.00  0.00    -0.006 SA
ATOM     12  C   UNL d   1      57.302   0.480  32.284  0.00  0.00     0.269 A 
ATOM     13  N   UNL d   1      58.104   0.533  32.485  0.00  0.00    -0.107 NA
ATOM     14  N   UNL d   1      58.540   0.598  31.788  0.00  0.00    -0.132 NA
BRANCH  12  15
ATOM     15  N   UNL d   1      56.866   0.416  32.981  0.00  0.00    -0.337 NA
ATOM     16  C   UNL d   1      56.430   0.352  33.678  0.00  0.00     0.330 C 
ATOM     17  O   UNL d   1      57.132   0.230  34.095  0.00  0.00    -0.251 OA
BRANCH  16  18
ATOM     18  C   UNL d   1      55.628   0.392  33.875  0.00  0.00     0.070 A 
ATOM     19  C   UNL d   1      54.837   0.322  33.652  0.00  0.00     0.006 A 
ATOM     20  C   UNL d   1      55.035   0.533  34.440  0.00  0.00     0.006 A 
ENDBRANCH  16  18
ENDBRANCH  12  15
ENDBRANCH   9  10
ENDBRANCH   8   9
ENDBRANCH   5   8
BRANCH   1  21
ATOM     21  O   UNL d   1      59.266  -2.588  28.607  0.00  0.00    -0.268 OA
BRANCH  21  22
ATOM     22  C   UNL d   1      59.588  -3.126  29.148  0.00  0.00     0.305 C 
ATOM     23  O   UNL d   1      59.774  -2.884  29.914  0.00  0.00    -0.259 OA
BRANCH  22  24
ATOM     24  C   UNL d   1      59.725  -3.917  28.916  0.00  0.00     0.118 A 
ATOM     25  C   UNL d   1      59.091  -4.417  28.719  0.00  0.00     0.147 A 
ATOM     26  F   UNL d   1      58.309  -4.123  28.752  0.00  0.00    -0.204 F 
ATOM     27  C   UNL d   1      59.214  -5.190  28.492  0.00  0.00     0.030 A 
ATOM     28  C   UNL d   1      59.984  -5.481  28.459  0.00  0.00     0.005 A 
ATOM     29  C   UNL d   1      60.637  -5.000  28.652  0.00  0.00     0.030 A 
ATOM     30  C   UNL d   1      60.496  -4.208  28.883  0.00  0.00     0.147 A 
ATOM     31  F   UNL d   1      61.133  -3.708  29.081  0.00  0.00    -0.204 F 
ENDBRANCH  22  24
ENDBRANCH  21  22
ENDBRANCH   1  21
TORSDOF 8
ENDMDL
