MODEL 1
REMARK VINA RESULT:       0.9      0.000      0.000
REMARK  7 active torsions:
REMARK  status: ('A' for Active; 'I' for Inactive)
REMARK    1  A    between atoms: N_7  and  C_2 
REMARK    2  A    between atoms: N_9  and  C_3 
REMARK    3  A    between atoms: C_14  and  N_7 
REMARK    4  A    between atoms: C_8  and  C_12 
REMARK    5  A    between atoms: O_19  and  C_8 
REMARK    6  A    between atoms: C_17  and  N_9 
REMARK    7  A    between atoms: C_29  and  O_19 
ROOT
ATOM      1  N   UNL d   1     -41.954-123.262 -50.555  0.00  0.00    -0.038 NA
ATOM      2  C   UNL d   1     -42.654-123.242 -50.106  0.00  0.00     0.202 A 
ATOM      3  C   UNL d   1     -41.815-122.689 -51.138  0.00  0.00     0.753 A 
ATOM      4  N   UNL d   1     -42.384-122.092 -51.270  0.00  0.00    -0.038 NA
ATOM      5  C   UNL d   1     -43.212-122.651 -50.240  0.00  0.00     0.154 A 
ATOM      6  C   UNL d   1     -43.076-122.076 -50.823  0.00  0.00     0.202 A 
ATOM      7  N   UNL d   1     -43.903-122.644 -49.786  0.00  0.00    -0.236 NA
ATOM      8  N   UNL d   1     -43.639-121.489 -50.951  0.00  0.00    -0.222 NA
ATOM      9  C   UNL d   1     -44.467-122.046 -49.922  0.00  0.00     0.120 A 
ATOM     10  C   UNL d   1     -44.340-121.471 -50.500  0.00  0.00     0.121 A 
ENDROOT
BRANCH   3  11
ATOM     11  N   UNL d   1     -41.127-122.710 -51.578  0.00  0.00    -0.059 NA
BRANCH  11  12
ATOM     12  C   UNL d   1     -41.162-122.738 -52.402  0.00  0.00     0.100 A 
ATOM     13  C   UNL d   1     -41.208-122.060 -52.843  0.00  0.00     0.020 A 
ATOM     14  C   UNL d   1     -41.243-122.090 -53.671  0.00  0.00     0.007 A 
ATOM     15  C   UNL d   1     -41.231-122.822 -54.056  0.00  0.00     0.064 A 
ATOM     16  C   UNL d   1     -41.184-123.521 -53.614  0.00  0.00     0.007 A 
ATOM     17  C   UNL d   1     -41.150-123.483 -52.791  0.00  0.00     0.020 A 
BRANCH  15  18
ATOM     18  C   UNL d   1     -41.266-122.850 -54.872  0.00  0.00     0.300 C 
ATOM     19  O   UNL d   1     -41.160-123.573 -55.266  0.00  0.00    -0.259 OA
BRANCH  18  20
ATOM     20  O   UNL d   1     -41.406-122.166 -55.314  0.00  0.00    -0.271 OA
BRANCH  20  21
ATOM     21  C   UNL d   1     -41.920-122.182 -55.959  0.00  0.00     0.126 C 
ATOM     22  C   UNL d   1     -42.129-121.481 -56.330  0.00  0.00     0.029 C 
ENDBRANCH  20  21
ENDBRANCH  18  20
ENDBRANCH  15  18
ENDBRANCH  11  12
ENDBRANCH   3  11
BRANCH   2  23
ATOM     23  N   UNL d   1     -42.790-123.816 -49.524  0.00  0.00    -0.225 NA
BRANCH  23  24
ATOM     24  C   UNL d   1     -42.376-123.789 -48.812  0.00  0.00     0.083 A 
ATOM     25  C   UNL d   1     -42.790-123.807 -48.091  0.00  0.00     0.020 A 
ATOM     26  C   UNL d   1     -42.373-123.779 -47.382  0.00  0.00     0.013 A 
ATOM     27  C   UNL d   1     -41.549-123.735 -47.379  0.00  0.00     0.058 A 
ATOM     28  C   UNL d   1     -41.135-123.717 -48.101  0.00  0.00     0.013 A 
ATOM     29 CL   UNL d   1     -41.123-123.707 -46.676  0.00  0.00    -0.082 Cl
ATOM     30  C   UNL d   1     -41.552-123.745 -48.812  0.00  0.00     0.020 A 
ENDBRANCH  23  24
ENDBRANCH   2  23
TORSDOF 7
ENDMDL
