MODEL 1
REMARK VINA RESULT:      -9.2      0.000      0.000
REMARK  3 active torsions:
REMARK  status: ('A' for Active; 'I' for Inactive)
REMARK    1  A    between atoms: N_2  and  C_1 
REMARK    2  A    between atoms: C_5  and  C_4 
REMARK       I    between atoms: N_6  and  C_5 
REMARK    3  A    between atoms: C_9  and  N_6 
ROOT
ATOM      1  C   UNL d   1      53.152  31.800  53.090  0.00  0.00     0.285 C 
ATOM      2  N   UNL d   1      53.874  31.721  53.483  0.00  0.00    -0.205 NA
ATOM      3  O   UNL d   1      52.884  31.226  52.586  0.00  0.00    -0.265 OA
ENDROOT
BRANCH   1   4
ATOM      4  C   UNL d   1      52.687  32.465  53.201  0.00  0.00     0.089 A 
ATOM      5  S   UNL d   1      52.618  33.061  52.672  0.00  0.00    -0.059 SA
ATOM      6  C   UNL d   1      52.117  33.634  52.949  0.00  0.00     0.156 A 
ATOM      7  C   UNL d   1      51.852  33.380  53.708  0.00  0.00     0.031 A 
ATOM      8  C   UNL d   1      52.210  32.647  53.865  0.00  0.00     0.014 A 
BRANCH   6   9
ATOM      9  N   UNL d   1      51.921  34.312  52.560  0.00  0.00    -0.107 N 
ATOM     10  O   UNL d   1      51.348  34.389  51.967  0.00  0.00    -0.531 OA
ATOM     11  O   UNL d   1      52.267  35.016  52.705  0.00  0.00    -0.531 OA
ENDBRANCH   6   9
ENDBRANCH   1   4
BRANCH   2  12
ATOM     12  C   UNL d   1      54.126  32.310  53.986  0.00  0.00     0.112 A 
ATOM     13  C   UNL d   1      54.757  32.795  53.765  0.00  0.00     0.158 A 
ATOM     14  F   UNL d   1      55.137  32.687  53.033  0.00  0.00    -0.203 F 
ATOM     15  C   UNL d   1      55.008  33.383  54.267  0.00  0.00     0.031 A 
ATOM     16  C   UNL d   1      54.633  33.493  54.993  0.00  0.00     0.002 A 
ATOM     17  C   UNL d   1      54.013  33.023  55.220  0.00  0.00     0.002 A 
ATOM     18  C   UNL d   1      53.751  32.419  54.712  0.00  0.00     0.021 A 
ENDBRANCH   2  12
TORSDOF 3
ENDMDL
MODEL 2
REMARK VINA RESULT:      -8.8      1.677      2.339
REMARK  3 active torsions:
REMARK  status: ('A' for Active; 'I' for Inactive)
REMARK    1  A    between atoms: N_2  and  C_1 
REMARK    2  A    between atoms: C_5  and  C_4 
REMARK       I    between atoms: N_6  and  C_5 
REMARK    3  A    between atoms: C_9  and  N_6 
ROOT
ATOM      1  C   UNL d   1      53.227  34.927  54.475  0.00  0.00     0.285 C 
ATOM      2  N   UNL d   1      53.836  34.446  54.760  0.00  0.00    -0.205 NA
ATOM      3  O   UNL d   1      53.093  35.662  54.785  0.00  0.00    -0.265 OA
ENDROOT
BRANCH   1   4
ATOM      4  C   UNL d   1      52.742  34.669  53.867  0.00  0.00     0.089 A 
ATOM      5  S   UNL d   1      52.000  34.389  53.970  0.00  0.00    -0.059 SA
ATOM      6  C   UNL d   1      51.671  34.180  53.261  0.00  0.00     0.156 A 
ATOM      7  C   UNL d   1      52.248  34.341  52.667  0.00  0.00     0.031 A 
ATOM      8  C   UNL d   1      52.919  34.647  53.049  0.00  0.00     0.014 A 
BRANCH   6   9
ATOM      9  N   UNL d   1      50.931  33.878  53.158  0.00  0.00    -0.107 N 
ATOM     10  O   UNL d   1      50.681  33.115  53.359  0.00  0.00    -0.531 OA
ATOM     11  O   UNL d   1      50.328  34.293  52.839  0.00  0.00    -0.531 OA
ENDBRANCH   6   9
ENDBRANCH   1   4
BRANCH   2  12
ATOM     12  C   UNL d   1      53.955  33.710  54.434  0.00  0.00     0.112 A 
ATOM     13  C   UNL d   1      53.810  33.034  54.886  0.00  0.00     0.158 A 
ATOM     14  F   UNL d   1      53.544  33.099  55.671  0.00  0.00    -0.203 F 
ATOM     15  C   UNL d   1      53.928  32.298  54.561  0.00  0.00     0.031 A 
ATOM     16  C   UNL d   1      54.192  32.230  53.782  0.00  0.00     0.002 A 
ATOM     17  C   UNL d   1      54.337  32.887  53.330  0.00  0.00     0.002 A 
ATOM     18  C   UNL d   1      54.218  33.642  53.655  0.00  0.00     0.021 A 
ENDBRANCH   2  12
TORSDOF 3
ENDMDL
MODEL 3
REMARK VINA RESULT:      -8.8      1.902      3.048
REMARK  3 active torsions:
REMARK  status: ('A' for Active; 'I' for Inactive)
REMARK    1  A    between atoms: N_2  and  C_1 
REMARK    2  A    between atoms: C_5  and  C_4 
REMARK       I    between atoms: N_6  and  C_5 
REMARK    3  A    between atoms: C_9  and  N_6 
ROOT
ATOM      1  C   UNL d   1      52.836  31.988  52.874  0.00  0.00     0.285 C 
ATOM      2  N   UNL d   1      52.166  32.399  52.620  0.00  0.00    -0.205 NA
ATOM      3  O   UNL d   1      52.945  31.209  52.688  0.00  0.00    -0.265 OA
ENDROOT
BRANCH   1   4
ATOM      4  C   UNL d   1      53.409  32.364  53.323  0.00  0.00     0.089 A 
ATOM      5  S   UNL d   1      53.471  32.303  54.118  0.00  0.00    -0.059 SA
ATOM      6  C   UNL d   1      54.094  32.740  54.392  0.00  0.00     0.156 A 
ATOM      7  C   UNL d   1      54.452  33.103  53.720  0.00  0.00     0.031 A 
ATOM      8  C   UNL d   1      54.021  32.866  53.051  0.00  0.00     0.014 A 
BRANCH   6   9
ATOM      9  N   UNL d   1      54.318  32.806  55.164  0.00  0.00    -0.107 N 
ATOM     10  O   UNL d   1      54.858  33.352  55.473  0.00  0.00    -0.531 OA
ATOM     11  O   UNL d   1      54.036  32.336  55.744  0.00  0.00    -0.531 OA
ENDBRANCH   6   9
ENDBRANCH   1   4
BRANCH   2  12
ATOM     12  C   UNL d   1      52.074  33.184  52.817  0.00  0.00     0.112 A 
ATOM     13  C   UNL d   1      51.462  33.409  53.323  0.00  0.00     0.158 A 
ATOM     14  F   UNL d   1      50.938  32.843  53.633  0.00  0.00    -0.203 F 
ATOM     15  C   UNL d   1      51.371  34.194  53.521  0.00  0.00     0.031 A 
ATOM     16  C   UNL d   1      51.889  34.758  53.215  0.00  0.00     0.002 A 
ATOM     17  C   UNL d   1      52.493  34.547  52.718  0.00  0.00     0.002 A 
ATOM     18  C   UNL d   1      52.592  33.748  52.512  0.00  0.00     0.021 A 
ENDBRANCH   2  12
TORSDOF 3
ENDMDL
MODEL 4
REMARK VINA RESULT:      -8.5      1.525      2.825
REMARK  3 active torsions:
REMARK  status: ('A' for Active; 'I' for Inactive)
REMARK    1  A    between atoms: N_2  and  C_1 
REMARK    2  A    between atoms: C_5  and  C_4 
REMARK       I    between atoms: N_6  and  C_5 
REMARK    3  A    between atoms: C_9  and  N_6 
ROOT
ATOM      1  C   UNL d   1      52.693  32.538  52.861  0.00  0.00     0.285 C 
ATOM      2  N   UNL d   1      52.925  33.235  53.239  0.00  0.00    -0.205 NA
ATOM      3  O   UNL d   1      52.108  32.538  52.302  0.00  0.00    -0.265 OA
ENDROOT
BRANCH   1   4
ATOM      4  C   UNL d   1      53.052  31.825  53.046  0.00  0.00     0.089 A 
ATOM      5  S   UNL d   1      52.680  31.210  53.396  0.00  0.00    -0.059 SA
ATOM      6  C   UNL d   1      53.190  30.589  53.502  0.00  0.00     0.156 A 
ATOM      7  C   UNL d   1      53.937  30.832  53.194  0.00  0.00     0.031 A 
ATOM      8  C   UNL d   1      53.849  31.607  52.909  0.00  0.00     0.014 A 
BRANCH   6   9
ATOM      9  N   UNL d   1      53.002  29.881  53.838  0.00  0.00    -0.107 N 
ATOM     10  O   UNL d   1      52.490  29.310  53.525  0.00  0.00    -0.531 OA
ATOM     11  O   UNL d   1      53.298  29.636  54.537  0.00  0.00    -0.531 OA
ENDBRANCH   6   9
ENDBRANCH   1   4
BRANCH   2  12
ATOM     12  C   UNL d   1      53.515  33.214  53.799  0.00  0.00     0.112 A 
ATOM     13  C   UNL d   1      53.334  33.362  54.590  0.00  0.00     0.158 A 
ATOM     14  F   UNL d   1      52.554  33.532  54.821  0.00  0.00    -0.203 F 
ATOM     15  C   UNL d   1      53.924  33.341  55.150  0.00  0.00     0.031 A 
ATOM     16  C   UNL d   1      54.700  33.172  54.924  0.00  0.00     0.002 A 
ATOM     17  C   UNL d   1      54.888  33.026  54.150  0.00  0.00     0.002 A 
ATOM     18  C   UNL d   1      54.290  33.045  53.573  0.00  0.00     0.021 A 
ENDBRANCH   2  12
TORSDOF 3
ENDMDL
MODEL 5
REMARK VINA RESULT:      -8.4      1.849      3.004
REMARK  3 active torsions:
REMARK  status: ('A' for Active; 'I' for Inactive)
REMARK    1  A    between atoms: N_2  and  C_1 
REMARK    2  A    between atoms: C_5  and  C_4 
REMARK       I    between atoms: N_6  and  C_5 
REMARK    3  A    between atoms: C_9  and  N_6 
ROOT
ATOM      1  C   UNL d   1      53.843  33.197  54.897  0.00  0.00     0.285 C 
ATOM      2  N   UNL d   1      53.363  33.870  54.895  0.00  0.00    -0.205 NA
ATOM      3  O   UNL d   1      54.308  33.015  55.532  0.00  0.00    -0.265 OA
ENDROOT
BRANCH   1   4
ATOM      4  C   UNL d   1      53.857  32.695  54.249  0.00  0.00     0.089 A 
ATOM      5  S   UNL d   1      53.501  31.979  54.225  0.00  0.00    -0.059 SA
ATOM      6  C   UNL d   1      53.620  31.623  53.508  0.00  0.00     0.156 A 
ATOM      7  C   UNL d   1      54.086  32.154  53.046  0.00  0.00     0.031 A 
ATOM      8  C   UNL d   1      54.233  32.825  53.512  0.00  0.00     0.014 A 
BRANCH   6   9
ATOM      9  N   UNL d   1      53.341  30.899  53.292  0.00  0.00    -0.107 N 
ATOM     10  O   UNL d   1      53.364  30.208  53.748  0.00  0.00    -0.531 OA
ATOM     11  O   UNL d   1      52.995  30.754  52.588  0.00  0.00    -0.531 OA
ENDBRANCH   6   9
ENDBRANCH   1   4
BRANCH   2  12
ATOM     12  C   UNL d   1      52.901  34.035  54.246  0.00  0.00     0.112 A 
ATOM     13  C   UNL d   1      53.087  34.680  53.765  0.00  0.00     0.158 A 
ATOM     14  F   UNL d   1      53.742  35.163  53.938  0.00  0.00    -0.203 F 
ATOM     15  C   UNL d   1      52.626  34.846  53.115  0.00  0.00     0.031 A 
ATOM     16  C   UNL d   1      51.975  34.369  52.941  0.00  0.00     0.002 A 
ATOM     17  C   UNL d   1      51.784  33.734  53.406  0.00  0.00     0.002 A 
ATOM     18  C   UNL d   1      52.251  33.559  54.071  0.00  0.00     0.021 A 
ENDBRANCH   2  12
TORSDOF 3
ENDMDL
MODEL 6
REMARK VINA RESULT:      -8.1      1.999      3.000
REMARK  3 active torsions:
REMARK  status: ('A' for Active; 'I' for Inactive)
REMARK    1  A    between atoms: N_2  and  C_1 
REMARK    2  A    between atoms: C_5  and  C_4 
REMARK       I    between atoms: N_6  and  C_5 
REMARK    3  A    between atoms: C_9  and  N_6 
ROOT
ATOM      1  C   UNL d   1      52.709  32.518  52.707  0.00  0.00     0.285 C 
ATOM      2  N   UNL d   1      52.422  31.761  52.542  0.00  0.00    -0.205 NA
ATOM      3  O   UNL d   1      52.396  33.173  52.350  0.00  0.00    -0.265 OA
ENDROOT
BRANCH   1   4
ATOM      4  C   UNL d   1      53.322  32.624  53.241  0.00  0.00     0.089 A 
ATOM      5  S   UNL d   1      53.231  32.914  53.981  0.00  0.00    -0.059 SA
ATOM      6  C   UNL d   1      53.943  32.949  54.365  0.00  0.00     0.156 A 
ATOM      7  C   UNL d   1      54.525  32.660  53.827  0.00  0.00     0.031 A 
ATOM      8  C   UNL d   1      54.134  32.457  53.123  0.00  0.00     0.014 A 
BRANCH   6   9
ATOM      9  N   UNL d   1      54.056  33.212  55.118  0.00  0.00    -0.107 N 
ATOM     10  O   UNL d   1      54.099  34.004  55.359  0.00  0.00    -0.531 OA
ATOM     11  O   UNL d   1      54.145  32.726  55.744  0.00  0.00    -0.531 OA
ENDBRANCH   6   9
ENDBRANCH   1   4
BRANCH   2  12
ATOM     12  C   UNL d   1      52.750  31.115  52.912  0.00  0.00     0.112 A 
ATOM     13  C   UNL d   1      52.288  30.654  53.417  0.00  0.00     0.158 A 
ATOM     14  F   UNL d   1      51.489  30.843  53.550  0.00  0.00    -0.203 F 
ATOM     15  C   UNL d   1      52.616  30.008  53.787  0.00  0.00     0.031 A 
ATOM     16  C   UNL d   1      53.408  29.818  53.657  0.00  0.00     0.002 A 
ATOM     17  C   UNL d   1      53.871  30.264  53.164  0.00  0.00     0.002 A 
ATOM     18  C   UNL d   1      53.542  30.925  52.782  0.00  0.00     0.021 A 
ENDBRANCH   2  12
TORSDOF 3
ENDMDL
MODEL 7
REMARK VINA RESULT:      -7.6      1.698      2.199
REMARK  3 active torsions:
REMARK  status: ('A' for Active; 'I' for Inactive)
REMARK    1  A    between atoms: N_2  and  C_1 
REMARK    2  A    between atoms: C_5  and  C_4 
REMARK       I    between atoms: N_6  and  C_5 
REMARK    3  A    between atoms: C_9  and  N_6 
ROOT
ATOM      1  C   UNL d   1      51.962  33.244  53.428  0.00  0.00     0.285 C 
ATOM      2  N   UNL d   1      52.411  32.550  53.414  0.00  0.00    -0.205 NA
ATOM      3  O   UNL d   1      51.160  33.227  53.330  0.00  0.00    -0.265 OA
ENDROOT
BRANCH   1   4
ATOM      4  C   UNL d   1      52.324  33.971  53.541  0.00  0.00     0.089 A 
ATOM      5  S   UNL d   1      52.365  34.349  54.245  0.00  0.00    -0.059 SA
ATOM      6  C   UNL d   1      52.757  35.054  54.170  0.00  0.00     0.156 A 
ATOM      7  C   UNL d   1      52.978  35.124  53.358  0.00  0.00     0.031 A 
ATOM      8  C   UNL d   1      52.706  34.445  52.966  0.00  0.00     0.014 A 
BRANCH   6   9
ATOM      9  N   UNL d   1      52.900  35.576  54.766  0.00  0.00    -0.107 N 
ATOM     10  O   UNL d   1      53.184  35.393  55.522  0.00  0.00    -0.531 OA
ATOM     11  O   UNL d   1      52.781  36.362  54.698  0.00  0.00    -0.531 OA
ENDBRANCH   6   9
ENDBRANCH   1   4
BRANCH   2  12
ATOM     12  C   UNL d   1      53.218  32.589  53.514  0.00  0.00     0.112 A 
ATOM     13  C   UNL d   1      53.561  32.279  54.198  0.00  0.00     0.158 A 
ATOM     14  F   UNL d   1      53.089  31.928  54.786  0.00  0.00    -0.203 F 
ATOM     15  C   UNL d   1      54.367  32.317  54.298  0.00  0.00     0.031 A 
ATOM     16  C   UNL d   1      54.838  32.666  53.716  0.00  0.00     0.002 A 
ATOM     17  C   UNL d   1      54.511  32.973  53.041  0.00  0.00     0.002 A 
ATOM     18  C   UNL d   1      53.688  32.937  52.932  0.00  0.00     0.021 A 
ENDBRANCH   2  12
TORSDOF 3
ENDMDL
