MODEL 1
REMARK VINA RESULT:      70.3      0.000      0.000
REMARK  3 active torsions:
REMARK  status: ('A' for Active; 'I' for Inactive)
REMARK    1  A    between atoms: N_5  and  S_1 
REMARK    2  A    between atoms: C_6  and  S_1 
REMARK    3  A    between atoms: C_2  and  C_13 
ROOT
ATOM      1  N   UNL d   1      13.819  17.035  -5.292  0.00  0.00    -0.229 N 
ATOM      2  C   UNL d   1      13.554  15.228  -4.790  0.00  0.00     0.039 A 
ATOM      3  C   UNL d   1      13.300  16.463  -5.843  0.00  0.00     0.092 A 
ATOM      4  C   UNL d   1      14.205  16.702  -4.489  0.00  0.00     0.092 A 
ATOM      5  C   UNL d   1      13.166  15.554  -5.591  0.00  0.00     0.023 A 
ATOM      6  C   UNL d   1      14.072  15.801  -4.240  0.00  0.00     0.023 A 
ENDROOT
BRANCH   1   7
ATOM      7  S   UNL d   1      13.941  17.856  -5.518  0.00  0.00     0.271 S 
ATOM      8  O   UNL d   1      13.477  17.745  -6.190  0.00  0.00    -0.200 OA
ATOM      9  O   UNL d   1      14.405  17.968  -4.845  0.00  0.00    -0.200 OA
BRANCH   7  10
ATOM     10  C   UNL d   1      14.061  18.644  -5.730  0.00  0.00     0.106 A 
ATOM     11  C   UNL d   1      14.755  19.028  -5.486  0.00  0.00     0.040 A 
ATOM     12  C   UNL d   1      14.867  19.810  -5.700  0.00  0.00     0.123 A 
ATOM     13  O   UNL d   1      15.553  20.209  -5.466  0.00  0.00    -0.301 OA
ATOM     14  C   UNL d   1      14.299  20.216  -6.154  0.00  0.00     0.123 A 
ATOM     15  C   UNL d   1      15.831  21.153  -5.647  0.00  0.00     0.149 A 
ATOM     16  C   UNL d   1      15.084  21.571  -6.203  0.00  0.00     0.149 A 
ATOM     17  O   UNL d   1      14.418  20.997  -6.365  0.00  0.00    -0.301 OA
ATOM     18  C   UNL d   1      13.608  19.809  -6.389  0.00  0.00     0.028 A 
ATOM     19  C   UNL d   1      13.490  19.032  -6.179  0.00  0.00     0.015 A 
ENDBRANCH   7  10
ENDBRANCH   1   7
BRANCH   2  20
ATOM     20  C   UNL d   1      13.419  14.319  -4.539  0.00  0.00     0.163 A 
ATOM     21  N   UNL d   1      13.188  13.747  -5.025  0.00  0.00    -0.225 NA
ATOM     22  C   UNL d   1      13.143  13.082  -4.609  0.00  0.00     0.101 A 
ATOM     23  C   UNL d   1      12.938  12.348  -4.831  0.00  0.00     0.021 A 
ATOM     24  C   UNL d   1      13.345  13.241  -3.867  0.00  0.00     0.101 A 
ATOM     25  C   UNL d   1      12.943  11.779  -4.283  0.00  0.00     0.002 A 
ATOM     26  C   UNL d   1      13.145  11.935  -3.537  0.00  0.00     0.002 A 
ATOM     27  C   UNL d   1      13.343  12.660  -3.338  0.00  0.00     0.021 A 
ATOM     28  N   UNL d   1      13.517  14.007  -3.821  0.00  0.00    -0.225 NA
ENDBRANCH   2  20
TORSDOF 3
ENDMDL
MODEL 2
REMARK VINA RESULT:      72.3      2.589      6.537
REMARK  3 active torsions:
REMARK  status: ('A' for Active; 'I' for Inactive)
REMARK    1  A    between atoms: N_5  and  S_1 
REMARK    2  A    between atoms: C_6  and  S_1 
REMARK    3  A    between atoms: C_2  and  C_13 
ROOT
ATOM      1  N   UNL d   1      14.392  15.579  -3.496  0.00  0.00    -0.229 N 
ATOM      2  C   UNL d   1      14.436  17.212  -4.454  0.00  0.00     0.039 A 
ATOM      3  C   UNL d   1      14.036  15.621  -4.373  0.00  0.00     0.092 A 
ATOM      4  C   UNL d   1      14.771  16.355  -3.097  0.00  0.00     0.092 A 
ATOM      5  C   UNL d   1      14.057  16.442  -4.856  0.00  0.00     0.023 A 
ATOM      6  C   UNL d   1      14.792  17.169  -3.576  0.00  0.00     0.023 A 
ENDROOT
BRANCH   1   7
ATOM      7  S   UNL d   1      14.374  14.839  -3.058  0.00  0.00     0.271 S 
ATOM      8  O   UNL d   1      14.763  15.197  -2.426  0.00  0.00    -0.200 OA
ATOM      9  O   UNL d   1      13.984  14.479  -3.691  0.00  0.00    -0.200 OA
BRANCH   7  10
ATOM     10  C   UNL d   1      14.354  14.126  -2.642  0.00  0.00     0.106 A 
ATOM     11  C   UNL d   1      14.628  14.107  -1.858  0.00  0.00     0.040 A 
ATOM     12  C   UNL d   1      14.605  13.397  -1.453  0.00  0.00     0.123 A 
ATOM     13  O   UNL d   1      14.874  13.359  -0.670  0.00  0.00    -0.301 OA
ATOM     14  C   UNL d   1      14.314  12.705  -1.813  0.00  0.00     0.123 A 
ATOM     15  C   UNL d   1      14.909  12.576  -0.050  0.00  0.00     0.149 A 
ATOM     16  C   UNL d   1      14.537  11.780  -0.569  0.00  0.00     0.149 A 
ATOM     17  O   UNL d   1      14.294  12.000  -1.401  0.00  0.00    -0.301 OA
ATOM     18  C   UNL d   1      14.043  12.749  -2.603  0.00  0.00     0.028 A 
ATOM     19  C   UNL d   1      14.063  13.451  -3.013  0.00  0.00     0.015 A 
ENDBRANCH   7  10
ENDBRANCH   1   7
BRANCH   2  20
ATOM     20  C   UNL d   1      14.457  18.033  -4.937  0.00  0.00     0.163 A 
ATOM     21  N   UNL d   1      13.874  18.304  -5.388  0.00  0.00    -0.225 NA
ATOM     22  C   UNL d   1      14.104  18.993  -5.689  0.00  0.00     0.101 A 
ATOM     23  C   UNL d   1      13.729  19.494  -6.175  0.00  0.00     0.021 A 
ATOM     24  C   UNL d   1      14.827  19.148  -5.425  0.00  0.00     0.101 A 
ATOM     25  C   UNL d   1      14.103  20.157  -6.389  0.00  0.00     0.002 A 
ATOM     26  C   UNL d   1      14.830  20.316  -6.126  0.00  0.00     0.002 A 
ATOM     27  C   UNL d   1      15.182  19.813  -5.649  0.00  0.00     0.021 A 
ATOM     28  N   UNL d   1      15.048  18.554  -4.959  0.00  0.00    -0.225 NA
ENDBRANCH   2  20
TORSDOF 3
ENDMDL
