MODEL 1
REMARK VINA RESULT:      49.8      0.000      0.000
REMARK  2 active torsions:
REMARK  status: ('A' for Active; 'I' for Inactive)
REMARK    1  A    between atoms: C_7  and  C_3 
REMARK    2  A    between atoms: N_9  and  C_8 
ROOT
ATOM      1  N   UNL d   1     -54.877-101.607 -37.726  0.00  0.00    -0.227 NA
ATOM      2  N   UNL d   1     -54.764-100.249 -38.124  0.00  0.00    -0.227 NA
ATOM      3  C   UNL d   1     -54.813-101.056 -38.328  0.00  0.00     0.162 A 
ATOM      4  C   UNL d   1     -54.782-100.032 -37.327  0.00  0.00     0.085 A 
ATOM      5  C   UNL d   1     -54.895-101.392 -36.919  0.00  0.00     0.085 A 
ATOM      6  C   UNL d   1     -54.847-100.600 -36.718  0.00  0.00     0.035 A 
ATOM      7  C   UNL d   1     -54.863-100.361 -35.916  0.00  0.00     0.003 A 
ATOM      8  C   UNL d   1     -54.732 -99.212 -37.120  0.00  0.00     0.019 A 
ATOM      9  C   UNL d   1     -54.959-101.958 -36.321  0.00  0.00     0.019 A 
ATOM     10  C   UNL d   1     -54.977-101.742 -35.516  0.00  0.00     0.002 A 
ATOM     11  C   UNL d   1     -54.750 -98.997 -36.312  0.00  0.00     0.002 A 
ATOM     12  C   UNL d   1     -54.930-100.950 -35.316  0.00  0.00     0.000 A 
ATOM     13  C   UNL d   1     -54.815 -99.563 -35.714  0.00  0.00     0.000 A 
ENDROOT
BRANCH   3  14
ATOM     14  C   UNL d   1     -54.799-101.310 -39.103  0.00  0.00     0.036 A 
ATOM     15  C   UNL d   1     -54.739-100.766 -39.718  0.00  0.00     0.004 A 
ATOM     16  C   UNL d   1     -54.725-101.018 -40.501  0.00  0.00     0.018 A 
ATOM     17  C   UNL d   1     -54.769-101.812 -40.678  0.00  0.00     0.064 A 
ATOM     18  C   UNL d   1     -54.829-102.366 -40.065  0.00  0.00     0.018 A 
ATOM     19  C   UNL d   1     -54.843-102.108 -39.289  0.00  0.00     0.004 A 
BRANCH  17  20
ATOM     20  N   UNL d   1     -54.755-102.064 -41.461  0.00  0.00    -0.301 N 
ATOM     21  C   UNL d   1     -54.712-101.517 -42.072  0.00  0.00     0.100 C 
ATOM     22  C   UNL d   1     -54.784-102.865 -41.628  0.00  0.00     0.100 C 
ENDBRANCH  17  20
ENDBRANCH   3  14
TORSDOF 2
ENDMDL
MODEL 2
REMARK VINA RESULT:      51.8      1.824      5.785
REMARK  2 active torsions:
REMARK  status: ('A' for Active; 'I' for Inactive)
REMARK    1  A    between atoms: C_7  and  C_3 
REMARK    2  A    between atoms: N_9  and  C_8 
ROOT
ATOM      1  N   UNL d   1     -54.888-100.293 -42.184  0.00  0.00    -0.227 NA
ATOM      2  N   UNL d   1     -54.762-101.626 -42.655  0.00  0.00    -0.227 NA
ATOM      3  C   UNL d   1     -54.821-101.092 -42.018  0.00  0.00     0.162 A 
ATOM      4  C   UNL d   1     -54.772-101.336 -43.428  0.00  0.00     0.085 A 
ATOM      5  C   UNL d   1     -54.898 -99.995 -42.965  0.00  0.00     0.085 A 
ATOM      6  C   UNL d   1     -54.840-100.519 -43.590  0.00  0.00     0.035 A 
ATOM      7  C   UNL d   1     -54.849-100.244 -44.380  0.00  0.00     0.003 A 
ATOM      8  C   UNL d   1     -54.711-101.879 -44.076  0.00  0.00     0.019 A 
ATOM      9  C   UNL d   1     -54.966 -99.186 -43.119  0.00  0.00     0.019 A 
ATOM     10  C   UNL d   1     -54.977 -98.891 -43.898  0.00  0.00     0.002 A 
ATOM     11  C   UNL d   1     -54.722-101.581 -44.857  0.00  0.00     0.002 A 
ATOM     12  C   UNL d   1     -54.919 -99.415 -44.523  0.00  0.00     0.000 A 
ATOM     13  C   UNL d   1     -54.790-100.772 -45.011  0.00  0.00     0.000 A 
ENDROOT
BRANCH   3  14
ATOM     14  C   UNL d   1     -54.815-101.340 -41.241  0.00  0.00     0.036 A 
ATOM     15  C   UNL d   1     -54.727-100.794 -40.631  0.00  0.00     0.004 A 
ATOM     16  C   UNL d   1     -54.720-101.040 -39.846  0.00  0.00     0.018 A 
ATOM     17  C   UNL d   1     -54.800-101.829 -39.662  0.00  0.00     0.064 A 
ATOM     18  C   UNL d   1     -54.889-102.385 -40.269  0.00  0.00     0.018 A 
ATOM     19  C   UNL d   1     -54.895-102.134 -41.047  0.00  0.00     0.004 A 
BRANCH  17  20
ATOM     20  N   UNL d   1     -54.793-102.074 -38.877  0.00  0.00    -0.301 N 
ATOM     21  C   UNL d   1     -54.806-101.522 -38.269  0.00  0.00     0.100 C 
ATOM     22  C   UNL d   1     -54.774-102.874 -38.703  0.00  0.00     0.100 C 
ENDBRANCH  17  20
ENDBRANCH   3  14
TORSDOF 2
ENDMDL
