MODEL 1
REMARK VINA RESULT:      -7.4      0.000      0.000
REMARK  3 active torsions:
REMARK  status: ('A' for Active; 'I' for Inactive)
REMARK    1  A    between atoms: O_10  and  C_9 
REMARK    2  A    between atoms: C_13  and  O_10 
REMARK    3  A    between atoms: C_12  and  C_13 
ROOT
ATOM      1  C   UNL d   1     -49.793  14.349  22.562  0.00  0.00     0.066 A 
ATOM      2  O   UNL d   1     -50.325  15.575  22.621  0.00  0.00    -0.302 OA
ATOM      3  C   UNL d   1     -50.615  14.273  22.525  0.00  0.00     0.222 A 
ATOM      4  C   UNL d   1     -49.618  15.153  22.621  0.00  0.00     0.103 A 
ATOM      5  C   UNL d   1     -49.182  13.803  22.551  0.00  0.00     0.030 A 
ATOM      6  C   UNL d   1     -50.941  15.029  22.562  0.00  0.00     0.165 A 
ATOM      7  O   UNL d   1     -51.029  13.559  22.463  0.00  0.00    -0.284 OA
ATOM      8  C   UNL d   1     -48.840  15.404  22.668  0.00  0.00     0.027 A 
ATOM      9  C   UNL d   1     -48.399  14.057  22.598  0.00  0.00     0.100 A 
ATOM     10  C   UNL d   1     -48.229  14.862  22.657  0.00  0.00     0.027 A 
ENDROOT
BRANCH   9  11
ATOM     11  O   UNL d   1     -47.782  13.502  22.586  0.00  0.00    -0.305 OA
BRANCH  11  12
ATOM     12  C   UNL d   1     -47.322  13.379  23.258  0.00  0.00     0.122 C 
BRANCH  12  13
ATOM     13  C   UNL d   1     -46.809  12.728  23.282  0.00  0.00     0.025 A 
ATOM     14  C   UNL d   1     -46.072  12.780  22.909  0.00  0.00     0.004 A 
ATOM     15  C   UNL d   1     -45.561  12.137  22.930  0.00  0.00     0.030 A 
ATOM     16  C   UNL d   1     -45.785  11.440  23.327  0.00  0.00     0.140 A 
ATOM     17  C   UNL d   1     -46.519  11.395  23.697  0.00  0.00     0.030 A 
ATOM     18  F   UNL d   1     -45.268  10.799  23.345  0.00  0.00    -0.204 F 
ATOM     19  C   UNL d   1     -47.031  12.037  23.675  0.00  0.00     0.004 A 
ENDBRANCH  12  13
ENDBRANCH  11  12
ENDBRANCH   9  11
TORSDOF 3
ENDMDL
MODEL 2
REMARK VINA RESULT:      -7.1      0.978      1.506
REMARK  3 active torsions:
REMARK  status: ('A' for Active; 'I' for Inactive)
REMARK    1  A    between atoms: O_10  and  C_9 
REMARK    2  A    between atoms: C_13  and  O_10 
REMARK    3  A    between atoms: C_12  and  C_13 
ROOT
ATOM      1  C   UNL d   1     -49.856  14.506  23.096  0.00  0.00     0.066 A 
ATOM      2  O   UNL d   1     -51.051  14.311  23.663  0.00  0.00    -0.302 OA
ATOM      3  C   UNL d   1     -50.276  15.217  23.058  0.00  0.00     0.222 A 
ATOM      4  C   UNL d   1     -50.338  13.950  23.470  0.00  0.00     0.103 A 
ATOM      5  C   UNL d   1     -49.108  14.288  22.844  0.00  0.00     0.030 A 
ATOM      6  C   UNL d   1     -51.013  15.094  23.408  0.00  0.00     0.165 A 
ATOM      7  O   UNL d   1     -49.999  15.922  22.726  0.00  0.00    -0.284 OA
ATOM      8  C   UNL d   1     -50.069  13.185  23.588  0.00  0.00     0.027 A 
ATOM      9  C   UNL d   1     -48.839  13.518  22.964  0.00  0.00     0.100 A 
ATOM     10  C   UNL d   1     -49.324  12.965  23.339  0.00  0.00     0.027 A 
ENDROOT
BRANCH   9  11
ATOM     11  O   UNL d   1     -48.080  13.299  22.708  0.00  0.00    -0.305 OA
BRANCH  11  12
ATOM     12  C   UNL d   1     -47.423  13.453  23.180  0.00  0.00     0.122 C 
BRANCH  12  13
ATOM     13  C   UNL d   1     -46.674  13.204  22.924  0.00  0.00     0.025 A 
ATOM     14  C   UNL d   1     -46.242  13.686  22.410  0.00  0.00     0.004 A 
ATOM     15  C   UNL d   1     -45.500  13.443  22.154  0.00  0.00     0.030 A 
ATOM     16  C   UNL d   1     -45.189  12.715  22.412  0.00  0.00     0.140 A 
ATOM     17  C   UNL d   1     -45.625  12.239  22.923  0.00  0.00     0.030 A 
ATOM     18  F   UNL d   1     -44.444  12.476  22.152  0.00  0.00    -0.204 F 
ATOM     19  C   UNL d   1     -46.367  12.482  23.179  0.00  0.00     0.004 A 
ENDBRANCH  12  13
ENDBRANCH  11  12
ENDBRANCH   9  11
TORSDOF 3
ENDMDL
MODEL 3
REMARK VINA RESULT:      -5.8      1.292      2.253
REMARK  3 active torsions:
REMARK  status: ('A' for Active; 'I' for Inactive)
REMARK    1  A    between atoms: O_10  and  C_9 
REMARK    2  A    between atoms: C_13  and  O_10 
REMARK    3  A    between atoms: C_12  and  C_13 
ROOT
ATOM      1  C   UNL d   1     -47.662  14.162  22.830  0.00  0.00     0.066 A 
ATOM      2  O   UNL d   1     -48.982  14.334  22.703  0.00  0.00    -0.302 OA
ATOM      3  C   UNL d   1     -47.796  14.936  22.573  0.00  0.00     0.222 A 
ATOM      4  C   UNL d   1     -48.396  13.795  22.909  0.00  0.00     0.103 A 
ATOM      5  C   UNL d   1     -46.980  13.743  23.002  0.00  0.00     0.030 A 
ATOM      6  C   UNL d   1     -48.610  15.041  22.495  0.00  0.00     0.165 A 
ATOM      7  O   UNL d   1     -47.209  15.501  22.423  0.00  0.00    -0.284 OA
ATOM      8  C   UNL d   1     -48.443  13.016  23.158  0.00  0.00     0.027 A 
ATOM      9  C   UNL d   1     -47.028  12.959  23.253  0.00  0.00     0.100 A 
ATOM     10  C   UNL d   1     -47.765  12.595  23.330  0.00  0.00     0.027 A 
ENDROOT
BRANCH   9  11
ATOM     11  O   UNL d   1     -46.335  12.536  23.427  0.00  0.00    -0.305 OA
BRANCH  11  12
ATOM     12  C   UNL d   1     -46.306  11.721  23.308  0.00  0.00     0.122 C 
BRANCH  12  13
ATOM     13  C   UNL d   1     -45.570  11.339  23.310  0.00  0.00     0.025 A 
ATOM     14  C   UNL d   1     -44.931  11.691  22.920  0.00  0.00     0.004 A 
ATOM     15  C   UNL d   1     -44.200  11.316  22.920  0.00  0.00     0.030 A 
ATOM     16  C   UNL d   1     -44.107  10.586  23.311  0.00  0.00     0.140 A 
ATOM     17  C   UNL d   1     -44.747  10.241  23.698  0.00  0.00     0.030 A 
ATOM     18  F   UNL d   1     -43.371  10.215  23.308  0.00  0.00    -0.204 F 
ATOM     19  C   UNL d   1     -45.478  10.616  23.698  0.00  0.00     0.004 A 
ENDBRANCH  12  13
ENDBRANCH  11  12
ENDBRANCH   9  11
TORSDOF 3
ENDMDL
MODEL 4
REMARK VINA RESULT:      -5.7      8.847      9.396
REMARK  3 active torsions:
REMARK  status: ('A' for Active; 'I' for Inactive)
REMARK    1  A    between atoms: O_10  and  C_9 
REMARK    2  A    between atoms: C_13  and  O_10 
REMARK    3  A    between atoms: C_12  and  C_13 
ROOT
ATOM      1  C   UNL d   1     -40.221  14.911  17.984  0.00  0.00     0.066 A 
ATOM      2  O   UNL d   1     -40.808  15.922  17.334  0.00  0.00    -0.302 OA
ATOM      3  C   UNL d   1     -40.139  14.776  17.172  0.00  0.00     0.222 A 
ATOM      4  C   UNL d   1     -40.634  15.618  18.078  0.00  0.00     0.103 A 
ATOM      5  C   UNL d   1     -39.980  14.492  18.644  0.00  0.00     0.030 A 
ATOM      6  C   UNL d   1     -40.501  15.400  16.773  0.00  0.00     0.165 A 
ATOM      7  O   UNL d   1     -39.758  14.126  16.829  0.00  0.00    -0.284 OA
ATOM      8  C   UNL d   1     -40.802  15.900  18.829  0.00  0.00     0.027 A 
ATOM      9  C   UNL d   1     -40.150  14.776  19.399  0.00  0.00     0.100 A 
ATOM     10  C   UNL d   1     -40.563  15.485  19.490  0.00  0.00     0.027 A 
ENDROOT
BRANCH   9  11
ATOM     11  O   UNL d   1     -39.904  14.350  20.068  0.00  0.00    -0.305 OA
BRANCH  11  12
ATOM     12  C   UNL d   1     -39.238  14.588  20.490  0.00  0.00     0.122 C 
BRANCH  12  13
ATOM     13  C   UNL d   1     -38.972  14.122  21.122  0.00  0.00     0.025 A 
ATOM     14  C   UNL d   1     -38.297  13.654  21.024  0.00  0.00     0.004 A 
ATOM     15  C   UNL d   1     -38.030  13.190  21.647  0.00  0.00     0.030 A 
ATOM     16  C   UNL d   1     -38.440  13.194  22.373  0.00  0.00     0.140 A 
ATOM     17  C   UNL d   1     -39.111  13.662  22.465  0.00  0.00     0.030 A 
ATOM     18  F   UNL d   1     -38.168  12.727  22.995  0.00  0.00    -0.204 F 
ATOM     19  C   UNL d   1     -39.378  14.125  21.841  0.00  0.00     0.004 A 
ENDBRANCH  12  13
ENDBRANCH  11  12
ENDBRANCH   9  11
TORSDOF 3
ENDMDL
MODEL 5
REMARK VINA RESULT:      -5.6      8.936      9.711
REMARK  3 active torsions:
REMARK  status: ('A' for Active; 'I' for Inactive)
REMARK    1  A    between atoms: O_10  and  C_9 
REMARK    2  A    between atoms: C_13  and  O_10 
REMARK    3  A    between atoms: C_12  and  C_13 
ROOT
ATOM      1  C   UNL d   1     -39.270  14.556  21.691  0.00  0.00     0.066 A 
ATOM      2  O   UNL d   1     -39.015  15.157  22.859  0.00  0.00    -0.302 OA
ATOM      3  C   UNL d   1     -38.821  14.038  22.154  0.00  0.00     0.222 A 
ATOM      4  C   UNL d   1     -39.386  15.245  22.130  0.00  0.00     0.103 A 
ATOM      5  C   UNL d   1     -39.586  14.499  20.938  0.00  0.00     0.030 A 
ATOM      6  C   UNL d   1     -38.665  14.410  22.873  0.00  0.00     0.165 A 
ATOM      7  O   UNL d   1     -38.577  13.280  21.926  0.00  0.00    -0.284 OA
ATOM      8  C   UNL d   1     -39.816  15.867  21.814  0.00  0.00     0.027 A 
ATOM      9  C   UNL d   1     -40.018  15.126  20.622  0.00  0.00     0.100 A 
ATOM     10  C   UNL d   1     -40.132  15.813  21.064  0.00  0.00     0.027 A 
ENDROOT
BRANCH   9  11
ATOM     11  O   UNL d   1     -40.337  15.065  19.858  0.00  0.00    -0.305 OA
BRANCH  11  12
ATOM     12  C   UNL d   1     -39.911  15.336  19.207  0.00  0.00     0.122 C 
BRANCH  12  13
ATOM     13  C   UNL d   1     -40.257  15.299  18.454  0.00  0.00     0.025 A 
ATOM     14  C   UNL d   1     -40.127  14.632  17.982  0.00  0.00     0.004 A 
ATOM     15  C   UNL d   1     -40.467  14.592  17.235  0.00  0.00     0.030 A 
ATOM     16  C   UNL d   1     -40.940  15.220  16.959  0.00  0.00     0.140 A 
ATOM     17  C   UNL d   1     -41.065  15.881  17.434  0.00  0.00     0.030 A 
ATOM     18  F   UNL d   1     -41.279  15.174  16.209  0.00  0.00    -0.204 F 
ATOM     19  C   UNL d   1     -40.725  15.921  18.181  0.00  0.00     0.004 A 
ENDBRANCH  12  13
ENDBRANCH  11  12
ENDBRANCH   9  11
TORSDOF 3
ENDMDL
MODEL 6
REMARK VINA RESULT:      -5.5      8.853     10.836
REMARK  3 active torsions:
REMARK  status: ('A' for Active; 'I' for Inactive)
REMARK    1  A    between atoms: O_10  and  C_9 
REMARK    2  A    between atoms: C_13  and  O_10 
REMARK    3  A    between atoms: C_12  and  C_13 
ROOT
ATOM      1  C   UNL d   1     -38.389  14.463  16.562  0.00  0.00     0.066 A 
ATOM      2  O   UNL d   1     -38.104  13.494  15.684  0.00  0.00    -0.302 OA
ATOM      3  C   UNL d   1     -38.133  14.819  15.861  0.00  0.00     0.222 A 
ATOM      4  C   UNL d   1     -38.369  13.646  16.448  0.00  0.00     0.103 A 
ATOM      5  C   UNL d   1     -38.635  14.765  17.282  0.00  0.00     0.030 A 
ATOM      6  C   UNL d   1     -37.958  14.221  15.322  0.00  0.00     0.165 A 
ATOM      7  O   UNL d   1     -38.068  15.634  15.732  0.00  0.00    -0.284 OA
ATOM      8  C   UNL d   1     -38.594  13.141  17.052  0.00  0.00     0.027 A 
ATOM      9  C   UNL d   1     -38.861  14.255  17.889  0.00  0.00     0.100 A 
ATOM     10  C   UNL d   1     -38.840  13.438  17.772  0.00  0.00     0.027 A 
ENDROOT
BRANCH   9  11
ATOM     11  O   UNL d   1     -39.111  14.563  18.618  0.00  0.00    -0.305 OA
BRANCH  11  12
ATOM     12  C   UNL d   1     -39.886  14.451  18.873  0.00  0.00     0.122 C 
BRANCH  12  13
ATOM     13  C   UNL d   1     -40.138  14.817  19.573  0.00  0.00     0.025 A 
ATOM     14  C   UNL d   1     -40.683  15.439  19.529  0.00  0.00     0.004 A 
ATOM     15  C   UNL d   1     -40.936  15.805  20.220  0.00  0.00     0.030 A 
ATOM     16  C   UNL d   1     -40.643  15.550  20.957  0.00  0.00     0.140 A 
ATOM     17  C   UNL d   1     -40.101  14.931  20.994  0.00  0.00     0.030 A 
ATOM     18  F   UNL d   1     -40.901  15.921  21.647  0.00  0.00    -0.204 F 
ATOM     19  C   UNL d   1     -39.848  14.565  20.303  0.00  0.00     0.004 A 
ENDBRANCH  12  13
ENDBRANCH  11  12
ENDBRANCH   9  11
TORSDOF 3
ENDMDL
MODEL 7
REMARK VINA RESULT:      -5.3      8.668     10.151
REMARK  3 active torsions:
REMARK  status: ('A' for Active; 'I' for Inactive)
REMARK    1  A    between atoms: O_10  and  C_9 
REMARK    2  A    between atoms: C_13  and  O_10 
REMARK    3  A    between atoms: C_12  and  C_13 
ROOT
ATOM      1  C   UNL d   1     -39.413  15.661  20.850  0.00  0.00     0.066 A 
ATOM      2  O   UNL d   1     -40.259  15.920  21.854  0.00  0.00    -0.302 OA
ATOM      3  C   UNL d   1     -38.969  15.763  21.539  0.00  0.00     0.222 A 
ATOM      4  C   UNL d   1     -40.208  15.758  21.048  0.00  0.00     0.103 A 
ATOM      5  C   UNL d   1     -39.208  15.494  20.075  0.00  0.00     0.030 A 
ATOM      6  C   UNL d   1     -39.491  15.922  22.157  0.00  0.00     0.165 A 
ATOM      7  O   UNL d   1     -38.144  15.712  21.591  0.00  0.00    -0.284 OA
ATOM      8  C   UNL d   1     -40.788  15.689  20.474  0.00  0.00     0.027 A 
ATOM      9  C   UNL d   1     -39.793  15.425  19.498  0.00  0.00     0.100 A 
ATOM     10  C   UNL d   1     -40.586  15.523  19.700  0.00  0.00     0.027 A 
ENDROOT
BRANCH   9  11
ATOM     11  O   UNL d   1     -39.582  15.256  18.712  0.00  0.00    -0.305 OA
BRANCH  11  12
ATOM     12  C   UNL d   1     -39.706  14.503  18.403  0.00  0.00     0.122 C 
BRANCH  12  13
ATOM     13  C   UNL d   1     -39.362  14.303  17.675  0.00  0.00     0.025 A 
ATOM     14  C   UNL d   1     -38.992  13.568  17.591  0.00  0.00     0.004 A 
ATOM     15  C   UNL d   1     -38.649  13.366  16.872  0.00  0.00     0.030 A 
ATOM     16  C   UNL d   1     -38.676  13.901  16.234  0.00  0.00     0.140 A 
ATOM     17  C   UNL d   1     -39.046  14.632  16.324  0.00  0.00     0.030 A 
ATOM     18  F   UNL d   1     -38.331  13.694  15.515  0.00  0.00    -0.204 F 
ATOM     19  C   UNL d   1     -39.388  14.833  17.044  0.00  0.00     0.004 A 
ENDBRANCH  12  13
ENDBRANCH  11  12
ENDBRANCH   9  11
TORSDOF 3
ENDMDL
