MODEL 1
REMARK VINA RESULT:      25.3      0.000      0.000
REMARK  2 active torsions:
REMARK  status: ('A' for Active; 'I' for Inactive)
REMARK    1  A    between atoms: C_8  and  C_1 
REMARK    2  A    between atoms: C_7  and  C_2 
ROOT
ATOM      1  C   UNL d   1      45.337 -14.418  44.202  0.00  0.00     0.066 A 
ATOM      2  C   UNL d   1      44.686 -14.722  44.605  0.00  0.00     0.174 A 
ATOM      3  C   UNL d   1      45.990 -14.898  44.023  0.00  0.00     0.199 A 
ATOM      4  O   UNL d   1      44.682 -15.520  44.837  0.00  0.00    -0.303 OA
ATOM      5  C   UNL d   1      45.969 -15.693  44.263  0.00  0.00     0.062 A 
ATOM      6  C   UNL d   1      45.329 -15.995  44.661  0.00  0.00     0.106 A 
ATOM      7  C   UNL d   1      45.311 -16.791  44.899  0.00  0.00     0.067 A 
ATOM      8  C   UNL d   1      46.623 -16.188  44.089  0.00  0.00     0.009 A 
ATOM      9  O   UNL d   1      46.644 -14.576  43.613  0.00  0.00    -0.286 OA
ATOM     10  C   UNL d   1      45.961 -17.274  44.723  0.00  0.00     0.198 A 
ATOM     11  C   UNL d   1      46.619 -16.967  44.316  0.00  0.00     0.042 A 
ATOM     12  O   UNL d   1      45.943 -18.048  44.955  0.00  0.00    -0.286 OA
ENDROOT
BRANCH   1  13
ATOM     13  C   UNL d   1      45.362 -13.645  43.967  0.00  0.00     0.005 A 
ATOM     14  C   UNL d   1      45.846 -13.101  44.325  0.00  0.00     0.000 A 
ATOM     15  C   UNL d   1      46.342 -13.291  44.948  0.00  0.00     0.000 C 
ATOM     16  C   UNL d   1      45.865 -12.308  44.078  0.00  0.00     0.000 A 
ATOM     17  C   UNL d   1      45.380 -12.080  43.456  0.00  0.00     0.000 A 
ATOM     18  C   UNL d   1      44.883 -12.622  43.081  0.00  0.00     0.000 A 
ATOM     19  C   UNL d   1      44.874 -13.396  43.335  0.00  0.00     0.000 A 
ENDBRANCH   1  13
BRANCH   2  20
ATOM     20  C   UNL d   1      44.040 -14.235  44.778  0.00  0.00     0.440 C 
ATOM     21  F   UNL d   1      43.347 -14.575  44.796  0.00  0.00    -0.164 F 
ATOM     22  F   UNL d   1      43.363 -13.799  44.945  0.00  0.00    -0.164 F 
ATOM     23  F   UNL d   1      44.158 -13.369  44.933  0.00  0.00    -0.164 F 
ENDBRANCH   2  20
TORSDOF 2
ENDMDL
