MODEL 1
REMARK VINA RESULT:      43.3      0.000      0.000
REMARK  7 active torsions:
REMARK  status: ('A' for Active; 'I' for Inactive)
REMARK    1  A    between atoms: C_10  and  C_3 
REMARK    2  A    between atoms: N_11  and  C_4 
REMARK    3  A    between atoms: C_21  and  N_11 
REMARK    4  A    between atoms: O_20  and  C_23 
REMARK    5  A    between atoms: C_24  and  O_20 
REMARK    6  A    between atoms: C_23  and  C_21 
REMARK    7  A    between atoms: C_22  and  C_24 
ROOT
ATOM      1  C   UNL d   1      13.673  13.377  -3.358  0.00  0.00     0.167 A 
ATOM      2  N   UNL d   1      13.442  13.589  -4.150  0.00  0.00    -0.195 N 
ATOM      3  C   UNL d   1      13.619  12.606  -3.111  0.00  0.00     0.057 A 
ATOM      4  C   UNL d   1      13.504  14.360  -4.379  0.00  0.00     0.167 A 
ATOM      5  N   UNL d   1      13.111  12.228  -4.403  0.00  0.00    -0.161 NA
ATOM      6  N   UNL d   1      13.950  13.951  -2.848  0.00  0.00    -0.227 NA
ATOM      7  C   UNL d   1      13.782  14.948  -3.872  0.00  0.00     0.058 A 
ATOM      8  C   UNL d   1      13.335  12.023  -3.636  0.00  0.00     0.124 A 
ATOM      9  C   UNL d   1      14.009  14.739  -3.092  0.00  0.00     0.086 A 
ATOM     10  C   UNL d   1      14.301  15.344  -2.555  0.00  0.00     0.021 C 
ENDROOT
BRANCH   3  11
ATOM     11  C   UNL d   1      13.843  12.401  -2.344  0.00  0.00     0.005 A 
ATOM     12  C   UNL d   1      13.289  12.101  -1.827  0.00  0.00     0.001 A 
ATOM     13  C   UNL d   1      13.509  11.899  -1.072  0.00  0.00     0.011 A 
ATOM     14  C   UNL d   1      14.287  11.995  -0.823  0.00  0.00     0.058 A 
ATOM     15  C   UNL d   1      14.840  12.295  -1.340  0.00  0.00     0.011 A 
ATOM     16 CL   UNL d   1      14.521  11.780  -0.018  0.00  0.00    -0.082 Cl
ATOM     17  C   UNL d   1      14.616  12.500  -2.107  0.00  0.00     0.001 A 
ENDBRANCH   3  11
BRANCH   4  18
ATOM     18  N   UNL d   1      13.271  14.578  -5.177  0.00  0.00    -0.223 NA
BRANCH  18  19
ATOM     19  C   UNL d   1      12.972  15.122  -5.763  0.00  0.00     0.127 C 
BRANCH  19  20
ATOM     20  C   UNL d   1      13.482  15.771  -6.020  0.00  0.00     0.143 C 
BRANCH  20  21
ATOM     21  O   UNL d   1      13.276  16.583  -5.839  0.00  0.00    -0.298 OA
BRANCH  21  22
ATOM     22  C   UNL d   1      13.471  17.220  -6.389  0.00  0.00     0.168 C 
BRANCH  22  23
ATOM     23  C   UNL d   1      13.078  17.980  -6.323  0.00  0.00     0.261 C 
ATOM     24  O   UNL d   1      13.541  18.707  -6.322  0.00  0.00    -0.281 OA
ENDBRANCH  22  23
ENDBRANCH  21  22
ENDBRANCH  20  21
ENDBRANCH  19  20
ENDBRANCH  18  19
ENDBRANCH   4  18
TORSDOF 7
ENDMDL
MODEL 2
REMARK VINA RESULT:      44.5      2.688      4.100
REMARK  7 active torsions:
REMARK  status: ('A' for Active; 'I' for Inactive)
REMARK    1  A    between atoms: C_10  and  C_3 
REMARK    2  A    between atoms: N_11  and  C_4 
REMARK    3  A    between atoms: C_21  and  N_11 
REMARK    4  A    between atoms: O_20  and  C_23 
REMARK    5  A    between atoms: C_24  and  O_20 
REMARK    6  A    between atoms: C_23  and  C_21 
REMARK    7  A    between atoms: C_22  and  C_24 
ROOT
ATOM      1  C   UNL d   1      14.507  14.325  -1.883  0.00  0.00     0.167 A 
ATOM      2  N   UNL d   1      14.109  13.786  -2.408  0.00  0.00    -0.195 N 
ATOM      3  C   UNL d   1      14.571  15.110  -2.078  0.00  0.00     0.057 A 
ATOM      4  C   UNL d   1      14.054  13.009  -2.198  0.00  0.00     0.167 A 
ATOM      5  N   UNL d   1      13.859  14.864  -3.304  0.00  0.00    -0.161 NA
ATOM      6  N   UNL d   1      14.825  14.051  -1.183  0.00  0.00    -0.227 NA
ATOM      7  C   UNL d   1      14.372  12.722  -1.494  0.00  0.00     0.058 A 
ATOM      8  C   UNL d   1      14.245  15.386  -2.795  0.00  0.00     0.124 A 
ATOM      9  C   UNL d   1      14.764  13.252  -0.977  0.00  0.00     0.086 A 
ATOM     10  C   UNL d   1      15.098  12.962  -0.240  0.00  0.00     0.021 C 
ENDROOT
BRANCH   3  11
ATOM     11  C   UNL d   1      14.957  15.632  -1.569  0.00  0.00     0.005 A 
ATOM     12  C   UNL d   1      15.285  15.355  -0.877  0.00  0.00     0.001 A 
ATOM     13  C   UNL d   1      15.665  15.869  -0.376  0.00  0.00     0.011 A 
ATOM     14  C   UNL d   1      15.723  16.668  -0.560  0.00  0.00     0.058 A 
ATOM     15  C   UNL d   1      15.394  16.945  -1.253  0.00  0.00     0.011 A 
ATOM     16 CL   UNL d   1      16.127  17.215  -0.027  0.00  0.00    -0.082 Cl
ATOM     17  C   UNL d   1      15.008  16.422  -1.762  0.00  0.00     0.001 A 
ENDBRANCH   3  11
BRANCH   4  18
ATOM     18  N   UNL d   1      13.653  12.461  -2.726  0.00  0.00    -0.223 NA
BRANCH  18  19
ATOM     19  C   UNL d   1      13.083  11.851  -2.902  0.00  0.00     0.127 C 
BRANCH  19  20
ATOM     20  C   UNL d   1      12.784  11.788  -3.711  0.00  0.00     0.143 C 
BRANCH  20  21
ATOM     21  O   UNL d   1      13.319  11.846  -4.378  0.00  0.00    -0.298 OA
BRANCH  21  22
ATOM     22  C   UNL d   1      13.020  11.827  -5.187  0.00  0.00     0.168 C 
BRANCH  22  23
ATOM     23  C   UNL d   1      13.558  11.925  -5.847  0.00  0.00     0.261 C 
ATOM     24  O   UNL d   1      14.240  12.447  -5.774  0.00  0.00    -0.281 OA
ENDBRANCH  22  23
ENDBRANCH  21  22
ENDBRANCH  20  21
ENDBRANCH  19  20
ENDBRANCH  18  19
ENDBRANCH   4  18
TORSDOF 7
ENDMDL
