MODEL 1
REMARK VINA RESULT:      -4.8      0.000      0.000
REMARK  3 active torsions:
REMARK  status: ('A' for Active; 'I' for Inactive)
REMARK    1  A    between atoms: C_9  and  C_1 
REMARK    2  A    between atoms: C_11  and  C_2 
REMARK    3  A    between atoms: C_3  and  C_9 
ROOT
ATOM      1  C   UNL d   1      56.648  -0.364  32.845  0.00  0.00     0.003 A 
ATOM      2  C   UNL d   1      57.418  -0.243  31.405  0.00  0.00    -0.023 A 
ATOM      3  C   UNL d   1      57.252   0.185  32.739  0.00  0.00    -0.000 A 
ATOM      4  C   UNL d   1      56.436  -0.848  32.228  0.00  0.00    -0.000 A 
ATOM      5  C   UNL d   1      56.816  -0.792  31.507  0.00  0.00    -0.004 A 
ATOM      6  C   UNL d   1      57.631   0.241  32.021  0.00  0.00    -0.004 A 
ATOM      7  C   UNL d   1      55.827  -1.403  32.331  0.00  0.00    -0.000 C 
ATOM      8  C   UNL d   1      57.474   0.682  33.361  0.00  0.00    -0.000 C 
ENDROOT
BRANCH   1   9
ATOM      9  C   UNL d   1      56.264  -0.420  33.572  0.00  0.00     0.039 C 
BRANCH   9  10
ATOM     10  C   UNL d   1      55.657   0.001  33.945  0.00  0.00     0.163 A 
ATOM     11  N   UNL d   1      54.978   0.301  33.582  0.00  0.00    -0.224 NA
ATOM     12  C   UNL d   1      54.533   0.677  34.162  0.00  0.00     0.121 A 
ATOM     13  C   UNL d   1      54.924   0.617  34.886  0.00  0.00     0.121 A 
ATOM     14  N   UNL d   1      55.622   0.198  34.757  0.00  0.00    -0.224 NA
ENDBRANCH   9  10
ENDBRANCH   1   9
BRANCH   2  15
ATOM     15  C   UNL d   1      57.802  -0.187  30.677  0.00  0.00     0.019 C 
ATOM     16  C   UNL d   1      58.187  -0.131  29.949  0.00  0.00     0.004 C 
ATOM     17  C   UNL d   1      57.696   0.631  30.684  0.00  0.00     0.004 C 
ATOM     18  C   UNL d   1      57.908  -1.005  30.670  0.00  0.00     0.004 C 
ENDBRANCH   2  15
TORSDOF 3
ENDMDL
MODEL 2
REMARK VINA RESULT:      -4.3      1.434      3.763
REMARK  3 active torsions:
REMARK  status: ('A' for Active; 'I' for Inactive)
REMARK    1  A    between atoms: C_9  and  C_1 
REMARK    2  A    between atoms: C_11  and  C_2 
REMARK    3  A    between atoms: C_3  and  C_9 
ROOT
ATOM      1  C   UNL d   1      56.853  -0.209  32.588  0.00  0.00     0.003 A 
ATOM      2  C   UNL d   1      55.717   0.231  33.681  0.00  0.00    -0.023 A 
ATOM      3  C   UNL d   1      56.101  -0.543  32.566  0.00  0.00    -0.000 A 
ATOM      4  C   UNL d   1      57.028   0.342  33.157  0.00  0.00    -0.000 A 
ATOM      5  C   UNL d   1      56.465   0.566  33.706  0.00  0.00    -0.004 A 
ATOM      6  C   UNL d   1      55.541  -0.321  33.112  0.00  0.00    -0.004 A 
ATOM      7  C   UNL d   1      57.786   0.682  33.183  0.00  0.00    -0.000 C 
ATOM      8  C   UNL d   1      55.914  -1.105  31.989  0.00  0.00    -0.000 C 
ENDROOT
BRANCH   1   9
ATOM      9  C   UNL d   1      57.421  -0.435  32.034  0.00  0.00     0.039 C 
BRANCH   9  10
ATOM     10  C   UNL d   1      57.632  -0.176  31.277  0.00  0.00     0.163 A 
ATOM     11  N   UNL d   1      57.509   0.581  30.969  0.00  0.00    -0.224 NA
ATOM     12  C   UNL d   1      57.806   0.587  30.202  0.00  0.00     0.121 A 
ATOM     13  C   UNL d   1      58.114  -0.157  30.024  0.00  0.00     0.121 A 
ATOM     14  N   UNL d   1      58.009  -0.635  30.688  0.00  0.00    -0.224 NA
ENDBRANCH   9  10
ENDBRANCH   1   9
BRANCH   2  15
ATOM     15  C   UNL d   1      55.148   0.456  34.235  0.00  0.00     0.019 C 
ATOM     16  C   UNL d   1      54.580   0.682  34.789  0.00  0.00     0.004 C 
ATOM     17  C   UNL d   1      55.658   0.241  34.847  0.00  0.00     0.004 C 
ATOM     18  C   UNL d   1      54.638   0.672  33.624  0.00  0.00     0.004 C 
ENDBRANCH   2  15
TORSDOF 3
ENDMDL
MODEL 3
REMARK VINA RESULT:      -3.5      2.339      4.260
REMARK  3 active torsions:
REMARK  status: ('A' for Active; 'I' for Inactive)
REMARK    1  A    between atoms: C_9  and  C_1 
REMARK    2  A    between atoms: C_11  and  C_2 
REMARK    3  A    between atoms: C_3  and  C_9 
ROOT
ATOM      1  C   UNL d   1      58.293   0.448  31.022  0.00  0.00     0.003 A 
ATOM      2  C   UNL d   1      57.028  -0.011  31.954  0.00  0.00    -0.023 A 
ATOM      3  C   UNL d   1      57.584   0.216  30.677  0.00  0.00    -0.000 A 
ATOM      4  C   UNL d   1      58.363   0.448  31.832  0.00  0.00    -0.000 A 
ATOM      5  C   UNL d   1      57.735   0.220  32.301  0.00  0.00    -0.004 A 
ATOM      6  C   UNL d   1      56.959  -0.011  31.145  0.00  0.00    -0.004 A 
ATOM      7  C   UNL d   1      59.077   0.682  32.184  0.00  0.00    -0.000 C 
ATOM      8  C   UNL d   1      57.505   0.214  29.854  0.00  0.00    -0.000 C 
ENDROOT
BRANCH   1   9
ATOM      9  C   UNL d   1      58.928   0.679  30.548  0.00  0.00     0.039 C 
BRANCH   9  10
ATOM     10  C   UNL d   1      59.550   0.283  30.173  0.00  0.00     0.163 A 
ATOM     11  N   UNL d   1      59.476  -0.301  29.593  0.00  0.00    -0.224 NA
ATOM     12  C   UNL d   1      60.235  -0.536  29.381  0.00  0.00     0.121 A 
ATOM     13  C   UNL d   1      60.785  -0.107  29.822  0.00  0.00     0.121 A 
ATOM     14  N   UNL d   1      60.365   0.402  30.315  0.00  0.00    -0.224 NA
ENDBRANCH   9  10
ENDBRANCH   1   9
BRANCH   2  15
ATOM     15  C   UNL d   1      56.394  -0.242  32.428  0.00  0.00     0.019 C 
ATOM     16  C   UNL d   1      55.760  -0.473  32.903  0.00  0.00     0.004 C 
ATOM     17  C   UNL d   1      56.578  -1.034  32.289  0.00  0.00     0.004 C 
ATOM     18  C   UNL d   1      56.210   0.550  32.567  0.00  0.00     0.004 C 
ENDBRANCH   2  15
TORSDOF 3
ENDMDL
MODEL 4
REMARK VINA RESULT:      -2.8      2.805      4.808
REMARK  3 active torsions:
REMARK  status: ('A' for Active; 'I' for Inactive)
REMARK    1  A    between atoms: C_9  and  C_1 
REMARK    2  A    between atoms: C_11  and  C_2 
REMARK    3  A    between atoms: C_3  and  C_9 
ROOT
ATOM      1  C   UNL d   1      58.505  -0.704  29.634  0.00  0.00     0.003 A 
ATOM      2  C   UNL d   1      57.543  -0.314  30.899  0.00  0.00    -0.023 A 
ATOM      3  C   UNL d   1      58.405   0.082  29.855  0.00  0.00    -0.000 A 
ATOM      4  C   UNL d   1      58.122  -1.288  30.049  0.00  0.00    -0.000 A 
ATOM      5  C   UNL d   1      57.641  -1.099  30.681  0.00  0.00    -0.004 A 
ATOM      6  C   UNL d   1      57.927   0.270  30.484  0.00  0.00    -0.004 A 
ATOM      7  C   UNL d   1      58.220  -2.082  29.829  0.00  0.00    -0.000 C 
ATOM      8  C   UNL d   1      58.792   0.682  29.437  0.00  0.00    -0.000 C 
ENDROOT
BRANCH   1   9
ATOM      9  C   UNL d   1      58.991  -0.895  28.995  0.00  0.00     0.039 C 
BRANCH   9  10
ATOM     10  C   UNL d   1      59.778  -1.137  28.913  0.00  0.00     0.163 A 
ATOM     11  N   UNL d   1      60.442  -0.740  29.203  0.00  0.00    -0.224 NA
ATOM     12  C   UNL d   1      61.105  -1.179  28.993  0.00  0.00     0.121 A 
ATOM     13  C   UNL d   1      60.865  -1.847  28.573  0.00  0.00     0.121 A 
ATOM     14  N   UNL d   1      60.043  -1.826  28.521  0.00  0.00    -0.224 NA
ENDBRANCH   9  10
ENDBRANCH   1   9
BRANCH   2  15
ATOM     15  C   UNL d   1      57.058  -0.123  31.538  0.00  0.00     0.019 C 
ATOM     16  C   UNL d   1      56.572   0.068  32.177  0.00  0.00     0.004 C 
ATOM     17  C   UNL d   1      57.208   0.679  31.413  0.00  0.00     0.004 C 
ATOM     18  C   UNL d   1      56.907  -0.924  31.663  0.00  0.00     0.004 C 
ENDBRANCH   2  15
TORSDOF 3
ENDMDL
MODEL 5
REMARK VINA RESULT:      -2.6      9.326      9.984
REMARK  3 active torsions:
REMARK  status: ('A' for Active; 'I' for Inactive)
REMARK    1  A    between atoms: C_9  and  C_1 
REMARK    2  A    between atoms: C_11  and  C_2 
REMARK    3  A    between atoms: C_3  and  C_9 
ROOT
ATOM      1  C   UNL d   1      59.946  -9.510  33.960  0.00  0.00     0.003 A 
ATOM      2  C   UNL d   1      59.005  -9.661  32.629  0.00  0.00    -0.023 A 
ATOM      3  C   UNL d   1      59.147  -9.693  34.032  0.00  0.00    -0.000 A 
ATOM      4  C   UNL d   1      60.266  -9.405  33.221  0.00  0.00    -0.000 A 
ATOM      5  C   UNL d   1      59.802  -9.479  32.553  0.00  0.00    -0.004 A 
ATOM      6  C   UNL d   1      58.685  -9.767  33.367  0.00  0.00    -0.004 A 
ATOM      7  C   UNL d   1      61.072  -9.220  33.144  0.00  0.00    -0.000 C 
ATOM      8  C   UNL d   1      58.813  -9.802  34.781  0.00  0.00    -0.000 C 
ENDROOT
BRANCH   1   9
ATOM      9  C   UNL d   1      60.415  -9.435  34.634  0.00  0.00     0.039 C 
BRANCH   9  10
ATOM     10  C   UNL d   1      60.543  -8.838  35.192  0.00  0.00     0.163 A 
ATOM     11  N   UNL d   1      61.041  -8.884  35.850  0.00  0.00    -0.224 NA
ATOM     12  C   UNL d   1      60.996  -8.164  36.245  0.00  0.00     0.121 A 
ATOM     13  C   UNL d   1      60.475  -7.667  35.844  0.00  0.00     0.121 A 
ATOM     14  N   UNL d   1      60.192  -8.080  35.190  0.00  0.00    -0.224 NA
ENDBRANCH   9  10
ENDBRANCH   1   9
BRANCH   2  15
ATOM     15  C   UNL d   1      58.536  -9.736  31.954  0.00  0.00     0.019 C 
ATOM     16  C   UNL d   1      58.067  -9.811  31.280  0.00  0.00     0.004 C 
ATOM     17  C   UNL d   1      59.214  -9.816  31.491  0.00  0.00     0.004 C 
ATOM     18  C   UNL d   1      57.858  -9.657  32.417  0.00  0.00     0.004 C 
ENDBRANCH   2  15
TORSDOF 3
ENDMDL
MODEL 6
REMARK VINA RESULT:      -2.4      1.644      2.726
REMARK  3 active torsions:
REMARK  status: ('A' for Active; 'I' for Inactive)
REMARK    1  A    between atoms: C_9  and  C_1 
REMARK    2  A    between atoms: C_11  and  C_2 
REMARK    3  A    between atoms: C_3  and  C_9 
ROOT
ATOM      1  C   UNL d   1      58.047   0.669  30.998  0.00  0.00     0.003 A 
ATOM      2  C   UNL d   1      59.484   0.666  30.214  0.00  0.00    -0.023 A 
ATOM      3  C   UNL d   1      58.753   0.675  31.421  0.00  0.00    -0.000 A 
ATOM      4  C   UNL d   1      58.068   0.662  30.186  0.00  0.00    -0.000 A 
ATOM      5  C   UNL d   1      58.782   0.661  29.790  0.00  0.00    -0.004 A 
ATOM      6  C   UNL d   1      59.464   0.673  31.026  0.00  0.00    -0.004 A 
ATOM      7  C   UNL d   1      57.358   0.657  29.756  0.00  0.00    -0.000 C 
ATOM      8  C   UNL d   1      58.741   0.682  32.247  0.00  0.00    -0.000 C 
ENDROOT
BRANCH   1   9
ATOM      9  C   UNL d   1      57.326   0.671  31.398  0.00  0.00     0.039 C 
BRANCH   9  10
ATOM     10  C   UNL d   1      56.879   0.100  31.797  0.00  0.00     0.163 A 
ATOM     11  N   UNL d   1      56.888  -0.714  31.652  0.00  0.00    -0.224 NA
ATOM     12  C   UNL d   1      56.360  -1.064  32.176  0.00  0.00     0.121 A 
ATOM     13  C   UNL d   1      56.019  -0.480  32.648  0.00  0.00     0.121 A 
ATOM     14  N   UNL d   1      56.338   0.244  32.417  0.00  0.00    -0.224 NA
ENDBRANCH   9  10
ENDBRANCH   1   9
BRANCH   2  15
ATOM     15  C   UNL d   1      60.206   0.664  29.814  0.00  0.00     0.019 C 
ATOM     16  C   UNL d   1      60.927   0.663  29.413  0.00  0.00     0.004 C 
ATOM     17  C   UNL d   1      59.805   0.678  29.092  0.00  0.00     0.004 C 
ATOM     18  C   UNL d   1      60.606   0.651  30.535  0.00  0.00     0.004 C 
ENDBRANCH   2  15
TORSDOF 3
ENDMDL
MODEL 7
REMARK VINA RESULT:      -2.1      2.226      3.871
REMARK  3 active torsions:
REMARK  status: ('A' for Active; 'I' for Inactive)
REMARK    1  A    between atoms: C_9  and  C_1 
REMARK    2  A    between atoms: C_11  and  C_2 
REMARK    3  A    between atoms: C_3  and  C_9 
ROOT
ATOM      1  C   UNL d   1      58.552  -0.518  29.710  0.00  0.00     0.003 A 
ATOM      2  C   UNL d   1      59.796  -1.404  29.122  0.00  0.00    -0.023 A 
ATOM      3  C   UNL d   1      58.530  -1.339  29.742  0.00  0.00    -0.000 A 
ATOM      4  C   UNL d   1      59.197  -0.147  29.384  0.00  0.00    -0.000 A 
ATOM      5  C   UNL d   1      59.821  -0.585  29.089  0.00  0.00    -0.004 A 
ATOM      6  C   UNL d   1      59.151  -1.775  29.448  0.00  0.00    -0.004 A 
ATOM      7  C   UNL d   1      59.223   0.682  29.349  0.00  0.00    -0.000 C 
ATOM      8  C   UNL d   1      57.878  -1.724  30.073  0.00  0.00    -0.000 C 
ENDROOT
BRANCH   1   9
ATOM      9  C   UNL d   1      57.922  -0.076  30.008  0.00  0.00     0.039 C 
BRANCH   9  10
ATOM     10  C   UNL d   1      57.716   0.216  30.754  0.00  0.00     0.163 A 
ATOM     11  N   UNL d   1      56.955   0.415  31.006  0.00  0.00    -0.224 NA
ATOM     12  C   UNL d   1      57.012   0.679  31.783  0.00  0.00     0.121 A 
ATOM     13  C   UNL d   1      57.801   0.649  32.022  0.00  0.00     0.121 A 
ATOM     14  N   UNL d   1      58.242   0.362  31.387  0.00  0.00    -0.224 NA
ENDBRANCH   9  10
ENDBRANCH   1   9
BRANCH   2  15
ATOM     15  C   UNL d   1      60.426  -1.846  28.824  0.00  0.00     0.019 C 
ATOM     16  C   UNL d   1      61.056  -2.288  28.526  0.00  0.00     0.004 C 
ATOM     17  C   UNL d   1      59.893  -2.357  28.455  0.00  0.00     0.004 C 
ATOM     18  C   UNL d   1      60.959  -1.336  29.193  0.00  0.00     0.004 C 
ENDBRANCH   2  15
TORSDOF 3
ENDMDL
MODEL 8
REMARK VINA RESULT:      -2.0      9.570     10.043
REMARK  3 active torsions:
REMARK  status: ('A' for Active; 'I' for Inactive)
REMARK    1  A    between atoms: C_9  and  C_1 
REMARK    2  A    between atoms: C_11  and  C_2 
REMARK    3  A    between atoms: C_3  and  C_9 
ROOT
ATOM      1  C   UNL d   1      59.525  -9.810  32.926  0.00  0.00     0.003 A 
ATOM      2  C   UNL d   1      58.721  -9.809  31.499  0.00  0.00    -0.023 A 
ATOM      3  C   UNL d   1      58.702  -9.807  32.910  0.00  0.00    -0.000 A 
ATOM      4  C   UNL d   1      59.937  -9.813  32.226  0.00  0.00    -0.000 A 
ATOM      5  C   UNL d   1      59.542  -9.813  31.511  0.00  0.00    -0.004 A 
ATOM      6  C   UNL d   1      58.308  -9.806  32.199  0.00  0.00    -0.004 A 
ATOM      7  C   UNL d   1      60.768  -9.816  32.237  0.00  0.00    -0.000 C 
ATOM      8  C   UNL d   1      58.275  -9.804  33.618  0.00  0.00    -0.000 C 
ENDROOT
BRANCH   1   9
ATOM      9  C   UNL d   1      59.925  -9.810  33.647  0.00  0.00     0.039 C 
BRANCH   9  10
ATOM     10  C   UNL d   1      60.212  -9.223  34.155  0.00  0.00     0.163 A 
ATOM     11  N   UNL d   1      60.967  -8.888  34.134  0.00  0.00    -0.224 NA
ATOM     12  C   UNL d   1      61.007  -8.331  34.738  0.00  0.00     0.121 A 
ATOM     13  C   UNL d   1      60.286  -8.313  35.138  0.00  0.00     0.121 A 
ATOM     14  N   UNL d   1      59.789  -8.865  34.780  0.00  0.00    -0.224 NA
ENDBRANCH   9  10
ENDBRANCH   1   9
BRANCH   2  15
ATOM     15  C   UNL d   1      58.321  -9.809  30.778  0.00  0.00     0.019 C 
ATOM     16  C   UNL d   1      57.921  -9.809  30.056  0.00  0.00     0.004 C 
ATOM     17  C   UNL d   1      57.600  -9.817  31.178  0.00  0.00     0.004 C 
ATOM     18  C   UNL d   1      59.043  -9.802  30.378  0.00  0.00     0.004 C 
ENDBRANCH   2  15
TORSDOF 3
ENDMDL
MODEL 9
REMARK VINA RESULT:      -1.8      9.058     10.155
REMARK  3 active torsions:
REMARK  status: ('A' for Active; 'I' for Inactive)
REMARK    1  A    between atoms: C_9  and  C_1 
REMARK    2  A    between atoms: C_11  and  C_2 
REMARK    3  A    between atoms: C_3  and  C_9 
ROOT
ATOM      1  C   UNL d   1      59.930  -9.313  33.761  0.00  0.00     0.003 A 
ATOM      2  C   UNL d   1      59.738  -8.307  35.038  0.00  0.00    -0.023 A 
ATOM      3  C   UNL d   1      59.281  -8.809  33.801  0.00  0.00    -0.000 A 
ATOM      4  C   UNL d   1      60.477  -9.309  34.362  0.00  0.00    -0.000 A 
ATOM      5  C   UNL d   1      60.386  -8.809  35.001  0.00  0.00    -0.004 A 
ATOM      6  C   UNL d   1      59.191  -8.311  34.437  0.00  0.00    -0.004 A 
ATOM      7  C   UNL d   1      61.133  -9.817  34.326  0.00  0.00    -0.000 C 
ATOM      8  C   UNL d   1      58.720  -8.807  33.193  0.00  0.00    -0.000 C 
ENDROOT
BRANCH   1   9
ATOM      9  C   UNL d   1      60.022  -9.818  33.115  0.00  0.00     0.039 C 
BRANCH   9  10
ATOM     10  C   UNL d   1      60.232  -9.717  32.321  0.00  0.00     0.163 A 
ATOM     11  N   UNL d   1      59.727  -9.789  31.671  0.00  0.00    -0.224 NA
ATOM     12  C   UNL d   1      60.171  -9.642  30.995  0.00  0.00     0.121 A 
ATOM     13  C   UNL d   1      60.949  -9.478  31.213  0.00  0.00     0.121 A 
ATOM     14  N   UNL d   1      60.992  -9.523  32.035  0.00  0.00    -0.224 NA
ENDBRANCH   9  10
ENDBRANCH   1   9
BRANCH   2  15
ATOM     15  C   UNL d   1      59.646  -7.802  35.684  0.00  0.00     0.019 C 
ATOM     16  C   UNL d   1      59.554  -7.297  36.330  0.00  0.00     0.004 C 
ATOM     17  C   UNL d   1      59.240  -8.395  36.090  0.00  0.00     0.004 C 
ATOM     18  C   UNL d   1      60.051  -7.209  35.278  0.00  0.00     0.004 C 
ENDBRANCH   2  15
TORSDOF 3
ENDMDL
