MODEL 1
REMARK VINA RESULT:      -5.0      0.000      0.000
REMARK  5 active torsions:
REMARK  status: ('A' for Active; 'I' for Inactive)
REMARK    1  A    between atoms: N_5  and  C_1 
REMARK    2  A    between atoms: N_6  and  C_1 
REMARK       I    between atoms: C_2  and  N_3 
REMARK    3  A    between atoms: C_4  and  C_2 
REMARK    4  A    between atoms: N_3  and  N_5 
REMARK    5  A    between atoms: C_10  and  N_6 
ROOT
ATOM      1  C   UNL d   1     -41.352-122.354 -52.467  0.00  0.00     0.272 C 
ATOM      2  N   UNL d   1     -41.506-122.865 -51.845  0.00  0.00    -0.264 N 
ATOM      3  O   UNL d   1     -41.126-121.581 -52.328  0.00  0.00    -0.266 OA
ATOM      4  H   UNL d   1     -41.736-123.652 -52.004  0.00  0.00     0.190 HD
ENDROOT
BRANCH   2   5
ATOM      5  N   UNL d   1     -41.435-122.611 -51.079  0.00  0.00    -0.274 N 
ATOM      6  H   UNL d   1     -41.093-121.868 -50.916  0.00  0.00     0.189 HD
BRANCH   5   7
ATOM      7  C   UNL d   1     -41.703-123.091 -50.463  0.00  0.00     0.187 C 
ATOM      8  S   UNL d   1     -41.341-123.815 -50.312  0.00  0.00    -0.040 SA
BRANCH   7   9
ATOM      9  N   UNL d   1     -42.334-122.837 -50.005  0.00  0.00    -0.354 N 
ATOM     10  H   UNL d   1     -42.812-122.231 -50.272  0.00  0.00     0.162 HD
BRANCH   9  11
ATOM     11  C   UNL d   1     -42.474-123.201 -49.277  0.00  0.00     0.063 C 
ATOM     12  C   UNL d   1     -42.607-123.557 -48.544  0.00  0.00     0.022 C 
ATOM     13  C   UNL d   1     -42.968-123.748 -49.629  0.00  0.00     0.022 C 
ATOM     14  C   UNL d   1     -41.970-122.646 -48.908  0.00  0.00     0.022 C 
ENDBRANCH   9  11
ENDBRANCH   7   9
ENDBRANCH   5   7
ENDBRANCH   2   5
BRANCH   1  15
ATOM     15  C   UNL d   1     -41.426-122.618 -53.246  0.00  0.00     0.058 A 
ATOM     16  C   UNL d   1     -41.810-122.137 -53.811  0.00  0.00     0.011 A 
ATOM     17  C   UNL d   1     -41.878-122.403 -54.575  0.00  0.00     0.035 A 
ATOM     18 BR   UNL d   1     -42.249-121.941 -55.123  0.00  0.00    -0.049 Br
ATOM     19  C   UNL d   1     -41.575-123.135 -54.796  0.00  0.00     0.007 A 
ATOM     20  C   UNL d   1     -41.190-123.624 -54.244  0.00  0.00     0.001 A 
ATOM     21  C   UNL d   1     -41.123-123.350 -53.468  0.00  0.00     0.005 A 
ENDBRANCH   1  15
TORSDOF 5
ENDMDL
MODEL 2
REMARK VINA RESULT:      -3.4      1.192      1.644
REMARK  5 active torsions:
REMARK  status: ('A' for Active; 'I' for Inactive)
REMARK    1  A    between atoms: N_5  and  C_1 
REMARK    2  A    between atoms: N_6  and  C_1 
REMARK       I    between atoms: C_2  and  N_3 
REMARK    3  A    between atoms: C_4  and  C_2 
REMARK    4  A    between atoms: N_3  and  N_5 
REMARK    5  A    between atoms: C_10  and  N_6 
ROOT
ATOM      1  C   UNL d   1     -41.498-123.016 -53.766  0.00  0.00     0.272 C 
ATOM      2  N   UNL d   1     -41.442-122.656 -53.032  0.00  0.00    -0.264 N 
ATOM      3  O   UNL d   1     -41.360-123.817 -53.851  0.00  0.00    -0.266 OA
ATOM      4  H   UNL d   1     -41.585-121.836 -52.962  0.00  0.00     0.190 HD
ENDROOT
BRANCH   2   5
ATOM      5  N   UNL d   1     -41.249-123.090 -52.376  0.00  0.00    -0.274 N 
ATOM      6  H   UNL d   1     -40.877-123.832 -52.462  0.00  0.00     0.189 HD
BRANCH   5   7
ATOM      7  C   UNL d   1     -41.422-122.795 -51.625  0.00  0.00     0.187 C 
ATOM      8  S   UNL d   1     -41.123-122.066 -51.385  0.00  0.00    -0.040 SA
BRANCH   7   9
ATOM      9  N   UNL d   1     -41.895-123.237 -51.121  0.00  0.00    -0.354 N 
ATOM     10  H   UNL d   1     -42.484-123.712 -51.430  0.00  0.00     0.162 HD
BRANCH   9  11
ATOM     11  C   UNL d   1     -41.765-123.194 -50.307  0.00  0.00     0.063 C 
ATOM     12  C   UNL d   1     -41.646-123.143 -49.492  0.00  0.00     0.022 C 
ATOM     13  C   UNL d   1     -41.123-123.696 -50.367  0.00  0.00     0.022 C 
ATOM     14  C   UNL d   1     -42.420-122.680 -50.236  0.00  0.00     0.022 C 
ENDBRANCH   9  11
ENDBRANCH   7   9
ENDBRANCH   5   7
ENDBRANCH   2   5
BRANCH   1  15
ATOM     15  C   UNL d   1     -41.695-122.570 -54.431  0.00  0.00     0.058 A 
ATOM     16  C   UNL d   1     -42.412-122.719 -54.833  0.00  0.00     0.011 A 
ATOM     17  C   UNL d   1     -42.599-122.276 -55.486  0.00  0.00     0.035 A 
ATOM     18 BR   UNL d   1     -43.292-122.418 -55.876  0.00  0.00    -0.049 Br
ATOM     19  C   UNL d   1     -42.093-121.685 -55.755  0.00  0.00     0.007 A 
ATOM     20  C   UNL d   1     -41.376-121.526 -55.366  0.00  0.00     0.001 A 
ATOM     21  C   UNL d   1     -41.189-121.979 -54.701  0.00  0.00     0.005 A 
ENDBRANCH   1  15
TORSDOF 5
ENDMDL
MODEL 3
REMARK VINA RESULT:      -3.0      0.881      1.304
REMARK  5 active torsions:
REMARK  status: ('A' for Active; 'I' for Inactive)
REMARK    1  A    between atoms: N_5  and  C_1 
REMARK    2  A    between atoms: N_6  and  C_1 
REMARK       I    between atoms: C_2  and  N_3 
REMARK    3  A    between atoms: C_4  and  C_2 
REMARK    4  A    between atoms: N_3  and  N_5 
REMARK    5  A    between atoms: C_10  and  N_6 
ROOT
ATOM      1  C   UNL d   1     -41.691-122.413 -51.389  0.00  0.00     0.272 C 
ATOM      2  N   UNL d   1     -41.992-122.904 -50.806  0.00  0.00    -0.264 N 
ATOM      3  O   UNL d   1     -41.512-121.632 -51.227  0.00  0.00    -0.266 OA
ATOM      4  H   UNL d   1     -42.170-123.700 -50.988  0.00  0.00     0.190 HD
ENDROOT
BRANCH   2   5
ATOM      5  N   UNL d   1     -42.115-122.623 -50.057  0.00  0.00    -0.274 N 
ATOM      6  H   UNL d   1     -41.805-121.882 -49.833  0.00  0.00     0.189 HD
BRANCH   5   7
ATOM      7  C   UNL d   1     -42.549-123.073 -49.517  0.00  0.00     0.187 C 
ATOM      8  S   UNL d   1     -42.830-123.817 -49.728  0.00  0.00    -0.040 SA
BRANCH   7   9
ATOM      9  N   UNL d   1     -42.696-122.768 -48.770  0.00  0.00    -0.354 N 
ATOM     10  H   UNL d   1     -43.082-122.052 -48.693  0.00  0.00     0.162 HD
BRANCH   9  11
ATOM     11  C   UNL d   1     -42.450-123.194 -48.107  0.00  0.00     0.063 C 
ATOM     12  C   UNL d   1     -42.214-123.625 -47.445  0.00  0.00     0.022 C 
ATOM     13  C   UNL d   1     -41.743-122.784 -48.088  0.00  0.00     0.022 C 
ATOM     14  C   UNL d   1     -43.170-123.618 -48.119  0.00  0.00     0.022 C 
ENDBRANCH   9  11
ENDBRANCH   7   9
ENDBRANCH   5   7
ENDBRANCH   2   5
BRANCH   1  15
ATOM     15  C   UNL d   1     -41.567-122.704 -52.151  0.00  0.00     0.058 A 
ATOM     16  C   UNL d   1     -41.764-122.232 -52.812  0.00  0.00     0.011 A 
ATOM     17  C   UNL d   1     -41.639-122.526 -53.558  0.00  0.00     0.035 A 
ATOM     18 BR   UNL d   1     -41.827-122.072 -54.199  0.00  0.00    -0.049 Br
ATOM     19  C   UNL d   1     -41.323-123.277 -53.670  0.00  0.00     0.007 A 
ATOM     20  C   UNL d   1     -41.123-123.758 -53.021  0.00  0.00     0.001 A 
ATOM     21  C   UNL d   1     -41.251-123.456 -52.263  0.00  0.00     0.005 A 
ENDBRANCH   1  15
TORSDOF 5
ENDMDL
MODEL 4
REMARK VINA RESULT:      -2.7      2.134      4.490
REMARK  5 active torsions:
REMARK  status: ('A' for Active; 'I' for Inactive)
REMARK    1  A    between atoms: N_5  and  C_1 
REMARK    2  A    between atoms: N_6  and  C_1 
REMARK       I    between atoms: C_2  and  N_3 
REMARK    3  A    between atoms: C_4  and  C_2 
REMARK    4  A    between atoms: N_3  and  N_5 
REMARK    5  A    between atoms: C_10  and  N_6 
ROOT
ATOM      1  C   UNL d   1     -42.250-122.484 -50.263  0.00  0.00     0.272 C 
ATOM      2  N   UNL d   1     -41.860-122.598 -50.975  0.00  0.00    -0.264 N 
ATOM      3  O   UNL d   1     -42.850-121.932 -50.198  0.00  0.00    -0.266 OA
ATOM      4  H   UNL d   1     -41.250-123.165 -51.025  0.00  0.00     0.190 HD
ENDROOT
BRANCH   2   5
ATOM      5  N   UNL d   1     -42.064-122.164 -51.628  0.00  0.00    -0.274 N 
ATOM      6  H   UNL d   1     -42.604-121.532 -51.557  0.00  0.00     0.189 HD
BRANCH   5   7
ATOM      7  C   UNL d   1     -41.734-122.350 -52.362  0.00  0.00     0.187 C 
ATOM      8  S   UNL d   1     -41.365-123.076 -52.479  0.00  0.00    -0.040 SA
BRANCH   7   9
ATOM      9  N   UNL d   1     -41.780-121.802 -52.970  0.00  0.00    -0.354 N 
ATOM     10  H   UNL d   1     -41.693-121.006 -52.807  0.00  0.00     0.162 HD
BRANCH   9  11
ATOM     11  C   UNL d   1     -41.913-122.068 -53.741  0.00  0.00     0.063 C 
ATOM     12  C   UNL d   1     -42.035-122.337 -54.511  0.00  0.00     0.022 C 
ATOM     13  C   UNL d   1     -42.667-121.752 -53.735  0.00  0.00     0.022 C 
ATOM     14  C   UNL d   1     -41.143-122.393 -53.756  0.00  0.00     0.022 C 
ENDBRANCH   9  11
ENDBRANCH   7   9
ENDBRANCH   5   7
ENDBRANCH   2   5
BRANCH   1  15
ATOM     15  C   UNL d   1     -42.039-122.928 -49.601  0.00  0.00     0.058 A 
ATOM     16  C   UNL d   1     -42.536-122.931 -48.929  0.00  0.00     0.011 A 
ATOM     17  C   UNL d   1     -42.322-123.370 -48.281  0.00  0.00     0.035 A 
ATOM     18 BR   UNL d   1     -42.799-123.375 -47.631  0.00  0.00    -0.049 Br
ATOM     19  C   UNL d   1     -41.626-123.810 -48.280  0.00  0.00     0.007 A 
ATOM     20  C   UNL d   1     -41.123-123.817 -48.942  0.00  0.00     0.001 A 
ATOM     21  C   UNL d   1     -41.344-123.368 -49.599  0.00  0.00     0.005 A 
ENDBRANCH   1  15
TORSDOF 5
ENDMDL
MODEL 5
REMARK VINA RESULT:      -2.1      1.981      4.350
REMARK  5 active torsions:
REMARK  status: ('A' for Active; 'I' for Inactive)
REMARK    1  A    between atoms: N_5  and  C_1 
REMARK    2  A    between atoms: N_6  and  C_1 
REMARK       I    between atoms: C_2  and  N_3 
REMARK    3  A    between atoms: C_4  and  C_2 
REMARK    4  A    between atoms: N_3  and  N_5 
REMARK    5  A    between atoms: C_10  and  N_6 
ROOT
ATOM      1  C   UNL d   1     -41.404-122.180 -51.641  0.00  0.00     0.272 C 
ATOM      2  N   UNL d   1     -41.514-122.484 -52.395  0.00  0.00    -0.264 N 
ATOM      3  O   UNL d   1     -41.123-121.421 -51.533  0.00  0.00    -0.266 OA
ATOM      4  H   UNL d   1     -41.802-123.263 -52.488  0.00  0.00     0.190 HD
ENDROOT
BRANCH   2   5
ATOM      5  N   UNL d   1     -41.344-122.035 -53.046  0.00  0.00    -0.274 N 
ATOM      6  H   UNL d   1     -40.872-121.351 -52.970  0.00  0.00     0.189 HD
BRANCH   5   7
ATOM      7  C   UNL d   1     -41.641-122.257 -53.785  0.00  0.00     0.187 C 
ATOM      8  S   UNL d   1     -41.553-123.030 -54.053  0.00  0.00    -0.040 SA
BRANCH   7   9
ATOM      9  N   UNL d   1     -42.024-121.697 -54.245  0.00  0.00    -0.354 N 
ATOM     10  H   UNL d   1     -42.230-120.976 -53.920  0.00  0.00     0.162 HD
BRANCH   9  11
ATOM     11  C   UNL d   1     -42.196-121.874 -55.033  0.00  0.00     0.063 C 
ATOM     12  C   UNL d   1     -42.379-122.052 -55.818  0.00  0.00     0.022 C 
ATOM     13  C   UNL d   1     -41.406-121.815 -55.234  0.00  0.00     0.022 C 
ATOM     14  C   UNL d   1     -43.006-121.936 -54.837  0.00  0.00     0.022 C 
ENDBRANCH   9  11
ENDBRANCH   7   9
ENDBRANCH   5   7
ENDBRANCH   2   5
BRANCH   1  15
ATOM     15  C   UNL d   1     -41.578-122.642 -50.980  0.00  0.00     0.058 A 
ATOM     16  C   UNL d   1     -42.220-122.435 -50.487  0.00  0.00     0.011 A 
ATOM     17  C   UNL d   1     -42.385-122.894 -49.839  0.00  0.00     0.035 A 
ATOM     18 BR   UNL d   1     -43.004-122.696 -49.361  0.00  0.00    -0.049 Br
ATOM     19  C   UNL d   1     -41.929-123.557 -49.663  0.00  0.00     0.007 A 
ATOM     20  C   UNL d   1     -41.287-123.775 -50.145  0.00  0.00     0.001 A 
ATOM     21  C   UNL d   1     -41.122-123.305 -50.804  0.00  0.00     0.005 A 
ENDBRANCH   1  15
TORSDOF 5
ENDMDL
