MODEL 1
REMARK VINA RESULT:      91.4      0.000      0.000
REMARK  4 active torsions:
REMARK  status: ('A' for Active; 'I' for Inactive)
REMARK    1  A    between atoms: C_11  and  N_4 
REMARK    2  A    between atoms: C_18  and  C_7 
REMARK    3  A    between atoms: C_19  and  C_11 
REMARK    4  A    between atoms: O_20  and  C_16 
ROOT
ATOM      1  C   UNL d   1      59.244  49.482  51.524  0.00  0.00     0.137 A 
ATOM      2  C   UNL d   1      59.426  49.525  52.324  0.00  0.00     0.192 A 
ATOM      3  C   UNL d   1      59.847  49.429  50.965  0.00  0.00     0.272 A 
ATOM      4  N   UNL d   1      60.631  49.418  51.204  0.00  0.00    -0.258 N 
ATOM      5  N   UNL d   1      60.210  49.514  52.573  0.00  0.00    -0.204 NA
ATOM      6  C   UNL d   1      58.454  49.493  51.278  0.00  0.00     0.205 A 
ATOM      7  C   UNL d   1      60.820  49.461  52.012  0.00  0.00     0.152 A 
ATOM      8  C   UNL d   1      57.860  49.546  51.838  0.00  0.00     0.062 A 
ATOM      9  O   UNL d   1      58.825  49.578  52.886  0.00  0.00    -0.289 OA
ATOM     10  C   UNL d   1      58.039  49.588  52.640  0.00  0.00     0.107 A 
ATOM     11  C   UNL d   1      57.428  49.642  53.199  0.00  0.00     0.049 A 
ATOM     12  C   UNL d   1      57.069  49.556  51.592  0.00  0.00     0.007 A 
ATOM     13  O   UNL d   1      59.659  49.387  50.166  0.00  0.00    -0.266 OA
ATOM     14  O   UNL d   1      58.275  49.450  50.476  0.00  0.00    -0.286 OA
ATOM     15  C   UNL d   1      56.646  49.652  52.952  0.00  0.00     0.096 A 
ATOM     16  C   UNL d   1      56.466  49.609  52.146  0.00  0.00     0.024 A 
ENDROOT
BRANCH   4  17
ATOM     17  C   UNL d   1      61.240  49.365  50.637  0.00  0.00     0.084 C 
BRANCH  17  18
ATOM     18  C   UNL d   1      61.442  48.633  50.319  0.00  0.00     0.018 A 
ATOM     19  C   UNL d   1      60.969  47.964  50.444  0.00  0.00     0.002 A 
ATOM     20  C   UNL d   1      61.178  47.233  50.121  0.00  0.00     0.000 A 
ATOM     21  C   UNL d   1      61.878  47.169  49.663  0.00  0.00     0.000 A 
ATOM     22  C   UNL d   1      62.353  47.840  49.536  0.00  0.00     0.000 A 
ATOM     23  C   UNL d   1      62.134  48.566  49.864  0.00  0.00     0.002 A 
ENDBRANCH  17  18
ENDBRANCH   4  17
BRANCH   7  24
ATOM     24  C   UNL d   1      61.605  49.450  52.251  0.00  0.00     0.038 C 
ATOM     25  C   UNL d   1      61.805  49.679  53.016  0.00  0.00     0.003 C 
ENDBRANCH   7  24
BRANCH  15  26
ATOM     26  O   UNL d   1      56.041  49.705  53.501  0.00  0.00    -0.328 OA
ATOM     27  C   UNL d   1      56.163  49.438  54.269  0.00  0.00     0.181 C 
ENDBRANCH  15  26
TORSDOF 4
ENDMDL
