MODEL 1
REMARK VINA RESULT:      51.8      0.000      0.000
REMARK  5 active torsions:
REMARK  status: ('A' for Active; 'I' for Inactive)
REMARK    1  A    between atoms: N_6  and  S_1 
REMARK    2  A    between atoms: C_16  and  S_1 
REMARK    3  A    between atoms: N_2  and  C_15 
REMARK       I    between atoms: C_9  and  N_8 
REMARK    4  A    between atoms: C_10  and  C_9 
REMARK    5  A    between atoms: C_15  and  C_10 
ROOT
ATOM      1  N   UNL d   1      13.513  14.740  -4.789  0.00  0.00    -0.226 N 
ATOM      2  N   UNL d   1      13.320  13.189  -4.276  0.00  0.00    -0.269 N 
ATOM      3  C   UNL d   1      13.222  12.414  -4.010  0.00  0.00     0.267 C 
ATOM      4  C   UNL d   1      13.522  14.117  -5.348  0.00  0.00     0.111 A 
ATOM      5  C   UNL d   1      13.409  14.581  -3.988  0.00  0.00     0.111 A 
ATOM      6  C   UNL d   1      13.312  13.803  -3.731  0.00  0.00     0.103 A 
ATOM      7  C   UNL d   1      13.425  13.339  -5.091  0.00  0.00     0.103 A 
ATOM      8  O   UNL d   1      13.229  11.792  -4.553  0.00  0.00    -0.267 OA
ENDROOT
BRANCH   3   9
ATOM      9  C   UNL d   1      13.118  12.264  -3.208  0.00  0.00     0.082 C 
BRANCH   9  10
ATOM     10  C   UNL d   1      13.657  11.780  -2.814  0.00  0.00     0.105 C 
BRANCH  10  11
ATOM     11  N   UNL d   1      13.675  11.780  -1.985  0.00  0.00    -0.228 N 
ATOM     12  N   UNL d   1      13.025  11.780  -1.479  0.00  0.00    -0.165 NA
ATOM     13  C   UNL d   1      13.296  11.780  -0.699  0.00  0.00     0.103 A 
ATOM     14  C   UNL d   1      12.828  11.780  -0.014  0.00  0.00     0.022 C 
ATOM     15  C   UNL d   1      14.120  11.781  -0.720  0.00  0.00     0.037 A 
ATOM     16  C   UNL d   1      14.358  11.781  -1.514  0.00  0.00     0.084 A 
ATOM     17  C   UNL d   1      14.621  11.781  -0.068  0.00  0.00     0.003 C 
ATOM     18  C   UNL d   1      15.139  11.781  -1.780  0.00  0.00     0.021 C 
ENDBRANCH  10  11
ENDBRANCH   9  10
ENDBRANCH   3   9
BRANCH   1  19
ATOM     19  S   UNL d   1      13.611  15.521  -5.048  0.00  0.00     0.271 S 
ATOM     20  O   UNL d   1      14.430  15.394  -5.125  0.00  0.00    -0.200 OA
ATOM     21  O   UNL d   1      12.800  15.648  -4.971  0.00  0.00    -0.200 OA
BRANCH  19  22
ATOM     22  C   UNL d   1      13.709  16.307  -5.308  0.00  0.00     0.104 A 
ATOM     23  C   UNL d   1      13.240  16.587  -5.933  0.00  0.00     0.013 A 
ATOM     24  C   UNL d   1      13.338  17.372  -6.193  0.00  0.00     0.001 A 
ATOM     25  C   UNL d   1      13.903  17.862  -5.823  0.00  0.00     0.000 A 
ATOM     26  C   UNL d   1      14.363  17.565  -5.198  0.00  0.00     0.001 A 
ATOM     27  C   UNL d   1      14.263  16.787  -4.944  0.00  0.00     0.013 A 
ENDBRANCH  19  22
ENDBRANCH   1  19
TORSDOF 5
ENDMDL
