MODEL 1
REMARK VINA RESULT:      11.4      0.000      0.000
REMARK  9 active torsions:
REMARK  status: ('A' for Active; 'I' for Inactive)
REMARK    1  A    between atoms: N_9  and  C_3 
REMARK    2  A    between atoms: S_14  and  C_6 
REMARK       I    between atoms: C_11  and  N_9 
REMARK    3  A    between atoms: C_18  and  C_11 
REMARK    4  A    between atoms: C_12  and  C_15 
REMARK    5  A    between atoms: O_25  and  C_12 
REMARK    6  A    between atoms: C_13  and  C_23 
REMARK       I    between atoms: N_16  and  C_13 
REMARK    7  A    between atoms: C_23  and  S_14 
REMARK    8  A    between atoms: C_24  and  N_16 
REMARK    9  A    between atoms: C_32  and  O_25 
ROOT
ATOM      1  C   UNL d   1      59.351  -6.852  28.668  0.00  0.00     0.079 A 
ATOM      2  C   UNL d   1      59.957  -6.281  28.740  0.00  0.00     0.187 A 
ATOM      3  C   UNL d   1      58.585  -6.609  28.528  0.00  0.00     0.171 A 
ATOM      4  N   UNL d   1      59.784  -5.479  28.671  0.00  0.00    -0.197 NA
ATOM      5  N   UNL d   1      58.395  -5.809  28.456  0.00  0.00    -0.202 NA
ATOM      6  C   UNL d   1      59.001  -5.239  28.528  0.00  0.00     0.198 A 
ATOM      7  C   UNL d   1      59.696  -7.594  28.763  0.00  0.00     0.029 A 
ATOM      8  O   UNL d   1      60.673  -6.681  28.880  0.00  0.00    -0.289 OA
ATOM      9  C   UNL d   1      60.507  -7.495  28.893  0.00  0.00     0.102 A 
ATOM     10  C   UNL d   1      59.299  -8.320  28.733  0.00  0.00     0.002 C 
ATOM     11  C   UNL d   1      61.058  -8.096  29.015  0.00  0.00     0.027 C 
ENDROOT
BRANCH   6  12
ATOM     12  S   UNL d   1      58.822  -4.430  28.458  0.00  0.00    -0.043 SA
BRANCH  12  13
ATOM     13  C   UNL d   1      59.425  -3.874  28.462  0.00  0.00     0.101 C 
BRANCH  13  14
ATOM     14  C   UNL d   1      59.298  -3.130  28.796  0.00  0.00     0.286 C 
ATOM     15  N   UNL d   1      58.588  -2.969  29.174  0.00  0.00    -0.208 NA
ATOM     16  O   UNL d   1      59.881  -2.548  28.750  0.00  0.00    -0.265 OA
BRANCH  15  17
ATOM     17  C   UNL d   1      58.451  -2.228  29.511  0.00  0.00     0.085 A 
ATOM     18  C   UNL d   1      57.767  -2.092  29.941  0.00  0.00     0.019 A 
ATOM     19  C   UNL d   1      57.639  -1.348  30.274  0.00  0.00     0.007 A 
ATOM     20  C   UNL d   1      58.195  -0.747  30.174  0.00  0.00     0.064 A 
ATOM     21  C   UNL d   1      58.888  -0.891  29.737  0.00  0.00     0.007 A 
ATOM     22  C   UNL d   1      59.016  -1.629  29.406  0.00  0.00     0.019 A 
BRANCH  20  23
ATOM     23  C   UNL d   1      58.065   0.001  30.510  0.00  0.00     0.300 C 
ATOM     24  O   UNL d   1      58.626   0.600  30.418  0.00  0.00    -0.259 OA
BRANCH  23  25
ATOM     25  O   UNL d   1      57.373   0.145  30.936  0.00  0.00    -0.271 OA
BRANCH  25  26
ATOM     26  C   UNL d   1      57.405   0.525  31.666  0.00  0.00     0.126 C 
ATOM     27  C   UNL d   1      56.714   0.671  32.083  0.00  0.00     0.029 C 
ENDBRANCH  25  26
ENDBRANCH  23  25
ENDBRANCH  20  23
ENDBRANCH  15  17
ENDBRANCH  13  14
ENDBRANCH  12  13
ENDBRANCH   6  12
BRANCH   3  28
ATOM     28  N   UNL d   1      57.987  -7.172  28.456  0.00  0.00    -0.189 NA
ATOM     29  C   UNL d   1      57.230  -7.012  28.759  0.00  0.00     0.281 C 
ATOM     30  O   UNL d   1      57.077  -6.292  29.130  0.00  0.00    -0.265 OA
BRANCH  29  31
ATOM     31  C   UNL d   1      56.635  -7.579  28.685  0.00  0.00     0.058 A 
ATOM     32  C   UNL d   1      56.818  -8.375  28.768  0.00  0.00     0.005 A 
ATOM     33  C   UNL d   1      56.229  -8.942  28.695  0.00  0.00     0.000 A 
ATOM     34  C   UNL d   1      55.452  -8.719  28.539  0.00  0.00     0.000 A 
ATOM     35  C   UNL d   1      55.270  -7.915  28.456  0.00  0.00     0.000 A 
ATOM     36  C   UNL d   1      55.865  -7.342  28.529  0.00  0.00     0.005 A 
ENDBRANCH  29  31
ENDBRANCH   3  28
TORSDOF 9
ENDMDL
