MODEL 1
REMARK VINA RESULT:      -4.8      0.000      0.000
REMARK  1 active torsions:
REMARK  status: ('A' for Active; 'I' for Inactive)
REMARK    1  A    between atoms: C_6  and  C_2 
ROOT
ATOM      1  S   UNL d   1     -41.587-122.410 -54.705  0.00  0.00    -0.024 SA
ATOM      2  C   UNL d   1     -41.926-122.318 -53.965  0.00  0.00     0.135 A 
ATOM      3  N   UNL d   1     -42.578-121.820 -54.033  0.00  0.00    -0.139 NA
ATOM      4  C   UNL d   1     -42.035-121.965 -55.236  0.00  0.00     0.236 A 
ATOM      5  N   UNL d   1     -42.641-121.603 -54.829  0.00  0.00    -0.119 NA
ATOM      6  N   UNL d   1     -41.888-121.900 -56.045  0.00  0.00    -0.118 N 
ENDROOT
BRANCH   2   7
ATOM      7  C   UNL d   1     -41.659-122.665 -53.266  0.00  0.00     0.029 A 
ATOM      8  C   UNL d   1     -41.495-123.467 -53.232  0.00  0.00     0.023 A 
ATOM      9  C   UNL d   1     -41.228-123.815 -52.530  0.00  0.00     0.099 A 
ATOM     10  N   UNL d   1     -41.123-123.364 -51.860  0.00  0.00    -0.242 NA
ATOM     11  C   UNL d   1     -41.284-122.558 -51.884  0.00  0.00     0.099 A 
ATOM     12  C   UNL d   1     -41.552-122.209 -52.585  0.00  0.00     0.023 A 
ENDBRANCH   2   7
TORSDOF 1
ENDMDL
MODEL 2
REMARK VINA RESULT:      -4.1      2.479      3.552
REMARK  1 active torsions:
REMARK  status: ('A' for Active; 'I' for Inactive)
REMARK    1  A    between atoms: C_6  and  C_2 
ROOT
ATOM      1  S   UNL d   1     -41.516-122.300 -51.124  0.00  0.00    -0.024 SA
ATOM      2  C   UNL d   1     -41.800-122.970 -50.749  0.00  0.00     0.135 A 
ATOM      3  N   UNL d   1     -41.866-123.575 -51.303  0.00  0.00    -0.139 NA
ATOM      4  C   UNL d   1     -41.405-122.493 -51.919  0.00  0.00     0.236 A 
ATOM      5  N   UNL d   1     -41.618-123.271 -52.032  0.00  0.00    -0.119 NA
ATOM      6  N   UNL d   1     -41.124-121.979 -52.500  0.00  0.00    -0.118 N 
ENDROOT
BRANCH   2   7
ATOM      7  C   UNL d   1     -41.989-123.030 -49.949  0.00  0.00     0.029 A 
ATOM      8  C   UNL d   1     -42.705-122.753 -49.665  0.00  0.00     0.023 A 
ATOM      9  C   UNL d   1     -42.895-122.814 -48.861  0.00  0.00     0.099 A 
ATOM     10  N   UNL d   1     -42.370-123.151 -48.338  0.00  0.00    -0.242 NA
ATOM     11  C   UNL d   1     -41.647-123.433 -48.613  0.00  0.00     0.099 A 
ATOM     12  C   UNL d   1     -41.457-123.372 -49.416  0.00  0.00     0.023 A 
ENDBRANCH   2   7
TORSDOF 1
ENDMDL
MODEL 3
REMARK VINA RESULT:      -2.4      9.795     10.176
REMARK  1 active torsions:
REMARK  status: ('A' for Active; 'I' for Inactive)
REMARK    1  A    between atoms: C_6  and  C_2 
ROOT
ATOM      1  S   UNL d   1     -44.136-115.035 -46.742  0.00  0.00    -0.024 SA
ATOM      2  C   UNL d   1     -43.584-115.052 -47.348  0.00  0.00     0.135 A 
ATOM      3  N   UNL d   1     -43.981-115.151 -48.063  0.00  0.00    -0.139 NA
ATOM      4  C   UNL d   1     -44.880-115.124 -47.086  0.00  0.00     0.236 A 
ATOM      5  N   UNL d   1     -44.790-115.195 -47.893  0.00  0.00    -0.119 NA
ATOM      6  N   UNL d   1     -45.596-115.139 -46.677  0.00  0.00    -0.118 N 
ENDROOT
BRANCH   2   7
ATOM      7  C   UNL d   1     -42.768-114.981 -47.258  0.00  0.00     0.029 A 
ATOM      8  C   UNL d   1     -42.332-115.578 -46.906  0.00  0.00     0.023 A 
ATOM      9  C   UNL d   1     -41.512-115.507 -46.816  0.00  0.00     0.099 A 
ATOM     10  N   UNL d   1     -41.124-114.840 -47.078  0.00  0.00    -0.242 NA
ATOM     11  C   UNL d   1     -41.553-114.235 -47.434  0.00  0.00     0.099 A 
ATOM     12  C   UNL d   1     -42.373-114.305 -47.524  0.00  0.00     0.023 A 
ENDBRANCH   2   7
TORSDOF 1
ENDMDL
