MODEL 1
REMARK VINA RESULT:      -4.5      0.000      0.000
REMARK  4 active torsions:
REMARK  status: ('A' for Active; 'I' for Inactive)
REMARK    1  A    between atoms: C_5  and  C_2 
REMARK    2  A    between atoms: C_7  and  C_5 
REMARK       I    between atoms: N_9  and  C_7 
REMARK    3  A    between atoms: C_8  and  C_10 
REMARK    4  A    between atoms: C_17  and  N_9 
ROOT
ATOM      1  C   UNL d   1      57.765   0.381  30.781  0.00  0.00     0.280 C 
ATOM      2  N   UNL d   1      57.037   0.010  30.701  0.00  0.00    -0.208 NA
ATOM      3  O   UNL d   1      58.018   0.637  31.522  0.00  0.00    -0.265 OA
ENDROOT
BRANCH   1   4
ATOM      4  C   UNL d   1      58.248   0.500  30.119  0.00  0.00     0.074 C 
BRANCH   4   5
ATOM      5  C   UNL d   1      59.041   0.346  29.985  0.00  0.00     0.097 A 
ATOM      6  C   UNL d   1      59.346  -0.143  29.394  0.00  0.00     0.288 A 
ATOM      7  N   UNL d   1      60.166  -0.142  29.456  0.00  0.00    -0.163 NA
ATOM      8  O   UNL d   1      58.898  -0.557  28.842  0.00  0.00    -0.265 OA
ATOM      9  C   UNL d   1      60.374   0.348  30.087  0.00  0.00     0.313 A 
ATOM     10  S   UNL d   1      59.680   0.649  30.413  0.00  0.00    -0.021 SA
ATOM     11  O   UNL d   1      61.133   0.510  30.347  0.00  0.00    -0.258 OA
ENDBRANCH   4   5
ENDBRANCH   1   4
BRANCH   2  12
ATOM     12  C   UNL d   1      56.719  -0.010  31.463  0.00  0.00     0.085 A 
ATOM     13  C   UNL d   1      56.478   0.682  31.824  0.00  0.00     0.019 A 
ATOM     14  C   UNL d   1      56.160   0.668  32.586  0.00  0.00     0.008 A 
ATOM     15  C   UNL d   1      56.085  -0.056  32.988  0.00  0.00     0.065 A 
ATOM     16  C   UNL d   1      56.332  -0.760  32.617  0.00  0.00     0.008 A 
ATOM     17  C   UNL d   1      56.647  -0.734  31.859  0.00  0.00     0.019 A 
BRANCH  15  18
ATOM     18  C   UNL d   1      55.769  -0.076  33.745  0.00  0.00     0.211 C 
ATOM     19  O   UNL d   1      56.146   0.328  34.359  0.00  0.00    -0.644 OA
ATOM     20  O   UNL d   1      55.076  -0.498  33.897  0.00  0.00    -0.644 OA
ENDBRANCH  15  18
ENDBRANCH   2  12
TORSDOF 4
ENDMDL
MODEL 2
REMARK VINA RESULT:      -3.4      1.492      1.917
REMARK  4 active torsions:
REMARK  status: ('A' for Active; 'I' for Inactive)
REMARK    1  A    between atoms: C_5  and  C_2 
REMARK    2  A    between atoms: C_7  and  C_5 
REMARK       I    between atoms: N_9  and  C_7 
REMARK    3  A    between atoms: C_8  and  C_10 
REMARK    4  A    between atoms: C_17  and  N_9 
ROOT
ATOM      1  C   UNL d   1      58.576  -0.437  29.968  0.00  0.00     0.280 C 
ATOM      2  N   UNL d   1      57.765  -0.555  29.918  0.00  0.00    -0.208 NA
ATOM      3  O   UNL d   1      58.909  -0.158  30.667  0.00  0.00    -0.265 OA
ENDROOT
BRANCH   1   4
ATOM      4  C   UNL d   1      59.061  -0.596  29.316  0.00  0.00     0.074 C 
BRANCH   4   5
ATOM      5  C   UNL d   1      59.631  -1.170  29.185  0.00  0.00     0.097 A 
ATOM      6  C   UNL d   1      60.404  -1.035  28.930  0.00  0.00     0.288 A 
ATOM      7  N   UNL d   1      60.787  -1.761  28.871  0.00  0.00    -0.163 NA
ATOM      8  O   UNL d   1      60.727  -0.297  28.764  0.00  0.00    -0.265 OA
ATOM      9  C   UNL d   1      60.252  -2.350  29.091  0.00  0.00     0.313 A 
ATOM     10  S   UNL d   1      59.539  -1.986  29.285  0.00  0.00    -0.021 SA
ATOM     11  O   UNL d   1      60.399  -3.156  29.114  0.00  0.00    -0.258 OA
ENDBRANCH   4   5
ENDBRANCH   1   4
BRANCH   2  12
ATOM     12  C   UNL d   1      57.469  -0.341  30.659  0.00  0.00     0.085 A 
ATOM     13  C   UNL d   1      57.241  -0.918  31.191  0.00  0.00     0.019 A 
ATOM     14  C   UNL d   1      56.945  -0.709  31.933  0.00  0.00     0.008 A 
ATOM     15  C   UNL d   1      56.879   0.093  32.140  0.00  0.00     0.065 A 
ATOM     16  C   UNL d   1      57.112   0.678  31.595  0.00  0.00     0.008 A 
ATOM     17  C   UNL d   1      57.405   0.459  30.860  0.00  0.00     0.019 A 
BRANCH  15  18
ATOM     18  C   UNL d   1      56.585   0.306  32.876  0.00  0.00     0.211 C 
ATOM     19  O   UNL d   1      57.106   0.473  33.494  0.00  0.00    -0.644 OA
ATOM     20  O   UNL d   1      55.770   0.353  33.002  0.00  0.00    -0.644 OA
ENDBRANCH  15  18
ENDBRANCH   2  12
TORSDOF 4
ENDMDL
