MODEL 1
REMARK VINA RESULT:      74.2      0.000      0.000
REMARK  10 active torsions:
REMARK  status: ('A' for Active; 'I' for Inactive)
REMARK    1  A    between atoms: C_18  and  N_1 
REMARK    2  A    between atoms: S_7  and  C_2 
REMARK       I    between atoms: C_6  and  N_14 
REMARK    3  A    between atoms: C_9  and  C_6 
REMARK    4  A    between atoms: C_15  and  S_7 
REMARK    5  A    between atoms: C_8  and  C_15 
REMARK       I    between atoms: N_10  and  C_8 
REMARK    6  A    between atoms: C_19  and  N_10 
REMARK    7  A    between atoms: N_14  and  C_25 
REMARK    8  A    between atoms: C_25  and  C_18 
REMARK    9  A    between atoms: C_23  and  C_19 
REMARK   10  A    between atoms: O_27  and  C_20 
ROOT
ATOM      1  N   UNL d   1     -49.438  27.856  36.468  0.00  0.00    -0.302 N 
ATOM      2  C   UNL d   1     -50.300  26.987  35.907  0.00  0.00     0.049 A 
ATOM      3  C   UNL d   1     -49.653  27.484  35.753  0.00  0.00     0.087 A 
ATOM      4  C   UNL d   1     -50.485  27.051  36.716  0.00  0.00     0.024 A 
ATOM      5  C   UNL d   1     -49.953  27.588  37.061  0.00  0.00     0.065 A 
ATOM      6  C   UNL d   1     -51.068  26.693  37.184  0.00  0.00     0.002 A 
ATOM      7  C   UNL d   1     -50.002  27.765  37.866  0.00  0.00     0.018 A 
ATOM      8  C   UNL d   1     -51.115  26.869  37.984  0.00  0.00     0.000 A 
ATOM      9  C   UNL d   1     -50.583  27.406  38.329  0.00  0.00     0.002 A 
ENDROOT
BRANCH   1  10
ATOM     10  C   UNL d   1     -48.822  28.396  36.566  0.00  0.00     0.101 C 
BRANCH  10  11
ATOM     11  C   UNL d   1     -48.248  28.476  35.982  0.00  0.00     0.121 C 
BRANCH  11  12
ATOM     12  N   UNL d   1     -48.197  29.175  35.547  0.00  0.00    -0.205 NA
ATOM     13  C   UNL d   1     -47.731  29.800  35.818  0.00  0.00     0.279 C 
ATOM     14  O   UNL d   1     -47.313  29.723  36.527  0.00  0.00    -0.265 OA
BRANCH  13  15
ATOM     15  C   UNL d   1     -47.680  30.499  35.383  0.00  0.00     0.058 A 
ATOM     16  C   UNL d   1     -47.022  31.007  35.483  0.00  0.00     0.007 A 
ATOM     17  C   UNL d   1     -46.972  31.705  35.048  0.00  0.00     0.024 A 
ATOM     18  C   UNL d   1     -47.580  31.890  34.517  0.00  0.00     0.094 A 
ATOM     19  C   UNL d   1     -48.226  31.393  34.418  0.00  0.00     0.024 A 
ATOM     20  C   UNL d   1     -48.273  30.698  34.853  0.00  0.00     0.007 A 
BRANCH  18  21
ATOM     21  O   UNL d   1     -47.539  32.598  34.070  0.00  0.00    -0.328 OA
ATOM     22  C   UNL d   1     -48.176  33.124  34.039  0.00  0.00     0.181 C 
ENDBRANCH  18  21
ENDBRANCH  13  15
ENDBRANCH  11  12
ENDBRANCH  10  11
ENDBRANCH   1  10
BRANCH   2  23
ATOM     23  S   UNL d   1     -50.693  26.512  35.359  0.00  0.00    -0.080 SA
BRANCH  23  24
ATOM     24  C   UNL d   1     -50.569  26.637  34.548  0.00  0.00     0.098 C 
BRANCH  24  25
ATOM     25  C   UNL d   1     -51.126  26.369  34.003  0.00  0.00     0.286 C 
ATOM     26  N   UNL d   1     -51.207  25.562  33.853  0.00  0.00    -0.204 NA
ATOM     27  O   UNL d   1     -51.605  26.908  33.605  0.00  0.00    -0.265 OA
BRANCH  26  28
ATOM     28  C   UNL d   1     -51.767  25.295  33.306  0.00  0.00     0.127 C 
BRANCH  28  29
ATOM     29  C   UNL d   1     -52.051  24.536  33.351  0.00  0.00     0.119 A 
ATOM     30  O   UNL d   1     -52.832  24.303  33.442  0.00  0.00    -0.304 OA
ATOM     31  C   UNL d   1     -52.867  23.477  33.462  0.00  0.00     0.123 A 
ATOM     32  C   UNL d   1     -52.097  23.192  33.382  0.00  0.00     0.029 A 
ATOM     33  C   UNL d   1     -51.601  23.837  33.315  0.00  0.00     0.028 A 
ENDBRANCH  28  29
ENDBRANCH  26  28
ENDBRANCH  24  25
ENDBRANCH  23  24
ENDBRANCH   2  23
TORSDOF 10
ENDMDL
