MODEL 1
REMARK VINA RESULT:     109.6      0.000      0.000
REMARK  4 active torsions:
REMARK  status: ('A' for Active; 'I' for Inactive)
REMARK    1  A    between atoms: N_5  and  C_1 
REMARK    2  A    between atoms: C_10  and  C_2 
REMARK    3  A    between atoms: C_12  and  N_3 
REMARK       I    between atoms: C_8  and  N_5 
REMARK    4  A    between atoms: C_9  and  C_8 
ROOT
ATOM      1  C   UNL d   1     -50.752  25.419  33.921  0.00  0.00     0.170 A 
ATOM      2  C   UNL d   1     -50.827  24.596  33.908  0.00  0.00     0.076 A 
ATOM      3  N   UNL d   1     -50.002  25.767  33.843  0.00  0.00    -0.212 N 
ATOM      4  N   UNL d   1     -49.337  25.285  33.752  0.00  0.00    -0.161 NA
ATOM      5  C   UNL d   1     -50.155  24.119  33.817  0.00  0.00     0.218 A 
ATOM      6  C   UNL d   1     -49.412  24.462  33.739  0.00  0.00     0.140 A 
ATOM      7  O   UNL d   1     -50.231  23.296  33.804  0.00  0.00    -0.285 OA
ATOM      8  C   UNL d   1     -48.746  23.977  33.649  0.00  0.00     0.026 C 
ENDROOT
BRANCH   1   9
ATOM      9  N   UNL d   1     -51.412  25.894  34.011  0.00  0.00    -0.188 NA
ATOM     10  C   UNL d   1     -51.932  26.317  34.496  0.00  0.00     0.286 C 
ATOM     11  O   UNL d   1     -51.803  26.322  35.309  0.00  0.00    -0.265 OA
BRANCH  10  12
ATOM     12  C   UNL d   1     -52.563  26.721  34.167  0.00  0.00     0.087 A 
ATOM     13  S   UNL d   1     -52.633  26.974  33.382  0.00  0.00    -0.082 SA
ATOM     14  C   UNL d   1     -53.358  27.355  33.306  0.00  0.00     0.036 A 
ATOM     15  C   UNL d   1     -53.743  27.344  34.029  0.00  0.00     0.008 A 
ATOM     16  C   UNL d   1     -53.248  26.948  34.570  0.00  0.00     0.012 A 
ENDBRANCH  10  12
ENDBRANCH   1   9
BRANCH   2  17
ATOM     17  C   UNL d   1     -51.568  24.249  33.986  0.00  0.00     0.006 A 
ATOM     18  C   UNL d   1     -51.919  24.193  34.725  0.00  0.00     0.001 A 
ATOM     19  C   UNL d   1     -52.668  23.841  34.803  0.00  0.00     0.011 A 
ATOM     20  C   UNL d   1     -53.053  23.552  34.136  0.00  0.00     0.058 A 
ATOM     21  C   UNL d   1     -52.700  23.608  33.388  0.00  0.00     0.011 A 
ATOM     22 CL   UNL d   1     -53.797  23.203  34.217  0.00  0.00    -0.082 Cl
ATOM     23  C   UNL d   1     -51.957  23.958  33.319  0.00  0.00     0.001 A 
ENDBRANCH   2  17
BRANCH   3  24
ATOM     24  C   UNL d   1     -49.925  26.586  33.855  0.00  0.00     0.085 A 
ATOM     25  C   UNL d   1     -50.348  27.046  33.314  0.00  0.00     0.019 A 
ATOM     26  C   UNL d   1     -50.269  27.874  33.328  0.00  0.00     0.002 A 
ATOM     27  C   UNL d   1     -49.774  28.230  33.875  0.00  0.00     0.000 A 
ATOM     28  C   UNL d   1     -49.353  27.761  34.415  0.00  0.00     0.002 A 
ATOM     29  C   UNL d   1     -49.430  26.942  34.403  0.00  0.00     0.019 A 
ENDBRANCH   3  24
TORSDOF 4
ENDMDL
