MODEL 1
REMARK VINA RESULT:      -5.1      0.000      0.000
REMARK  5 active torsions:
REMARK  status: ('A' for Active; 'I' for Inactive)
REMARK    1  A    between atoms: N_2  and  C_1 
REMARK    2  A    between atoms: C_6  and  C_1 
REMARK    3  A    between atoms: O_4  and  N_2 
REMARK    4  A    between atoms: C_3  and  O_4 
REMARK    5  A    between atoms: C_5  and  C_3 
ROOT
ATOM      1  O   UNL d   1      57.437   0.230  31.216  0.00  0.00    -0.168 OA
ENDROOT
BRANCH   1   2
ATOM      2  C   UNL d   1      57.365   0.256  32.123  0.00  0.00     0.319 C 
ATOM      3  O   UNL d   1      58.011   0.628  32.622  0.00  0.00    -0.257 OA
BRANCH   2   4
ATOM      4  C   UNL d   1      56.697  -0.065  32.493  0.00  0.00     0.066 A 
ATOM      5  C   UNL d   1      56.178   0.444  32.897  0.00  0.00     0.012 A 
ATOM      6  C   UNL d   1      55.511   0.111  33.265  0.00  0.00     0.035 A 
ATOM      7 BR   UNL d   1      54.995   0.619  33.667  0.00  0.00    -0.049 Br
ATOM      8  C   UNL d   1      55.363  -0.698  33.233  0.00  0.00     0.007 A 
ATOM      9  C   UNL d   1      55.897  -1.175  32.825  0.00  0.00     0.001 A 
ATOM     10  C   UNL d   1      56.550  -0.871  32.462  0.00  0.00     0.005 A 
ENDBRANCH   2   4
ENDBRANCH   1   2
BRANCH   1  11
ATOM     11  N   UNL d   1      58.161   0.297  30.849  0.00  0.00    -0.100 NA
BRANCH  11  12
ATOM     12  C   UNL d   1      58.231   0.288  30.033  0.00  0.00     0.228 C 
ATOM     13  N   UNL d   1      57.661   0.669  29.578  0.00  0.00    -0.123 N 
BRANCH  12  14
ATOM     14  C   UNL d   1      58.852  -0.091  29.659  0.00  0.00     0.121 A 
ATOM     15  N   UNL d   1      59.598   0.235  29.671  0.00  0.00    -0.241 NA
ATOM     16  C   UNL d   1      60.227  -0.156  29.289  0.00  0.00     0.099 A 
ATOM     17  C   UNL d   1      60.088  -0.872  28.900  0.00  0.00     0.021 A 
ATOM     18  C   UNL d   1      59.327  -1.201  28.889  0.00  0.00     0.003 A 
ATOM     19  C   UNL d   1      58.713  -0.806  29.271  0.00  0.00     0.022 A 
ENDBRANCH  12  14
ENDBRANCH  11  12
ENDBRANCH   1  11
TORSDOF 5
ENDMDL
MODEL 2
REMARK VINA RESULT:      -4.9      1.853      4.568
REMARK  5 active torsions:
REMARK  status: ('A' for Active; 'I' for Inactive)
REMARK    1  A    between atoms: N_2  and  C_1 
REMARK    2  A    between atoms: C_6  and  C_1 
REMARK    3  A    between atoms: O_4  and  N_2 
REMARK    4  A    between atoms: C_3  and  O_4 
REMARK    5  A    between atoms: C_5  and  C_3 
ROOT
ATOM      1  O   UNL d   1      58.057   0.195  30.852  0.00  0.00    -0.168 OA
ENDROOT
BRANCH   1   2
ATOM      2  C   UNL d   1      58.111   0.153  29.944  0.00  0.00     0.319 C 
ATOM      3  O   UNL d   1      57.495   0.556  29.430  0.00  0.00    -0.257 OA
BRANCH   2   4
ATOM      4  C   UNL d   1      58.734  -0.260  29.586  0.00  0.00     0.066 A 
ATOM      5  C   UNL d   1      58.628  -1.064  29.403  0.00  0.00     0.012 A 
ATOM      6  C   UNL d   1      59.259  -1.470  29.044  0.00  0.00     0.035 A 
ATOM      7 BR   UNL d   1      59.153  -2.271  28.861  0.00  0.00    -0.049 Br
ATOM      8  C   UNL d   1      59.970  -1.091  28.873  0.00  0.00     0.007 A 
ATOM      9  C   UNL d   1      60.042  -0.294  29.068  0.00  0.00     0.001 A 
ATOM     10  C   UNL d   1      59.442   0.117  29.416  0.00  0.00     0.005 A 
ENDBRANCH   2   4
ENDBRANCH   1   2
BRANCH   1  11
ATOM     11  N   UNL d   1      57.337   0.228  31.230  0.00  0.00    -0.100 NA
BRANCH  11  12
ATOM     12  C   UNL d   1      57.283   0.281  32.046  0.00  0.00     0.228 C 
ATOM     13  N   UNL d   1      57.902   0.622  32.467  0.00  0.00    -0.123 N 
BRANCH  12  14
ATOM     14  C   UNL d   1      56.630   0.002  32.451  0.00  0.00     0.121 A 
ATOM     15  N   UNL d   1      56.103   0.523  32.788  0.00  0.00    -0.241 NA
ATOM     16  C   UNL d   1      55.439   0.232  33.200  0.00  0.00     0.099 A 
ATOM     17  C   UNL d   1      55.321  -0.583  33.263  0.00  0.00     0.021 A 
ATOM     18  C   UNL d   1      55.859  -1.111  32.919  0.00  0.00     0.003 A 
ATOM     19  C   UNL d   1      56.512  -0.813  32.514  0.00  0.00     0.022 A 
ENDBRANCH  12  14
ENDBRANCH  11  12
ENDBRANCH   1  11
TORSDOF 5
ENDMDL
