MODEL 1
REMARK VINA RESULT:      -3.3      0.000      0.000
REMARK  8 active torsions:
REMARK  status: ('A' for Active; 'I' for Inactive)
REMARK    1  A    between atoms: N_3  and  C_1 
REMARK    2  A    between atoms: S_2  and  C_9 
REMARK    3  A    between atoms: N_10  and  S_2 
REMARK       I    between atoms: C_8  and  N_3 
REMARK    4  A    between atoms: C_15  and  C_8 
REMARK    5  A    between atoms: C_27  and  N_10 
REMARK       I    between atoms: C_16  and  N_17 
REMARK    6  A    between atoms: N_17  and  C_18 
REMARK    7  A    between atoms: C_30  and  C_27 
REMARK    8  A    between atoms: C_31  and  C_30 
ROOT
ATOM      1  N   UNL d   1     -44.873  12.758  21.962  0.00  0.00    -0.184 NA
ATOM      2  C   UNL d   1     -45.383  13.356  22.215  0.00  0.00     0.281 C 
ATOM      3  O   UNL d   1     -45.123  14.147  22.240  0.00  0.00    -0.265 OA
ENDROOT
BRANCH   2   4
ATOM      4  C   UNL d   1     -46.154  13.174  22.445  0.00  0.00     0.058 A 
ATOM      5  C   UNL d   1     -46.369  13.217  23.241  0.00  0.00     0.005 A 
ATOM      6  C   UNL d   1     -47.141  13.035  23.470  0.00  0.00     0.013 A 
ATOM      7  C   UNL d   1     -47.706  12.808  22.911  0.00  0.00     0.104 A 
ATOM      8  C   UNL d   1     -47.491  12.765  22.117  0.00  0.00     0.013 A 
ATOM      9  C   UNL d   1     -46.716  12.948  21.884  0.00  0.00     0.005 A 
BRANCH   7  10
ATOM     10  S   UNL d   1     -48.488  12.624  23.148  0.00  0.00     0.271 S 
ATOM     11  O   UNL d   1     -49.266  12.451  23.379  0.00  0.00    -0.200 OA
ATOM     12  O   UNL d   1     -48.225  11.925  23.484  0.00  0.00    -0.200 OA
BRANCH  10  13
ATOM     13  N   UNL d   1     -48.747  13.337  22.804  0.00  0.00    -0.228 N 
ATOM     14  C   UNL d   1     -48.859  13.392  21.983  0.00  0.00     0.111 C 
BRANCH  13  15
ATOM     15  C   UNL d   1     -48.893  13.993  23.282  0.00  0.00     0.092 C 
BRANCH  15  16
ATOM     16  C   UNL d   1     -49.489  14.517  23.081  0.00  0.00     0.020 C 
BRANCH  16  17
ATOM     17  C   UNL d   1     -49.646  15.156  23.561  0.00  0.00     0.002 C 
ATOM     18  C   UNL d   1     -50.185  15.745  23.300  0.00  0.00     0.000 C 
ENDBRANCH  16  17
ENDBRANCH  15  16
ENDBRANCH  13  15
ENDBRANCH  10  13
ENDBRANCH   7  10
ENDBRANCH   2   4
BRANCH   1  19
ATOM     19  C   UNL d   1     -44.095  12.944  21.730  0.00  0.00     0.182 A 
ATOM     20  N   UNL d   1     -43.430  12.483  21.872  0.00  0.00    -0.283 N 
ATOM     21  C   UNL d   1     -42.769  12.859  21.555  0.00  0.00     0.072 A 
ATOM     22  C   UNL d   1     -43.430  11.750  22.272  0.00  0.00     0.101 C 
ATOM     23  C   UNL d   1     -41.967  12.651  21.535  0.00  0.00     0.020 A 
ATOM     24  C   UNL d   1     -43.011  13.566  21.209  0.00  0.00     0.050 A 
ATOM     25  C   UNL d   1     -41.426  13.150  21.172  0.00  0.00     0.021 A 
ATOM     26  C   UNL d   1     -41.671  13.855  20.826  0.00  0.00     0.085 A 
ATOM     27  C   UNL d   1     -42.469  14.066  20.845  0.00  0.00     0.027 A 
ATOM     28  S   UNL d   1     -43.835  13.621  21.316  0.00  0.00    -0.048 SA
BRANCH  26  29
ATOM     29  N   UNL d   1     -41.112  14.360  20.457  0.00  0.00    -0.208 NA
ATOM     30  C   UNL d   1     -40.473  14.653  20.902  0.00  0.00     0.279 C 
ATOM     31  O   UNL d   1     -39.922  15.149  20.544  0.00  0.00    -0.265 OA
ATOM     32  C   UNL d   1     -40.402  14.442  21.697  0.00  0.00     0.068 C 
ENDBRANCH  26  29
ENDBRANCH   1  19
TORSDOF 8
ENDMDL
MODEL 2
REMARK VINA RESULT:      -3.3      1.558      6.807
REMARK  8 active torsions:
REMARK  status: ('A' for Active; 'I' for Inactive)
REMARK    1  A    between atoms: N_3  and  C_1 
REMARK    2  A    between atoms: S_2  and  C_9 
REMARK    3  A    between atoms: N_10  and  S_2 
REMARK       I    between atoms: C_8  and  N_3 
REMARK    4  A    between atoms: C_15  and  C_8 
REMARK    5  A    between atoms: C_27  and  N_10 
REMARK       I    between atoms: C_16  and  N_17 
REMARK    6  A    between atoms: N_17  and  C_18 
REMARK    7  A    between atoms: C_30  and  C_27 
REMARK    8  A    between atoms: C_31  and  C_30 
ROOT
ATOM      1  N   UNL d   1     -44.460  13.531  21.815  0.00  0.00    -0.184 NA
ATOM      2  C   UNL d   1     -43.800  13.036  21.808  0.00  0.00     0.281 C 
ATOM      3  O   UNL d   1     -43.827  12.295  22.189  0.00  0.00    -0.265 OA
ENDROOT
BRANCH   2   4
ATOM      4  C   UNL d   1     -43.108  13.271  21.425  0.00  0.00     0.058 A 
ATOM      5  C   UNL d   1     -42.473  12.747  21.360  0.00  0.00     0.005 A 
ATOM      6  C   UNL d   1     -41.782  12.983  20.976  0.00  0.00     0.013 A 
ATOM      7  C   UNL d   1     -41.714  13.741  20.653  0.00  0.00     0.104 A 
ATOM      8  C   UNL d   1     -42.348  14.264  20.718  0.00  0.00     0.013 A 
ATOM      9  C   UNL d   1     -43.044  14.029  21.104  0.00  0.00     0.005 A 
BRANCH   7  10
ATOM     10  S   UNL d   1     -41.010  13.976  20.265  0.00  0.00     0.271 S 
ATOM     11  O   UNL d   1     -40.310  14.213  19.888  0.00  0.00    -0.200 OA
ATOM     12  O   UNL d   1     -41.269  13.620  19.574  0.00  0.00    -0.200 OA
BRANCH  10  13
ATOM     13  N   UNL d   1     -40.754  14.335  20.971  0.00  0.00    -0.228 N 
ATOM     14  C   UNL d   1     -41.058  15.073  21.201  0.00  0.00     0.111 C 
BRANCH  13  15
ATOM     15  C   UNL d   1     -40.197  13.956  21.445  0.00  0.00     0.092 C 
BRANCH  15  16
ATOM     16  C   UNL d   1     -39.622  14.396  21.829  0.00  0.00     0.020 C 
BRANCH  16  17
ATOM     17  C   UNL d   1     -39.020  14.019  22.226  0.00  0.00     0.002 C 
ATOM     18  C   UNL d   1     -38.695  14.373  22.915  0.00  0.00     0.000 C 
ENDBRANCH  16  17
ENDBRANCH  15  16
ENDBRANCH  13  15
ENDBRANCH  10  13
ENDBRANCH   7  10
ENDBRANCH   2   4
BRANCH   1  19
ATOM     19  C   UNL d   1     -45.157  13.292  22.202  0.00  0.00     0.182 A 
ATOM     20  N   UNL d   1     -45.720  13.794  22.530  0.00  0.00    -0.283 N 
ATOM     21  C   UNL d   1     -46.323  13.343  22.860  0.00  0.00     0.072 A 
ATOM     22  C   UNL d   1     -45.680  14.629  22.525  0.00  0.00     0.101 C 
ATOM     23  C   UNL d   1     -47.020  13.551  23.257  0.00  0.00     0.020 A 
ATOM     24  C   UNL d   1     -46.148  12.546  22.745  0.00  0.00     0.050 A 
ATOM     25  C   UNL d   1     -47.526  12.964  23.529  0.00  0.00     0.021 A 
ATOM     26  C   UNL d   1     -47.348  12.169  23.412  0.00  0.00     0.085 A 
ATOM     27  C   UNL d   1     -46.654  11.958  23.017  0.00  0.00     0.027 A 
ATOM     28  S   UNL d   1     -45.424  12.512  22.336  0.00  0.00    -0.048 SA
BRANCH  26  29
ATOM     29  N   UNL d   1     -47.868  11.575  23.693  0.00  0.00    -0.208 NA
ATOM     30  C   UNL d   1     -48.644  11.540  23.394  0.00  0.00     0.279 C 
ATOM     31  O   UNL d   1     -49.159  10.958  23.665  0.00  0.00    -0.265 OA
ATOM     32  C   UNL d   1     -48.885  12.090  22.827  0.00  0.00     0.068 C 
ENDBRANCH  26  29
ENDBRANCH   1  19
TORSDOF 8
ENDMDL
MODEL 3
REMARK VINA RESULT:      -2.9      1.507      6.776
REMARK  8 active torsions:
REMARK  status: ('A' for Active; 'I' for Inactive)
REMARK    1  A    between atoms: N_3  and  C_1 
REMARK    2  A    between atoms: S_2  and  C_9 
REMARK    3  A    between atoms: N_10  and  S_2 
REMARK       I    between atoms: C_8  and  N_3 
REMARK    4  A    between atoms: C_15  and  C_8 
REMARK    5  A    between atoms: C_27  and  N_10 
REMARK       I    between atoms: C_16  and  N_17 
REMARK    6  A    between atoms: N_17  and  C_18 
REMARK    7  A    between atoms: C_30  and  C_27 
REMARK    8  A    between atoms: C_31  and  C_30 
ROOT
ATOM      1  N   UNL d   1     -44.227  13.722  22.042  0.00  0.00    -0.184 NA
ATOM      2  C   UNL d   1     -43.765  13.254  21.543  0.00  0.00     0.281 C 
ATOM      3  O   UNL d   1     -44.074  12.550  21.222  0.00  0.00    -0.265 OA
ENDROOT
BRANCH   2   4
ATOM      4  C   UNL d   1     -42.993  13.480  21.359  0.00  0.00     0.058 A 
ATOM      5  C   UNL d   1     -42.426  12.907  21.182  0.00  0.00     0.005 A 
ATOM      6  C   UNL d   1     -41.654  13.134  20.998  0.00  0.00     0.013 A 
ATOM      7  C   UNL d   1     -41.438  13.931  20.988  0.00  0.00     0.104 A 
ATOM      8  C   UNL d   1     -42.004  14.503  21.166  0.00  0.00     0.013 A 
ATOM      9  C   UNL d   1     -42.781  14.278  21.351  0.00  0.00     0.005 A 
BRANCH   7  10
ATOM     10  S   UNL d   1     -40.653  14.157  20.801  0.00  0.00     0.271 S 
ATOM     11  O   UNL d   1     -39.880  14.386  20.608  0.00  0.00    -0.200 OA
ATOM     12  O   UNL d   1     -40.379  13.769  21.468  0.00  0.00    -0.200 OA
BRANCH  10  13
ATOM     13  N   UNL d   1     -40.940  14.550  20.125  0.00  0.00    -0.228 N 
ATOM     14  C   UNL d   1     -41.312  15.289  20.194  0.00  0.00     0.111 C 
BRANCH  13  15
ATOM     15  C   UNL d   1     -40.855  14.202  19.383  0.00  0.00     0.092 C 
BRANCH  15  16
ATOM     16  C   UNL d   1     -40.690  14.669  18.731  0.00  0.00     0.020 C 
BRANCH  16  17
ATOM     17  C   UNL d   1     -40.573  14.324  18.003  0.00  0.00     0.002 C 
ATOM     18  C   UNL d   1     -40.559  14.806  17.316  0.00  0.00     0.000 C 
ENDBRANCH  16  17
ENDBRANCH  15  16
ENDBRANCH  13  15
ENDBRANCH  10  13
ENDBRANCH   7  10
ENDBRANCH   2   4
BRANCH   1  19
ATOM     19  C   UNL d   1     -45.006  13.492  22.226  0.00  0.00     0.182 A 
ATOM     20  N   UNL d   1     -45.622  14.000  22.421  0.00  0.00    -0.283 N 
ATOM     21  C   UNL d   1     -46.300  13.557  22.564  0.00  0.00     0.072 A 
ATOM     22  C   UNL d   1     -45.563  14.832  22.464  0.00  0.00     0.101 C 
ATOM     23  C   UNL d   1     -47.072  13.774  22.778  0.00  0.00     0.020 A 
ATOM     24  C   UNL d   1     -46.120  12.759  22.462  0.00  0.00     0.050 A 
ATOM     25  C   UNL d   1     -47.643  13.194  22.884  0.00  0.00     0.021 A 
ATOM     26  C   UNL d   1     -47.459  12.399  22.781  0.00  0.00     0.085 A 
ATOM     27  C   UNL d   1     -46.692  12.179  22.568  0.00  0.00     0.027 A 
ATOM     28  S   UNL d   1     -45.315  12.717  22.252  0.00  0.00    -0.048 SA
BRANCH  26  29
ATOM     29  N   UNL d   1     -48.048  11.813  22.892  0.00  0.00    -0.208 NA
ATOM     30  C   UNL d   1     -48.695  11.782  22.369  0.00  0.00     0.279 C 
ATOM     31  O   UNL d   1     -49.276  11.209  22.473  0.00  0.00    -0.265 OA
ATOM     32  C   UNL d   1     -48.743  12.330  21.753  0.00  0.00     0.068 C 
ENDBRANCH  26  29
ENDBRANCH   1  19
TORSDOF 8
ENDMDL
MODEL 4
REMARK VINA RESULT:      -2.4      1.700      6.810
REMARK  8 active torsions:
REMARK  status: ('A' for Active; 'I' for Inactive)
REMARK    1  A    between atoms: N_3  and  C_1 
REMARK    2  A    between atoms: S_2  and  C_9 
REMARK    3  A    between atoms: N_10  and  S_2 
REMARK       I    between atoms: C_8  and  N_3 
REMARK    4  A    between atoms: C_15  and  C_8 
REMARK    5  A    between atoms: C_27  and  N_10 
REMARK       I    between atoms: C_16  and  N_17 
REMARK    6  A    between atoms: N_17  and  C_18 
REMARK    7  A    between atoms: C_30  and  C_27 
REMARK    8  A    between atoms: C_31  and  C_30 
ROOT
ATOM      1  N   UNL d   1     -43.235  12.970  21.441  0.00  0.00    -0.184 NA
ATOM      2  C   UNL d   1     -42.944  13.739  21.363  0.00  0.00     0.281 C 
ATOM      3  O   UNL d   1     -43.374  14.384  21.670  0.00  0.00    -0.265 OA
ENDROOT
BRANCH   2   4
ATOM      4  C   UNL d   1     -42.225  13.875  20.981  0.00  0.00     0.058 A 
ATOM      5  C   UNL d   1     -41.697  14.434  21.280  0.00  0.00     0.005 A 
ATOM      6  C   UNL d   1     -40.979  14.569  20.897  0.00  0.00     0.013 A 
ATOM      7  C   UNL d   1     -40.778  14.150  20.214  0.00  0.00     0.104 A 
ATOM      8  C   UNL d   1     -41.305  13.592  19.915  0.00  0.00     0.013 A 
ATOM      9  C   UNL d   1     -42.028  13.454  20.299  0.00  0.00     0.005 A 
BRANCH   7  10
ATOM     10  S   UNL d   1     -40.047  14.291  19.828  0.00  0.00     0.271 S 
ATOM     11  O   UNL d   1     -39.329  14.437  19.441  0.00  0.00    -0.200 OA
ATOM     12  O   UNL d   1     -39.691  13.713  20.287  0.00  0.00    -0.200 OA
BRANCH  10  13
ATOM     13  N   UNL d   1     -40.418  14.877  19.366  0.00  0.00    -0.228 N 
ATOM     14  C   UNL d   1     -40.598  15.618  19.694  0.00  0.00     0.111 C 
BRANCH  13  15
ATOM     15  C   UNL d   1     -40.606  14.719  18.580  0.00  0.00     0.092 C 
BRANCH  15  16
ATOM     16  C   UNL d   1     -40.626  15.332  18.036  0.00  0.00     0.020 C 
BRANCH  16  17
ATOM     17  C   UNL d   1     -40.753  15.171  17.248  0.00  0.00     0.002 C 
ATOM     18  C   UNL d   1     -41.172  15.725  16.777  0.00  0.00     0.000 C 
ENDBRANCH  16  17
ENDBRANCH  15  16
ENDBRANCH  13  15
ENDBRANCH  10  13
ENDBRANCH   7  10
ENDBRANCH   2   4
BRANCH   1  19
ATOM     19  C   UNL d   1     -43.960  12.835  21.827  0.00  0.00     0.182 A 
ATOM     20  N   UNL d   1     -44.134  12.194  22.310  0.00  0.00    -0.283 N 
ATOM     21  C   UNL d   1     -44.906  12.265  22.584  0.00  0.00     0.072 A 
ATOM     22  C   UNL d   1     -43.606  11.572  22.491  0.00  0.00     0.101 C 
ATOM     23  C   UNL d   1     -45.367  11.786  23.081  0.00  0.00     0.020 A 
ATOM     24  C   UNL d   1     -45.232  12.956  22.275  0.00  0.00     0.050 A 
ATOM     25  C   UNL d   1     -46.137  12.006  23.258  0.00  0.00     0.021 A 
ATOM     26  C   UNL d   1     -46.459  12.697  22.948  0.00  0.00     0.085 A 
ATOM     27  C   UNL d   1     -46.004  13.176  22.453  0.00  0.00     0.027 A 
ATOM     28  S   UNL d   1     -44.645  13.313  21.804  0.00  0.00    -0.048 SA
BRANCH  26  29
ATOM     29  N   UNL d   1     -47.247  12.915  23.133  0.00  0.00    -0.208 NA
ATOM     30  C   UNL d   1     -47.871  12.409  22.918  0.00  0.00     0.279 C 
ATOM     31  O   UNL d   1     -48.646  12.618  23.098  0.00  0.00    -0.265 OA
ATOM     32  C   UNL d   1     -47.701  11.702  22.526  0.00  0.00     0.068 C 
ENDBRANCH  26  29
ENDBRANCH   1  19
TORSDOF 8
ENDMDL
MODEL 5
REMARK VINA RESULT:      -2.3      1.746      2.784
REMARK  8 active torsions:
REMARK  status: ('A' for Active; 'I' for Inactive)
REMARK    1  A    between atoms: N_3  and  C_1 
REMARK    2  A    between atoms: S_2  and  C_9 
REMARK    3  A    between atoms: N_10  and  S_2 
REMARK       I    between atoms: C_8  and  N_3 
REMARK    4  A    between atoms: C_15  and  C_8 
REMARK    5  A    between atoms: C_27  and  N_10 
REMARK       I    between atoms: C_16  and  N_17 
REMARK    6  A    between atoms: N_17  and  C_18 
REMARK    7  A    between atoms: C_30  and  C_27 
REMARK    8  A    between atoms: C_31  and  C_30 
ROOT
ATOM      1  N   UNL d   1     -42.808  13.884  21.482  0.00  0.00    -0.184 NA
ATOM      2  C   UNL d   1     -43.295  13.252  21.272  0.00  0.00     0.281 C 
ATOM      3  O   UNL d   1     -43.107  12.777  20.614  0.00  0.00    -0.265 OA
ENDROOT
BRANCH   2   4
ATOM      4  C   UNL d   1     -43.973  13.086  21.713  0.00  0.00     0.058 A 
ATOM      5  C   UNL d   1     -44.107  12.321  21.993  0.00  0.00     0.005 A 
ATOM      6  C   UNL d   1     -44.785  12.156  22.434  0.00  0.00     0.013 A 
ATOM      7  C   UNL d   1     -45.336  12.749  22.601  0.00  0.00     0.104 A 
ATOM      8  C   UNL d   1     -45.202  13.512  22.321  0.00  0.00     0.013 A 
ATOM      9  C   UNL d   1     -44.521  13.681  21.878  0.00  0.00     0.005 A 
BRANCH   7  10
ATOM     10  S   UNL d   1     -46.023  12.577  23.049  0.00  0.00     0.271 S 
ATOM     11  O   UNL d   1     -46.708  12.413  23.486  0.00  0.00    -0.200 OA
ATOM     12  O   UNL d   1     -45.587  12.076  23.529  0.00  0.00    -0.200 OA
BRANCH  10  13
ATOM     13  N   UNL d   1     -46.458  13.088  22.555  0.00  0.00    -0.228 N 
ATOM     14  C   UNL d   1     -46.399  13.911  22.647  0.00  0.00     0.111 C 
BRANCH  13  15
ATOM     15  C   UNL d   1     -46.949  12.774  21.973  0.00  0.00     0.092 C 
BRANCH  15  16
ATOM     16  C   UNL d   1     -47.702  13.080  21.868  0.00  0.00     0.020 C 
BRANCH  16  17
ATOM     17  C   UNL d   1     -48.172  12.802  21.265  0.00  0.00     0.002 C 
ATOM     18  C   UNL d   1     -48.989  12.997  21.255  0.00  0.00     0.000 C 
ENDBRANCH  16  17
ENDBRANCH  15  16
ENDBRANCH  13  15
ENDBRANCH  10  13
ENDBRANCH   7  10
ENDBRANCH   2   4
BRANCH   1  19
ATOM     19  C   UNL d   1     -42.124  14.050  21.035  0.00  0.00     0.182 A 
ATOM     20  N   UNL d   1     -41.812  14.798  20.898  0.00  0.00    -0.283 N 
ATOM     21  C   UNL d   1     -41.136  14.725  20.433  0.00  0.00     0.072 A 
ATOM     22  C   UNL d   1     -42.132  15.513  21.187  0.00  0.00     0.101 C 
ATOM     23  C   UNL d   1     -40.607  15.286  20.131  0.00  0.00     0.020 A 
ATOM     24  C   UNL d   1     -41.014  13.926  20.271  0.00  0.00     0.050 A 
ATOM     25  C   UNL d   1     -39.970  15.040  19.674  0.00  0.00     0.021 A 
ATOM     26  C   UNL d   1     -39.851  14.242  19.514  0.00  0.00     0.085 A 
ATOM     27  C   UNL d   1     -40.376  13.680  19.814  0.00  0.00     0.027 A 
ATOM     28  S   UNL d   1     -41.627  13.505  20.644  0.00  0.00    -0.048 SA
BRANCH  26  29
ATOM     29  N   UNL d   1     -39.198  13.999  19.048  0.00  0.00    -0.208 NA
ATOM     30  C   UNL d   1     -39.259  14.024  18.218  0.00  0.00     0.279 C 
ATOM     31  O   UNL d   1     -38.622  13.786  17.755  0.00  0.00    -0.265 OA
ATOM     32  C   UNL d   1     -39.961  14.288  17.872  0.00  0.00     0.068 C 
ENDBRANCH  26  29
ENDBRANCH   1  19
TORSDOF 8
ENDMDL
MODEL 6
REMARK VINA RESULT:      -2.2      1.650      2.487
REMARK  8 active torsions:
REMARK  status: ('A' for Active; 'I' for Inactive)
REMARK    1  A    between atoms: N_3  and  C_1 
REMARK    2  A    between atoms: S_2  and  C_9 
REMARK    3  A    between atoms: N_10  and  S_2 
REMARK       I    between atoms: C_8  and  N_3 
REMARK    4  A    between atoms: C_15  and  C_8 
REMARK    5  A    between atoms: C_27  and  N_10 
REMARK       I    between atoms: C_16  and  N_17 
REMARK    6  A    between atoms: N_17  and  C_18 
REMARK    7  A    between atoms: C_30  and  C_27 
REMARK    8  A    between atoms: C_31  and  C_30 
ROOT
ATOM      1  N   UNL d   1     -46.785  13.231  22.501  0.00  0.00    -0.184 NA
ATOM      2  C   UNL d   1     -46.970  14.032  22.576  0.00  0.00     0.281 C 
ATOM      3  O   UNL d   1     -46.373  14.609  22.504  0.00  0.00    -0.265 OA
ENDROOT
BRANCH   2   4
ATOM      4  C   UNL d   1     -47.746  14.267  22.724  0.00  0.00     0.058 A 
ATOM      5  C   UNL d   1     -48.185  14.641  22.133  0.00  0.00     0.005 A 
ATOM      6  C   UNL d   1     -48.962  14.876  22.281  0.00  0.00     0.013 A 
ATOM      7  C   UNL d   1     -49.311  14.742  23.018  0.00  0.00     0.104 A 
ATOM      8  C   UNL d   1     -48.874  14.369  23.608  0.00  0.00     0.013 A 
ATOM      9  C   UNL d   1     -48.092  14.132  23.461  0.00  0.00     0.005 A 
BRANCH   7  10
ATOM     10  S   UNL d   1     -50.100  14.982  23.164  0.00  0.00     0.271 S 
ATOM     11  O   UNL d   1     -50.885  15.211  23.306  0.00  0.00    -0.200 OA
ATOM     12  O   UNL d   1     -49.833  15.710  23.427  0.00  0.00    -0.200 OA
BRANCH  10  13
ATOM     13  N   UNL d   1     -50.363  14.239  22.896  0.00  0.00    -0.228 N 
ATOM     14  C   UNL d   1     -50.368  14.062  22.085  0.00  0.00     0.111 C 
BRANCH  13  15
ATOM     15  C   UNL d   1     -50.621  13.675  23.439  0.00  0.00     0.092 C 
BRANCH  15  16
ATOM     16  C   UNL d   1     -50.933  12.966  23.173  0.00  0.00     0.020 C 
BRANCH  16  17
ATOM     17  C   UNL d   1     -51.035  12.347  23.691  0.00  0.00     0.002 C 
ATOM     18  C   UNL d   1     -50.492  11.707  23.680  0.00  0.00     0.000 C 
ENDBRANCH  16  17
ENDBRANCH  15  16
ENDBRANCH  13  15
ENDBRANCH  10  13
ENDBRANCH   7  10
ENDBRANCH   2   4
BRANCH   1  19
ATOM     19  C   UNL d   1     -46.000  12.995  22.352  0.00  0.00     0.182 A 
ATOM     20  N   UNL d   1     -45.605  12.380  22.728  0.00  0.00    -0.283 N 
ATOM     21  C   UNL d   1     -44.842  12.327  22.424  0.00  0.00     0.072 A 
ATOM     22  C   UNL d   1     -45.931  11.892  23.321  0.00  0.00     0.101 C 
ATOM     23  C   UNL d   1     -44.210  11.817  22.595  0.00  0.00     0.020 A 
ATOM     24  C   UNL d   1     -44.746  12.910  21.850  0.00  0.00     0.050 A 
ATOM     25  C   UNL d   1     -43.500  11.900  22.191  0.00  0.00     0.021 A 
ATOM     26  C   UNL d   1     -43.407  12.484  21.619  0.00  0.00     0.085 A 
ATOM     27  C   UNL d   1     -44.034  12.993  21.447  0.00  0.00     0.027 A 
ATOM     28  S   UNL d   1     -45.465  13.327  21.804  0.00  0.00    -0.048 SA
BRANCH  26  29
ATOM     29  N   UNL d   1     -42.680  12.563  21.211  0.00  0.00    -0.208 NA
ATOM     30  C   UNL d   1     -42.366  13.323  21.081  0.00  0.00     0.279 C 
ATOM     31  O   UNL d   1     -41.652  13.406  20.682  0.00  0.00    -0.265 OA
ATOM     32  C   UNL d   1     -42.779  13.983  21.356  0.00  0.00     0.068 C 
ENDBRANCH  26  29
ENDBRANCH   1  19
TORSDOF 8
ENDMDL
