MODEL 1
REMARK VINA RESULT:      -9.8      0.000      0.000
REMARK  5 active torsions:
REMARK  status: ('A' for Active; 'I' for Inactive)
REMARK    1  A    between atoms: C_3  and  C_1 
REMARK    2  A    between atoms: C_7  and  C_3 
REMARK    3  A    between atoms: N_9  and  C_3 
REMARK    4  A    between atoms: C_17  and  C_8 
REMARK    5  A    between atoms: C_10  and  N_9 
ROOT
ATOM      1  C   UNL d   1      53.292  32.134  53.337  0.00  0.00     0.111 C 
ENDROOT
BRANCH   1   2
ATOM      2  C   UNL d   1      53.191  31.310  53.427  0.00  0.00     0.160 A 
ATOM      3  C   UNL d   1      53.123  30.821  52.767  0.00  0.00     0.258 A 
ATOM      4  C   UNL d   1      53.024  30.003  52.879  0.00  0.00     0.238 A 
ATOM      5  O   UNL d   1      53.153  31.129  51.983  0.00  0.00    -0.281 OA
ATOM      6  O   UNL d   1      52.955  29.506  52.210  0.00  0.00    -0.283 OA
ATOM      7  C   UNL d   1      52.991  29.672  53.634  0.00  0.00     0.073 A 
ATOM      8  C   UNL d   1      53.059  30.161  54.293  0.00  0.00     0.146 A 
ATOM      9  O   UNL d   1      53.158  30.974  54.187  0.00  0.00    -0.299 OA
BRANCH   8  10
ATOM     10  C   UNL d   1      53.023  29.803  55.050  0.00  0.00     0.259 C 
ATOM     11  O   UNL d   1      53.189  29.003  55.140  0.00  0.00    -0.281 OA
ENDBRANCH   8  10
ENDBRANCH   1   2
BRANCH   1  12
ATOM     12  C   UNL d   1      53.820  32.535  53.851  0.00  0.00     0.047 A 
ATOM     13  C   UNL d   1      54.548  32.801  53.568  0.00  0.00     0.142 A 
ATOM     14  F   UNL d   1      54.704  32.737  53.088  0.00  0.00    -0.204 F 
ATOM     15  C   UNL d   1      55.077  33.197  54.061  0.00  0.00     0.030 A 
ATOM     16  C   UNL d   1      54.876  33.328  54.849  0.00  0.00     0.002 A 
ATOM     17  C   UNL d   1      54.149  33.062  55.132  0.00  0.00     0.000 A 
ATOM     18  C   UNL d   1      53.619  32.666  54.639  0.00  0.00     0.004 A 
ENDBRANCH   1  12
BRANCH   1  19
ATOM     19  N   UNL d   1      52.882  32.545  52.758  0.00  0.00    -0.225 NA
BRANCH  19  20
ATOM     20  C   UNL d   1      52.196  32.987  52.954  0.00  0.00     0.163 A 
ATOM     21  N   UNL d   1      51.576  32.636  53.352  0.00  0.00    -0.225 NA
ATOM     22  C   UNL d   1      50.910  33.065  53.542  0.00  0.00     0.101 A 
ATOM     23  C   UNL d   1      50.857  33.879  53.329  0.00  0.00     0.021 A 
ATOM     24  C   UNL d   1      51.477  34.230  52.932  0.00  0.00     0.005 A 
ATOM     25  C   UNL d   1      52.160  33.792  52.736  0.00  0.00     0.039 A 
ENDBRANCH  19  20
ENDBRANCH   1  19
TORSDOF 5
ENDMDL
MODEL 2
REMARK VINA RESULT:      -9.7      1.374      2.819
REMARK  5 active torsions:
REMARK  status: ('A' for Active; 'I' for Inactive)
REMARK    1  A    between atoms: C_3  and  C_1 
REMARK    2  A    between atoms: C_7  and  C_3 
REMARK    3  A    between atoms: N_9  and  C_3 
REMARK    4  A    between atoms: C_17  and  C_8 
REMARK    5  A    between atoms: C_10  and  N_9 
ROOT
ATOM      1  C   UNL d   1      53.308  32.170  53.299  0.00  0.00     0.111 C 
ENDROOT
BRANCH   1   2
ATOM      2  C   UNL d   1      53.823  32.640  53.758  0.00  0.00     0.160 A 
ATOM      3  C   UNL d   1      54.591  32.796  53.502  0.00  0.00     0.258 A 
ATOM      4  C   UNL d   1      55.087  33.267  53.974  0.00  0.00     0.238 A 
ATOM      5  O   UNL d   1      54.885  32.489  52.774  0.00  0.00    -0.281 OA
ATOM      6  O   UNL d   1      55.866  33.425  53.715  0.00  0.00    -0.283 OA
ATOM      7  C   UNL d   1      54.828  33.581  54.692  0.00  0.00     0.073 A 
ATOM      8  C   UNL d   1      54.060  33.426  54.947  0.00  0.00     0.146 A 
ATOM      9  O   UNL d   1      53.564  32.958  54.481  0.00  0.00    -0.299 OA
BRANCH   8  10
ATOM     10  C   UNL d   1      53.818  33.755  55.679  0.00  0.00     0.259 C 
ATOM     11  O   UNL d   1      53.500  34.513  55.710  0.00  0.00    -0.281 OA
ENDBRANCH   8  10
ENDBRANCH   1   2
BRANCH   1  12
ATOM     12  C   UNL d   1      53.216  31.360  53.497  0.00  0.00     0.047 A 
ATOM     13  C   UNL d   1      53.198  30.789  52.902  0.00  0.00     0.142 A 
ATOM     14  F   UNL d   1      53.240  30.896  52.407  0.00  0.00    -0.204 F 
ATOM     15  C   UNL d   1      53.107  29.989  53.083  0.00  0.00     0.030 A 
ATOM     16  C   UNL d   1      53.034  29.757  53.871  0.00  0.00     0.002 A 
ATOM     17  C   UNL d   1      53.052  30.328  54.465  0.00  0.00     0.000 A 
ATOM     18  C   UNL d   1      53.143  31.128  54.285  0.00  0.00     0.004 A 
ENDBRANCH   1  12
BRANCH   1  19
ATOM     19  N   UNL d   1      52.900  32.492  52.665  0.00  0.00    -0.225 NA
BRANCH  19  20
ATOM     20  C   UNL d   1      52.213  32.956  52.793  0.00  0.00     0.163 A 
ATOM     21  N   UNL d   1      51.597  32.669  53.244  0.00  0.00    -0.225 NA
ATOM     22  C   UNL d   1      50.929  33.119  53.368  0.00  0.00     0.101 A 
ATOM     23  C   UNL d   1      50.870  33.889  53.030  0.00  0.00     0.021 A 
ATOM     24  C   UNL d   1      51.486  34.176  52.579  0.00  0.00     0.005 A 
ATOM     25  C   UNL d   1      52.171  33.717  52.450  0.00  0.00     0.039 A 
ENDBRANCH  19  20
ENDBRANCH   1  19
TORSDOF 5
ENDMDL
MODEL 3
REMARK VINA RESULT:      -9.2      1.557      3.034
REMARK  5 active torsions:
REMARK  status: ('A' for Active; 'I' for Inactive)
REMARK    1  A    between atoms: C_3  and  C_1 
REMARK    2  A    between atoms: C_7  and  C_3 
REMARK    3  A    between atoms: N_9  and  C_3 
REMARK    4  A    between atoms: C_17  and  C_8 
REMARK    5  A    between atoms: C_10  and  N_9 
ROOT
ATOM      1  C   UNL d   1      53.581  32.733  53.503  0.00  0.00     0.111 C 
ENDROOT
BRANCH   1   2
ATOM      2  C   UNL d   1      52.907  33.160  53.258  0.00  0.00     0.160 A 
ATOM      3  C   UNL d   1      52.940  33.659  52.603  0.00  0.00     0.258 A 
ATOM      4  C   UNL d   1      52.257  34.074  52.376  0.00  0.00     0.238 A 
ATOM      5  O   UNL d   1      53.649  33.758  52.159  0.00  0.00    -0.281 OA
ATOM      6  O   UNL d   1      52.290  34.581  51.712  0.00  0.00    -0.283 OA
ATOM      7  C   UNL d   1      51.548  33.998  52.791  0.00  0.00     0.073 A 
ATOM      8  C   UNL d   1      51.515  33.499  53.446  0.00  0.00     0.146 A 
ATOM      9  O   UNL d   1      52.191  33.084  53.675  0.00  0.00    -0.299 OA
BRANCH   8  10
ATOM     10  C   UNL d   1      50.784  33.437  53.853  0.00  0.00     0.259 C 
ATOM     11  O   UNL d   1      50.142  33.066  53.499  0.00  0.00    -0.281 OA
ENDBRANCH   8  10
ENDBRANCH   1   2
BRANCH   1  12
ATOM     12  C   UNL d   1      54.003  32.997  54.179  0.00  0.00     0.047 A 
ATOM     13  C   UNL d   1      54.800  33.200  54.115  0.00  0.00     0.142 A 
ATOM     14  F   UNL d   1      55.063  33.175  53.680  0.00  0.00    -0.204 F 
ATOM     15  C   UNL d   1      55.227  33.460  54.771  0.00  0.00     0.030 A 
ATOM     16  C   UNL d   1      54.851  33.520  55.502  0.00  0.00     0.002 A 
ATOM     17  C   UNL d   1      54.054  33.317  55.565  0.00  0.00     0.000 A 
ATOM     18  C   UNL d   1      53.627  33.056  54.910  0.00  0.00     0.004 A 
ENDBRANCH   1  12
BRANCH   1  19
ATOM     19  N   UNL d   1      53.828  32.068  53.092  0.00  0.00    -0.225 NA
BRANCH  19  20
ATOM     20  C   UNL d   1      53.495  31.316  53.258  0.00  0.00     0.163 A 
ATOM     21  N   UNL d   1      53.619  30.959  53.981  0.00  0.00    -0.225 NA
ATOM     22  C   UNL d   1      53.295  30.229  54.143  0.00  0.00     0.101 A 
ATOM     23  C   UNL d   1      52.828  29.836  53.561  0.00  0.00     0.021 A 
ATOM     24  C   UNL d   1      52.705  30.193  52.838  0.00  0.00     0.005 A 
ATOM     25  C   UNL d   1      53.035  30.941  52.671  0.00  0.00     0.039 A 
ENDBRANCH  19  20
ENDBRANCH   1  19
TORSDOF 5
ENDMDL
MODEL 4
REMARK VINA RESULT:      -8.9      1.468      3.144
REMARK  5 active torsions:
REMARK  status: ('A' for Active; 'I' for Inactive)
REMARK    1  A    between atoms: C_3  and  C_1 
REMARK    2  A    between atoms: C_7  and  C_3 
REMARK    3  A    between atoms: N_9  and  C_3 
REMARK    4  A    between atoms: C_17  and  C_8 
REMARK    5  A    between atoms: C_10  and  N_9 
ROOT
ATOM      1  C   UNL d   1      52.841  32.620  53.040  0.00  0.00     0.111 C 
ENDROOT
BRANCH   1   2
ATOM      2  C   UNL d   1      53.489  32.801  53.534  0.00  0.00     0.160 A 
ATOM      3  C   UNL d   1      54.215  33.021  53.213  0.00  0.00     0.258 A 
ATOM      4  C   UNL d   1      54.848  33.197  53.723  0.00  0.00     0.238 A 
ATOM      5  O   UNL d   1      54.332  33.072  52.379  0.00  0.00    -0.281 OA
ATOM      6  O   UNL d   1      55.584  33.420  53.396  0.00  0.00    -0.283 OA
ATOM      7  C   UNL d   1      54.764  33.156  54.542  0.00  0.00     0.073 A 
ATOM      8  C   UNL d   1      54.038  32.936  54.864  0.00  0.00     0.146 A 
ATOM      9  O   UNL d   1      53.407  32.760  54.361  0.00  0.00    -0.299 OA
BRANCH   8  10
ATOM     10  C   UNL d   1      53.976  32.901  55.700  0.00  0.00     0.259 C 
ATOM     11  O   UNL d   1      54.045  32.183  56.092  0.00  0.00    -0.281 OA
ENDBRANCH   8  10
ENDBRANCH   1   2
BRANCH   1  12
ATOM     12  C   UNL d   1      52.177  33.133  53.040  0.00  0.00     0.047 A 
ATOM     13  C   UNL d   1      51.997  33.574  52.366  0.00  0.00     0.142 A 
ATOM     14  F   UNL d   1      52.269  33.556  51.937  0.00  0.00    -0.204 F 
ATOM     15  C   UNL d   1      51.347  34.082  52.352  0.00  0.00     0.030 A 
ATOM     16  C   UNL d   1      50.871  34.150  53.021  0.00  0.00     0.002 A 
ATOM     17  C   UNL d   1      51.051  33.708  53.693  0.00  0.00     0.000 A 
ATOM     18  C   UNL d   1      51.701  33.200  53.708  0.00  0.00     0.004 A 
ENDBRANCH   1  12
BRANCH   1  19
ATOM     19  N   UNL d   1      52.853  31.953  52.563  0.00  0.00    -0.225 NA
BRANCH  19  20
ATOM     20  C   UNL d   1      52.714  31.193  52.890  0.00  0.00     0.163 A 
ATOM     21  N   UNL d   1      52.003  31.020  53.251  0.00  0.00    -0.225 NA
ATOM     22  C   UNL d   1      51.869  30.282  53.569  0.00  0.00     0.101 A 
ATOM     23  C   UNL d   1      52.466  29.689  53.526  0.00  0.00     0.021 A 
ATOM     24  C   UNL d   1      53.177  29.861  53.165  0.00  0.00     0.005 A 
ATOM     25  C   UNL d   1      53.317  30.617  52.839  0.00  0.00     0.039 A 
ENDBRANCH  19  20
ENDBRANCH   1  19
TORSDOF 5
ENDMDL
MODEL 5
REMARK VINA RESULT:      -7.7      0.847      2.418
REMARK  5 active torsions:
REMARK  status: ('A' for Active; 'I' for Inactive)
REMARK    1  A    between atoms: C_3  and  C_1 
REMARK    2  A    between atoms: C_7  and  C_3 
REMARK    3  A    between atoms: N_9  and  C_3 
REMARK    4  A    between atoms: C_17  and  C_8 
REMARK    5  A    between atoms: C_10  and  N_9 
ROOT
ATOM      1  C   UNL d   1      52.915  32.533  53.199  0.00  0.00     0.111 C 
ENDROOT
BRANCH   1   2
ATOM      2  C   UNL d   1      52.938  31.702  53.278  0.00  0.00     0.160 A 
ATOM      3  C   UNL d   1      52.985  31.217  52.614  0.00  0.00     0.258 A 
ATOM      4  C   UNL d   1      53.006  30.392  52.715  0.00  0.00     0.238 A 
ATOM      5  O   UNL d   1      53.012  31.537  51.834  0.00  0.00    -0.281 OA
ATOM      6  O   UNL d   1      53.054  29.900  52.041  0.00  0.00    -0.283 OA
ATOM      7  C   UNL d   1      52.982  30.050  53.465  0.00  0.00     0.073 A 
ATOM      8  C   UNL d   1      52.935  30.534  54.130  0.00  0.00     0.146 A 
ATOM      9  O   UNL d   1      52.913  31.354  54.033  0.00  0.00    -0.299 OA
BRANCH   8  10
ATOM     10  C   UNL d   1      52.911  30.165  54.882  0.00  0.00     0.259 C 
ATOM     11  O   UNL d   1      53.243  29.421  54.990  0.00  0.00    -0.281 OA
ENDBRANCH   8  10
ENDBRANCH   1   2
BRANCH   1  12
ATOM     12  C   UNL d   1      52.169  32.916  53.173  0.00  0.00     0.047 A 
ATOM     13  C   UNL d   1      52.005  33.460  52.575  0.00  0.00     0.142 A 
ATOM     14  F   UNL d   1      52.335  33.583  52.208  0.00  0.00    -0.204 F 
ATOM     15  C   UNL d   1      51.276  33.844  52.538  0.00  0.00     0.030 A 
ATOM     16  C   UNL d   1      50.703  33.682  53.108  0.00  0.00     0.002 A 
ATOM     17  C   UNL d   1      50.868  33.139  53.705  0.00  0.00     0.000 A 
ATOM     18  C   UNL d   1      51.596  32.755  53.743  0.00  0.00     0.004 A 
ENDBRANCH   1  12
BRANCH   1  19
ATOM     19  N   UNL d   1      53.609  32.967  53.146  0.00  0.00    -0.225 NA
BRANCH  19  20
ATOM     20  C   UNL d   1      54.016  33.205  53.840  0.00  0.00     0.163 A 
ATOM     21  N   UNL d   1      53.617  33.572  54.450  0.00  0.00    -0.225 NA
ATOM     22  C   UNL d   1      54.012  33.803  55.124  0.00  0.00     0.101 A 
ATOM     23  C   UNL d   1      54.840  33.663  55.196  0.00  0.00     0.021 A 
ATOM     24  C   UNL d   1      55.240  33.296  54.587  0.00  0.00     0.005 A 
ATOM     25  C   UNL d   1      54.836  33.059  53.895  0.00  0.00     0.039 A 
ENDBRANCH  19  20
ENDBRANCH   1  19
TORSDOF 5
ENDMDL
MODEL 6
REMARK VINA RESULT:      -7.3      1.616      3.443
REMARK  5 active torsions:
REMARK  status: ('A' for Active; 'I' for Inactive)
REMARK    1  A    between atoms: C_3  and  C_1 
REMARK    2  A    between atoms: C_7  and  C_3 
REMARK    3  A    between atoms: N_9  and  C_3 
REMARK    4  A    between atoms: C_17  and  C_8 
REMARK    5  A    between atoms: C_10  and  N_9 
ROOT
ATOM      1  C   UNL d   1      53.131  32.316  53.222  0.00  0.00     0.111 C 
ENDROOT
BRANCH   1   2
ATOM      2  C   UNL d   1      52.552  32.892  53.049  0.00  0.00     0.160 A 
ATOM      3  C   UNL d   1      52.613  33.362  52.375  0.00  0.00     0.258 A 
ATOM      4  C   UNL d   1      52.025  33.930  52.222  0.00  0.00     0.238 A 
ATOM      5  O   UNL d   1      53.257  33.281  51.838  0.00  0.00    -0.281 OA
ATOM      6  O   UNL d   1      52.088  34.407  51.539  0.00  0.00    -0.283 OA
ATOM      7  C   UNL d   1      51.383  34.032  52.730  0.00  0.00     0.073 A 
ATOM      8  C   UNL d   1      51.321  33.562  53.404  0.00  0.00     0.146 A 
ATOM      9  O   UNL d   1      51.903  32.997  53.560  0.00  0.00    -0.299 OA
BRANCH   8  10
ATOM     10  C   UNL d   1      50.661  33.684  53.905  0.00  0.00     0.259 C 
ATOM     11  O   UNL d   1      49.968  34.010  53.608  0.00  0.00    -0.281 OA
ENDBRANCH   8  10
ENDBRANCH   1   2
BRANCH   1  12
ATOM     12  C   UNL d   1      52.909  31.507  53.222  0.00  0.00     0.047 A 
ATOM     13  C   UNL d   1      53.330  30.963  52.766  0.00  0.00     0.142 A 
ATOM     14  F   UNL d   1      53.728  31.088  52.476  0.00  0.00    -0.204 F 
ATOM     15  C   UNL d   1      53.123  30.165  52.757  0.00  0.00     0.030 A 
ATOM     16  C   UNL d   1      52.486  29.906  53.211  0.00  0.00     0.002 A 
ATOM     17  C   UNL d   1      52.065  30.450  53.666  0.00  0.00     0.000 A 
ATOM     18  C   UNL d   1      52.271  31.248  53.675  0.00  0.00     0.004 A 
ENDBRANCH   1  12
BRANCH   1  19
ATOM     19  N   UNL d   1      53.903  32.536  53.387  0.00  0.00    -0.225 NA
BRANCH  19  20
ATOM     20  C   UNL d   1      54.115  32.802  54.155  0.00  0.00     0.163 A 
ATOM     21  N   UNL d   1      53.877  32.388  54.817  0.00  0.00    -0.225 NA
ATOM     22  C   UNL d   1      54.083  32.646  55.562  0.00  0.00     0.101 A 
ATOM     23  C   UNL d   1      54.544  33.346  55.654  0.00  0.00     0.021 A 
ATOM     24  C   UNL d   1      54.782  33.759  54.992  0.00  0.00     0.005 A 
ATOM     25  C   UNL d   1      54.572  33.497  54.228  0.00  0.00     0.039 A 
ENDBRANCH  19  20
ENDBRANCH   1  19
TORSDOF 5
ENDMDL
