MODEL 1
REMARK VINA RESULT:      -7.1      0.000      0.000
REMARK  4 active torsions:
REMARK  status: ('A' for Active; 'I' for Inactive)
REMARK    1  A    between atoms: C_9  and  N_1 
REMARK    2  A    between atoms: S_10  and  C_6 
REMARK    3  A    between atoms: C_16  and  S_10 
REMARK    4  A    between atoms: C_15  and  C_16 
ROOT
ATOM      1  N   UNL d   1     -46.219  11.595  23.276  0.00  0.00    -0.212 N 
ATOM      2  C   UNL d   1     -46.312  12.410  23.244  0.00  0.00     0.169 A 
ATOM      3  N   UNL d   1     -46.950  11.247  23.303  0.00  0.00    -0.162 NA
ATOM      4  C   UNL d   1     -47.122  12.568  23.251  0.00  0.00     0.081 A 
ATOM      5  C   UNL d   1     -47.519  11.849  23.288  0.00  0.00     0.126 A 
ATOM      6  C   UNL d   1     -47.390  13.345  23.223  0.00  0.00     0.117 A 
ATOM      7  N   UNL d   1     -45.771  13.028  23.209  0.00  0.00    -0.205 NA
ATOM      8  N   UNL d   1     -46.849  13.967  23.188  0.00  0.00    -0.217 NA
ATOM      9  C   UNL d   1     -46.039  13.808  23.181  0.00  0.00     0.201 A 
ENDROOT
BRANCH   6  10
ATOM     10  S   UNL d   1     -48.199  13.503  23.230  0.00  0.00    -0.067 SA
BRANCH  10  11
ATOM     11  C   UNL d   1     -48.474  14.236  23.001  0.00  0.00     0.038 C 
BRANCH  11  12
ATOM     12  C   UNL d   1     -49.283  14.362  22.904  0.00  0.00     0.026 A 
ATOM     13  C   UNL d   1     -49.572  14.660  22.190  0.00  0.00     0.099 A 
ATOM     14  N   UNL d   1     -50.381  14.786  22.092  0.00  0.00    -0.242 NA
ATOM     15  C   UNL d   1     -50.911  14.615  22.707  0.00  0.00     0.099 A 
ATOM     16  C   UNL d   1     -50.615  14.315  23.422  0.00  0.00     0.021 A 
ATOM     17  C   UNL d   1     -49.805  14.189  23.520  0.00  0.00     0.004 A 
ENDBRANCH  11  12
ENDBRANCH  10  11
ENDBRANCH   6  10
BRANCH   1  18
ATOM     18  C   UNL d   1     -45.457  11.263  23.277  0.00  0.00     0.085 A 
ATOM     19  C   UNL d   1     -44.847  11.637  22.873  0.00  0.00     0.021 A 
ATOM     20  C   UNL d   1     -44.096  11.313  22.873  0.00  0.00     0.031 A 
ATOM     21  C   UNL d   1     -43.945  10.608  23.277  0.00  0.00     0.140 A 
ATOM     22  C   UNL d   1     -44.572  10.236  23.684  0.00  0.00     0.031 A 
ATOM     23  F   UNL d   1     -43.184  10.276  23.279  0.00  0.00    -0.204 F 
ATOM     24  C   UNL d   1     -45.318  10.566  23.680  0.00  0.00     0.021 A 
ENDBRANCH   1  18
TORSDOF 4
ENDMDL
MODEL 2
REMARK VINA RESULT:      -6.9      2.408      5.462
REMARK  4 active torsions:
REMARK  status: ('A' for Active; 'I' for Inactive)
REMARK    1  A    between atoms: C_9  and  N_1 
REMARK    2  A    between atoms: S_10  and  C_6 
REMARK    3  A    between atoms: C_16  and  S_10 
REMARK    4  A    between atoms: C_15  and  C_16 
ROOT
ATOM      1  N   UNL d   1     -47.935  14.708  22.612  0.00  0.00    -0.212 N 
ATOM      2  C   UNL d   1     -47.661  13.958  22.805  0.00  0.00     0.169 A 
ATOM      3  N   UNL d   1     -47.334  15.127  22.266  0.00  0.00    -0.162 NA
ATOM      4  C   UNL d   1     -46.871  13.914  22.572  0.00  0.00     0.081 A 
ATOM      5  C   UNL d   1     -46.666  14.637  22.238  0.00  0.00     0.126 A 
ATOM      6  C   UNL d   1     -46.443  13.223  22.694  0.00  0.00     0.117 A 
ATOM      7  N   UNL d   1     -48.023  13.311  23.160  0.00  0.00    -0.205 NA
ATOM      8  N   UNL d   1     -46.804  12.572  23.050  0.00  0.00    -0.217 NA
ATOM      9  C   UNL d   1     -47.594  12.616  23.283  0.00  0.00     0.201 A 
ENDROOT
BRANCH   6  10
ATOM     10  S   UNL d   1     -45.653  13.180  22.461  0.00  0.00    -0.067 SA
BRANCH  10  11
ATOM     11  C   UNL d   1     -45.257  12.467  22.490  0.00  0.00     0.038 C 
BRANCH  11  12
ATOM     12  C   UNL d   1     -44.483  12.412  22.210  0.00  0.00     0.026 A 
ATOM     13  C   UNL d   1     -43.982  11.822  22.495  0.00  0.00     0.099 A 
ATOM     14  N   UNL d   1     -43.208  11.767  22.215  0.00  0.00    -0.242 NA
ATOM     15  C   UNL d   1     -42.927  12.303  21.647  0.00  0.00     0.099 A 
ATOM     16  C   UNL d   1     -43.436  12.894  21.365  0.00  0.00     0.021 A 
ATOM     17  C   UNL d   1     -44.210  12.948  21.645  0.00  0.00     0.004 A 
ENDBRANCH  11  12
ENDBRANCH  10  11
ENDBRANCH   6  10
BRANCH   1  18
ATOM     18  C   UNL d   1     -48.720  14.919  22.781  0.00  0.00     0.085 A 
ATOM     19  C   UNL d   1     -49.325  14.692  22.272  0.00  0.00     0.021 A 
ATOM     20  C   UNL d   1     -50.099  14.899  22.436  0.00  0.00     0.031 A 
ATOM     21  C   UNL d   1     -50.280  15.337  23.114  0.00  0.00     0.140 A 
ATOM     22  C   UNL d   1     -49.658  15.563  23.624  0.00  0.00     0.031 A 
ATOM     23  F   UNL d   1     -51.064  15.549  23.283  0.00  0.00    -0.204 F 
ATOM     24  C   UNL d   1     -48.889  15.353  23.453  0.00  0.00     0.021 A 
ENDBRANCH   1  18
TORSDOF 4
ENDMDL
MODEL 3
REMARK VINA RESULT:      -6.6      8.510      9.962
REMARK  4 active torsions:
REMARK  status: ('A' for Active; 'I' for Inactive)
REMARK    1  A    between atoms: C_9  and  N_1 
REMARK    2  A    between atoms: S_10  and  C_6 
REMARK    3  A    between atoms: C_16  and  S_10 
REMARK    4  A    between atoms: C_15  and  C_16 
ROOT
ATOM      1  N   UNL d   1     -38.438  14.551  17.565  0.00  0.00    -0.212 N 
ATOM      2  C   UNL d   1     -39.121  14.393  17.993  0.00  0.00     0.169 A 
ATOM      3  N   UNL d   1     -37.940  14.997  18.022  0.00  0.00    -0.162 NA
ATOM      4  C   UNL d   1     -39.041  14.751  18.732  0.00  0.00     0.081 A 
ATOM      5  C   UNL d   1     -38.309  15.126  18.752  0.00  0.00     0.126 A 
ATOM      6  C   UNL d   1     -39.644  14.688  19.287  0.00  0.00     0.117 A 
ATOM      7  N   UNL d   1     -39.804  13.972  17.810  0.00  0.00    -0.205 NA
ATOM      8  N   UNL d   1     -40.329  14.267  19.106  0.00  0.00    -0.217 NA
ATOM      9  C   UNL d   1     -40.409  13.909  18.367  0.00  0.00     0.201 A 
ENDROOT
BRANCH   6  10
ATOM     10  S   UNL d   1     -39.563  15.047  20.026  0.00  0.00    -0.067 SA
BRANCH  10  11
ATOM     11  C   UNL d   1     -39.860  14.680  20.692  0.00  0.00     0.038 C 
BRANCH  11  12
ATOM     12  C   UNL d   1     -39.601  14.910  21.440  0.00  0.00     0.026 A 
ATOM     13  C   UNL d   1     -39.720  15.686  21.698  0.00  0.00     0.099 A 
ATOM     14  N   UNL d   1     -39.460  15.916  22.447  0.00  0.00    -0.242 NA
ATOM     15  C   UNL d   1     -39.078  15.373  22.945  0.00  0.00     0.099 A 
ATOM     16  C   UNL d   1     -38.962  14.595  22.680  0.00  0.00     0.021 A 
ATOM     17  C   UNL d   1     -39.222  14.365  21.931  0.00  0.00     0.004 A 
ENDBRANCH  11  12
ENDBRANCH  10  11
ENDBRANCH   6  10
BRANCH   1  18
ATOM     18  C   UNL d   1     -38.355  14.259  16.792  0.00  0.00     0.085 A 
ATOM     19  C   UNL d   1     -38.606  14.712  16.154  0.00  0.00     0.021 A 
ATOM     20  C   UNL d   1     -38.526  14.428  15.391  0.00  0.00     0.031 A 
ATOM     21  C   UNL d   1     -38.192  13.683  15.256  0.00  0.00     0.140 A 
ATOM     22  C   UNL d   1     -37.940  13.231  15.912  0.00  0.00     0.031 A 
ATOM     23  F   UNL d   1     -38.108  13.391  14.484  0.00  0.00    -0.204 F 
ATOM     24  C   UNL d   1     -38.024  13.522  16.669  0.00  0.00     0.021 A 
ENDBRANCH   1  18
TORSDOF 4
ENDMDL
MODEL 4
REMARK VINA RESULT:      -6.4      8.186      9.471
REMARK  4 active torsions:
REMARK  status: ('A' for Active; 'I' for Inactive)
REMARK    1  A    between atoms: C_9  and  N_1 
REMARK    2  A    between atoms: S_10  and  C_6 
REMARK    3  A    between atoms: C_16  and  S_10 
REMARK    4  A    between atoms: C_15  and  C_16 
ROOT
ATOM      1  N   UNL d   1     -39.832  14.679  18.473  0.00  0.00    -0.212 N 
ATOM      2  C   UNL d   1     -40.028  15.014  19.197  0.00  0.00     0.169 A 
ATOM      3  N   UNL d   1     -39.326  14.059  18.598  0.00  0.00    -0.162 NA
ATOM      4  C   UNL d   1     -39.632  14.589  19.783  0.00  0.00     0.081 A 
ATOM      5  C   UNL d   1     -39.196  13.997  19.414  0.00  0.00     0.126 A 
ATOM      6  C   UNL d   1     -39.720  14.796  20.573  0.00  0.00     0.117 A 
ATOM      7  N   UNL d   1     -40.512  15.646  19.402  0.00  0.00    -0.205 NA
ATOM      8  N   UNL d   1     -40.205  15.431  20.781  0.00  0.00    -0.217 NA
ATOM      9  C   UNL d   1     -40.601  15.856  20.195  0.00  0.00     0.201 A 
ENDROOT
BRANCH   6  10
ATOM     10  S   UNL d   1     -39.323  14.371  21.159  0.00  0.00    -0.067 SA
BRANCH  10  11
ATOM     11  C   UNL d   1     -39.175  14.716  21.883  0.00  0.00     0.038 C 
BRANCH  11  12
ATOM     12  C   UNL d   1     -38.824  14.275  22.486  0.00  0.00     0.026 A 
ATOM     13  C   UNL d   1     -39.007  13.474  22.572  0.00  0.00     0.099 A 
ATOM     14  N   UNL d   1     -38.657  13.033  23.175  0.00  0.00    -0.242 NA
ATOM     15  C   UNL d   1     -38.119  13.388  23.698  0.00  0.00     0.099 A 
ATOM     16  C   UNL d   1     -37.940  14.193  23.606  0.00  0.00     0.021 A 
ATOM     17  C   UNL d   1     -38.290  14.634  23.003  0.00  0.00     0.004 A 
ENDBRANCH  11  12
ENDBRANCH  10  11
ENDBRANCH   6  10
BRANCH   1  18
ATOM     18  C   UNL d   1     -40.150  14.991  17.772  0.00  0.00     0.085 A 
ATOM     19  C   UNL d   1     -40.890  14.747  17.512  0.00  0.00     0.021 A 
ATOM     20  C   UNL d   1     -41.205  15.052  16.822  0.00  0.00     0.031 A 
ATOM     21  C   UNL d   1     -40.782  15.609  16.381  0.00  0.00     0.140 A 
ATOM     22  C   UNL d   1     -40.031  15.851  16.654  0.00  0.00     0.031 A 
ATOM     23  F   UNL d   1     -41.099  15.922  15.680  0.00  0.00    -0.204 F 
ATOM     24  C   UNL d   1     -39.724  15.541  17.342  0.00  0.00     0.021 A 
ENDBRANCH   1  18
TORSDOF 4
ENDMDL
MODEL 5
REMARK VINA RESULT:      -6.3      8.616     10.608
REMARK  4 active torsions:
REMARK  status: ('A' for Active; 'I' for Inactive)
REMARK    1  A    between atoms: C_9  and  N_1 
REMARK    2  A    between atoms: S_10  and  C_6 
REMARK    3  A    between atoms: C_16  and  S_10 
REMARK    4  A    between atoms: C_15  and  C_16 
ROOT
ATOM      1  N   UNL d   1     -40.076  14.666  18.786  0.00  0.00    -0.212 N 
ATOM      2  C   UNL d   1     -39.324  14.813  18.491  0.00  0.00     0.169 A 
ATOM      3  N   UNL d   1     -40.555  14.425  18.179  0.00  0.00    -0.162 NA
ATOM      4  C   UNL d   1     -39.340  14.659  17.681  0.00  0.00     0.081 A 
ATOM      5  C   UNL d   1     -40.102  14.418  17.485  0.00  0.00     0.126 A 
ATOM      6  C   UNL d   1     -38.661  14.758  17.229  0.00  0.00     0.117 A 
ATOM      7  N   UNL d   1     -38.629  15.067  18.849  0.00  0.00    -0.205 NA
ATOM      8  N   UNL d   1     -37.962  15.012  17.586  0.00  0.00    -0.217 NA
ATOM      9  C   UNL d   1     -37.946  15.166  18.396  0.00  0.00     0.201 A 
ENDROOT
BRANCH   6  10
ATOM     10  S   UNL d   1     -38.677  14.604  16.418  0.00  0.00    -0.067 SA
BRANCH  10  11
ATOM     11  C   UNL d   1     -37.982  14.588  15.992  0.00  0.00     0.038 C 
BRANCH  11  12
ATOM     12  C   UNL d   1     -37.982  14.318  15.213  0.00  0.00     0.026 A 
ATOM     13  C   UNL d   1     -38.023  14.856  14.589  0.00  0.00     0.099 A 
ATOM     14  N   UNL d   1     -38.023  14.586  13.809  0.00  0.00    -0.242 NA
ATOM     15  C   UNL d   1     -37.981  13.773  13.646  0.00  0.00     0.099 A 
ATOM     16  C   UNL d   1     -37.940  13.237  14.278  0.00  0.00     0.021 A 
ATOM     17  C   UNL d   1     -37.940  13.508  15.057  0.00  0.00     0.004 A 
ENDBRANCH  11  12
ENDBRANCH  10  11
ENDBRANCH   6  10
BRANCH   1  18
ATOM     18  C   UNL d   1     -40.233  14.773  19.595  0.00  0.00     0.085 A 
ATOM     19  C   UNL d   1     -40.647  15.436  19.848  0.00  0.00     0.021 A 
ATOM     20  C   UNL d   1     -40.804  15.544  20.643  0.00  0.00     0.031 A 
ATOM     21  C   UNL d   1     -40.547  14.988  21.199  0.00  0.00     0.140 A 
ATOM     22  C   UNL d   1     -40.127  14.318  20.931  0.00  0.00     0.031 A 
ATOM     23  F   UNL d   1     -40.704  15.095  22.007  0.00  0.00    -0.204 F 
ATOM     24  C   UNL d   1     -39.975  14.217  20.136  0.00  0.00     0.021 A 
ENDBRANCH   1  18
TORSDOF 4
ENDMDL
MODEL 6
REMARK VINA RESULT:      -5.9      8.281      9.989
REMARK  4 active torsions:
REMARK  status: ('A' for Active; 'I' for Inactive)
REMARK    1  A    between atoms: C_9  and  N_1 
REMARK    2  A    between atoms: S_10  and  C_6 
REMARK    3  A    between atoms: C_16  and  S_10 
REMARK    4  A    between atoms: C_15  and  C_16 
ROOT
ATOM      1  N   UNL d   1     -38.661  14.632  20.398  0.00  0.00    -0.212 N 
ATOM      2  C   UNL d   1     -39.221  14.633  19.797  0.00  0.00     0.169 A 
ATOM      3  N   UNL d   1     -37.940  14.828  20.086  0.00  0.00    -0.162 NA
ATOM      4  C   UNL d   1     -38.834  14.834  19.097  0.00  0.00     0.081 A 
ATOM      5  C   UNL d   1     -38.040  14.955  19.273  0.00  0.00     0.126 A 
ATOM      6  C   UNL d   1     -39.255  14.880  18.393  0.00  0.00     0.117 A 
ATOM      7  N   UNL d   1     -40.028  14.478  19.793  0.00  0.00    -0.205 NA
ATOM      8  N   UNL d   1     -40.066  14.725  18.386  0.00  0.00    -0.217 NA
ATOM      9  C   UNL d   1     -40.452  14.524  19.086  0.00  0.00     0.201 A 
ENDROOT
BRANCH   6  10
ATOM     10  S   UNL d   1     -38.869  15.082  17.692  0.00  0.00    -0.067 SA
BRANCH  10  11
ATOM     11  C   UNL d   1     -39.248  14.990  16.976  0.00  0.00     0.038 C 
BRANCH  11  12
ATOM     12  C   UNL d   1     -38.829  15.086  16.272  0.00  0.00     0.026 A 
ATOM     13  C   UNL d   1     -38.799  15.826  15.907  0.00  0.00     0.099 A 
ATOM     14  N   UNL d   1     -38.380  15.922  15.202  0.00  0.00    -0.242 NA
ATOM     15  C   UNL d   1     -37.986  15.279  14.856  0.00  0.00     0.099 A 
ATOM     16  C   UNL d   1     -38.021  14.538  15.228  0.00  0.00     0.021 A 
ATOM     17  C   UNL d   1     -38.440  14.442  15.932  0.00  0.00     0.004 A 
ENDBRANCH  11  12
ENDBRANCH  10  11
ENDBRANCH   6  10
BRANCH   1  18
ATOM     18  C   UNL d   1     -38.886  14.448  21.176  0.00  0.00     0.085 A 
ATOM     19  C   UNL d   1     -39.107  15.048  21.692  0.00  0.00     0.021 A 
ATOM     20  C   UNL d   1     -39.329  14.869  22.459  0.00  0.00     0.031 A 
ATOM     21  C   UNL d   1     -39.334  14.085  22.720  0.00  0.00     0.140 A 
ATOM     22  C   UNL d   1     -39.108  13.482  22.187  0.00  0.00     0.031 A 
ATOM     23  F   UNL d   1     -39.559  13.899  23.498  0.00  0.00    -0.204 F 
ATOM     24  C   UNL d   1     -38.888  13.669  21.425  0.00  0.00     0.021 A 
ENDBRANCH   1  18
TORSDOF 4
ENDMDL
MODEL 7
REMARK VINA RESULT:      -5.7      7.873      8.748
REMARK  4 active torsions:
REMARK  status: ('A' for Active; 'I' for Inactive)
REMARK    1  A    between atoms: C_9  and  N_1 
REMARK    2  A    between atoms: S_10  and  C_6 
REMARK    3  A    between atoms: C_16  and  S_10 
REMARK    4  A    between atoms: C_15  and  C_16 
ROOT
ATOM      1  N   UNL d   1     -39.746  14.719  21.042  0.00  0.00    -0.212 N 
ATOM      2  C   UNL d   1     -39.382  14.783  20.309  0.00  0.00     0.169 A 
ATOM      3  N   UNL d   1     -40.532  14.899  20.962  0.00  0.00    -0.162 NA
ATOM      4  C   UNL d   1     -39.958  15.008  19.763  0.00  0.00     0.081 A 
ATOM      5  C   UNL d   1     -40.672  15.080  20.165  0.00  0.00     0.126 A 
ATOM      6  C   UNL d   1     -39.757  15.117  18.974  0.00  0.00     0.117 A 
ATOM      7  N   UNL d   1     -38.605  14.668  20.065  0.00  0.00    -0.205 NA
ATOM      8  N   UNL d   1     -38.979  15.002  18.726  0.00  0.00    -0.217 NA
ATOM      9  C   UNL d   1     -38.402  14.777  19.272  0.00  0.00     0.201 A 
ENDROOT
BRANCH   6  10
ATOM     10  S   UNL d   1     -40.334  15.342  18.428  0.00  0.00    -0.067 SA
BRANCH  10  11
ATOM     11  C   UNL d   1     -40.348  15.003  17.686  0.00  0.00     0.038 C 
BRANCH  11  12
ATOM     12  C   UNL d   1     -40.844  15.308  17.102  0.00  0.00     0.026 A 
ATOM     13  C   UNL d   1     -41.659  15.351  17.233  0.00  0.00     0.099 A 
ATOM     14  N   UNL d   1     -42.155  15.656  16.649  0.00  0.00    -0.242 NA
ATOM     15  C   UNL d   1     -41.842  15.922  15.927  0.00  0.00     0.099 A 
ATOM     16  C   UNL d   1     -41.023  15.876  15.802  0.00  0.00     0.021 A 
ATOM     17  C   UNL d   1     -40.527  15.571  16.387  0.00  0.00     0.004 A 
ENDBRANCH  11  12
ENDBRANCH  10  11
ENDBRANCH   6  10
BRANCH   1  18
ATOM     18  C   UNL d   1     -39.303  14.499  21.709  0.00  0.00     0.085 A 
ATOM     19  C   UNL d   1     -39.092  13.712  21.820  0.00  0.00     0.021 A 
ATOM     20  C   UNL d   1     -38.655  13.493  22.475  0.00  0.00     0.031 A 
ATOM     21  C   UNL d   1     -38.422  14.059  23.031  0.00  0.00     0.140 A 
ATOM     22  C   UNL d   1     -38.642  14.856  22.909  0.00  0.00     0.031 A 
ATOM     23  F   UNL d   1     -37.979  13.840  23.698  0.00  0.00    -0.204 F 
ATOM     24  C   UNL d   1     -39.077  15.066  22.253  0.00  0.00     0.021 A 
ENDBRANCH   1  18
TORSDOF 4
ENDMDL
MODEL 8
REMARK VINA RESULT:      -5.7      2.481      5.033
REMARK  4 active torsions:
REMARK  status: ('A' for Active; 'I' for Inactive)
REMARK    1  A    between atoms: C_9  and  N_1 
REMARK    2  A    between atoms: S_10  and  C_6 
REMARK    3  A    between atoms: C_16  and  S_10 
REMARK    4  A    between atoms: C_15  and  C_16 
ROOT
ATOM      1  N   UNL d   1     -48.065  12.918  22.460  0.00  0.00    -0.212 N 
ATOM      2  C   UNL d   1     -47.394  12.610  22.818  0.00  0.00     0.169 A 
ATOM      3  N   UNL d   1     -47.840  13.383  21.836  0.00  0.00    -0.162 NA
ATOM      4  C   UNL d   1     -46.738  12.892  22.404  0.00  0.00     0.081 A 
ATOM      5  C   UNL d   1     -47.013  13.371  21.795  0.00  0.00     0.126 A 
ATOM      6  C   UNL d   1     -45.980  12.675  22.636  0.00  0.00     0.117 A 
ATOM      7  N   UNL d   1     -47.291  12.111  23.464  0.00  0.00    -0.205 NA
ATOM      8  N   UNL d   1     -45.874  12.175  23.284  0.00  0.00    -0.217 NA
ATOM      9  C   UNL d   1     -46.530  11.893  23.698  0.00  0.00     0.201 A 
ENDROOT
BRANCH   6  10
ATOM     10  S   UNL d   1     -45.325  12.957  22.221  0.00  0.00    -0.067 SA
BRANCH  10  11
ATOM     11  C   UNL d   1     -44.591  12.624  22.343  0.00  0.00     0.038 C 
BRANCH  11  12
ATOM     12  C   UNL d   1     -43.942  12.881  21.903  0.00  0.00     0.026 A 
ATOM     13  C   UNL d   1     -43.772  13.688  21.852  0.00  0.00     0.099 A 
ATOM     14  N   UNL d   1     -43.123  13.945  21.412  0.00  0.00    -0.242 NA
ATOM     15  C   UNL d   1     -42.638  13.400  21.019  0.00  0.00     0.099 A 
ATOM     16  C   UNL d   1     -42.815  12.591  21.074  0.00  0.00     0.021 A 
ATOM     17  C   UNL d   1     -43.463  12.333  21.514  0.00  0.00     0.004 A 
ENDBRANCH  11  12
ENDBRANCH  10  11
ENDBRANCH   6  10
BRANCH   1  18
ATOM     18  C   UNL d   1     -48.818  12.731  22.757  0.00  0.00     0.085 A 
ATOM     19  C   UNL d   1     -49.220  12.073  22.471  0.00  0.00     0.021 A 
ATOM     20  C   UNL d   1     -49.961  11.887  22.762  0.00  0.00     0.031 A 
ATOM     21  C   UNL d   1     -50.312  12.357  23.345  0.00  0.00     0.140 A 
ATOM     22  C   UNL d   1     -49.895  13.023  23.628  0.00  0.00     0.031 A 
ATOM     23  F   UNL d   1     -51.064  12.171  23.642  0.00  0.00    -0.204 F 
ATOM     24  C   UNL d   1     -49.157  13.202  23.333  0.00  0.00     0.021 A 
ENDBRANCH   1  18
TORSDOF 4
ENDMDL
