MODEL 1
REMARK VINA RESULT:     -11.3      0.000      0.000
REMARK  1 active torsions:
REMARK  status: ('A' for Active; 'I' for Inactive)
REMARK    1  A    between atoms: C_9  and  C_4 
ROOT
ATOM      1  S   UNL d   1      53.798  31.625  53.966  0.00  0.00    -0.085 SA
ATOM      2  N   UNL d   1      52.493  31.692  52.709  0.00  0.00    -0.207 NA
ATOM      3  C   UNL d   1      52.630  32.484  52.810  0.00  0.00     0.280 A 
ATOM      4  C   UNL d   1      53.730  32.428  53.870  0.00  0.00     0.034 A 
ATOM      5  C   UNL d   1      53.201  32.828  53.346  0.00  0.00     0.069 A 
ATOM      6  C   UNL d   1      53.429  31.145  53.630  0.00  0.00     0.047 A 
ATOM      7  C   UNL d   1      52.835  31.164  53.058  0.00  0.00     0.091 A 
ATOM      8  O   UNL d   1      52.180  33.003  52.357  0.00  0.00    -0.265 OA
ATOM      9  C   UNL d   1      53.700  30.424  53.919  0.00  0.00     0.008 A 
ATOM     10  C   UNL d   1      52.512  30.462  52.775  0.00  0.00     0.020 A 
ATOM     11  C   UNL d   1      52.783  29.732  53.063  0.00  0.00     0.002 A 
ATOM     12  C   UNL d   1      53.377  29.713  53.635  0.00  0.00     0.001 A 
ENDROOT
BRANCH   4  13
ATOM     13  C   UNL d   1      54.231  32.899  54.334  0.00  0.00     0.006 A 
ATOM     14  C   UNL d   1      54.045  33.055  55.116  0.00  0.00     0.001 A 
ATOM     15  C   UNL d   1      54.538  33.520  55.574  0.00  0.00     0.000 A 
ATOM     16  C   UNL d   1      55.227  33.833  55.246  0.00  0.00     0.000 A 
ATOM     17  C   UNL d   1      55.419  33.676  54.451  0.00  0.00     0.000 A 
ATOM     18  C   UNL d   1      54.919  33.208  53.995  0.00  0.00     0.001 A 
ENDBRANCH   4  13
TORSDOF 1
ENDMDL
MODEL 2
REMARK VINA RESULT:     -11.0      2.279      3.755
REMARK  1 active torsions:
REMARK  status: ('A' for Active; 'I' for Inactive)
REMARK    1  A    between atoms: C_9  and  C_4 
ROOT
ATOM      1  S   UNL d   1      52.691  33.639  53.685  0.00  0.00    -0.085 SA
ATOM      2  N   UNL d   1      53.625  34.795  54.724  0.00  0.00    -0.207 NA
ATOM      3  C   UNL d   1      53.080  35.303  54.406  0.00  0.00     0.280 A 
ATOM      4  C   UNL d   1      52.292  34.328  53.530  0.00  0.00     0.034 A 
ATOM      5  C   UNL d   1      52.462  35.091  53.854  0.00  0.00     0.069 A 
ATOM      6  C   UNL d   1      53.235  33.573  54.109  0.00  0.00     0.047 A 
ATOM      7  C   UNL d   1      53.667  34.090  54.585  0.00  0.00     0.091 A 
ATOM      8  O   UNL d   1      53.125  36.092  54.635  0.00  0.00    -0.265 OA
ATOM      9  C   UNL d   1      53.436  32.775  54.078  0.00  0.00     0.008 A 
ATOM     10  C   UNL d   1      54.300  33.810  55.030  0.00  0.00     0.020 A 
ATOM     11  C   UNL d   1      54.507  33.007  55.001  0.00  0.00     0.002 A 
ATOM     12  C   UNL d   1      54.075  32.489  54.525  0.00  0.00     0.001 A 
ENDROOT
BRANCH   4  13
ATOM     13  C   UNL d   1      51.655  34.276  53.002  0.00  0.00     0.006 A 
ATOM     14  C   UNL d   1      50.885  34.310  53.278  0.00  0.00     0.001 A 
ATOM     15  C   UNL d   1      50.256  34.259  52.757  0.00  0.00     0.000 A 
ATOM     16  C   UNL d   1      50.398  34.171  51.949  0.00  0.00     0.000 A 
ATOM     17  C   UNL d   1      51.181  34.135  51.666  0.00  0.00     0.000 A 
ATOM     18  C   UNL d   1      51.810  34.188  52.194  0.00  0.00     0.001 A 
ENDBRANCH   4  13
TORSDOF 1
ENDMDL
MODEL 3
REMARK VINA RESULT:     -11.0      1.685      3.439
REMARK  1 active torsions:
REMARK  status: ('A' for Active; 'I' for Inactive)
REMARK    1  A    between atoms: C_9  and  C_4 
ROOT
ATOM      1  S   UNL d   1      52.780  33.651  53.817  0.00  0.00    -0.085 SA
ATOM      2  N   UNL d   1      53.701  32.089  53.829  0.00  0.00    -0.207 NA
ATOM      3  C   UNL d   1      53.113  31.900  53.305  0.00  0.00     0.280 A 
ATOM      4  C   UNL d   1      52.337  33.218  53.295  0.00  0.00     0.034 A 
ATOM      5  C   UNL d   1      52.481  32.420  53.055  0.00  0.00     0.069 A 
ATOM      6  C   UNL d   1      53.348  33.430  54.147  0.00  0.00     0.047 A 
ATOM      7  C   UNL d   1      53.774  32.724  54.160  0.00  0.00     0.091 A 
ATOM      8  O   UNL d   1      53.125  31.143  52.984  0.00  0.00    -0.265 OA
ATOM      9  C   UNL d   1      53.591  34.067  54.608  0.00  0.00     0.008 A 
ATOM     10  C   UNL d   1      54.444  32.655  54.633  0.00  0.00     0.020 A 
ATOM     11  C   UNL d   1      54.693  33.295  55.099  0.00  0.00     0.002 A 
ATOM     12  C   UNL d   1      54.267  34.001  55.087  0.00  0.00     0.001 A 
ENDROOT
BRANCH   4  13
ATOM     13  C   UNL d   1      51.678  33.598  52.965  0.00  0.00     0.006 A 
ATOM     14  C   UNL d   1      50.953  33.575  53.346  0.00  0.00     0.001 A 
ATOM     15  C   UNL d   1      50.302  33.950  53.022  0.00  0.00     0.000 A 
ATOM     16  C   UNL d   1      50.377  34.354  52.306  0.00  0.00     0.000 A 
ATOM     17  C   UNL d   1      51.113  34.379  51.916  0.00  0.00     0.000 A 
ATOM     18  C   UNL d   1      51.764  34.000  52.247  0.00  0.00     0.001 A 
ENDBRANCH   4  13
TORSDOF 1
ENDMDL
MODEL 4
REMARK VINA RESULT:     -10.6      1.356      2.432
REMARK  1 active torsions:
REMARK  status: ('A' for Active; 'I' for Inactive)
REMARK    1  A    between atoms: C_9  and  C_4 
ROOT
ATOM      1  S   UNL d   1      52.844  33.751  53.704  0.00  0.00    -0.085 SA
ATOM      2  N   UNL d   1      52.118  32.495  52.616  0.00  0.00    -0.207 NA
ATOM      3  C   UNL d   1      52.761  32.087  52.890  0.00  0.00     0.280 A 
ATOM      4  C   UNL d   1      53.373  33.146  53.807  0.00  0.00     0.034 A 
ATOM      5  C   UNL d   1      53.344  32.384  53.441  0.00  0.00     0.069 A 
ATOM      6  C   UNL d   1      52.284  33.733  53.296  0.00  0.00     0.047 A 
ATOM      7  C   UNL d   1      51.945  33.169  52.798  0.00  0.00     0.091 A 
ATOM      8  O   UNL d   1      52.863  31.318  52.614  0.00  0.00    -0.265 OA
ATOM      9  C   UNL d   1      51.933  34.473  53.381  0.00  0.00     0.008 A 
ATOM     10  C   UNL d   1      51.256  33.345  52.385  0.00  0.00     0.020 A 
ATOM     11  C   UNL d   1      50.898  34.089  52.467  0.00  0.00     0.002 A 
ATOM     12  C   UNL d   1      51.236  34.654  52.965  0.00  0.00     0.001 A 
ENDROOT
BRANCH   4  13
ATOM     13  C   UNL d   1      54.005  33.292  54.325  0.00  0.00     0.006 A 
ATOM     14  C   UNL d   1      53.930  33.133  55.124  0.00  0.00     0.001 A 
ATOM     15  C   UNL d   1      54.552  33.277  55.636  0.00  0.00     0.000 A 
ATOM     16  C   UNL d   1      55.260  33.584  55.343  0.00  0.00     0.000 A 
ATOM     17  C   UNL d   1      55.340  33.746  54.530  0.00  0.00     0.000 A 
ATOM     18  C   UNL d   1      54.710  33.600  54.020  0.00  0.00     0.001 A 
ENDBRANCH   4  13
TORSDOF 1
ENDMDL
MODEL 5
REMARK VINA RESULT:     -10.5      1.586      2.731
REMARK  1 active torsions:
REMARK  status: ('A' for Active; 'I' for Inactive)
REMARK    1  A    between atoms: C_9  and  C_4 
ROOT
ATOM      1  S   UNL d   1      52.413  32.091  53.082  0.00  0.00    -0.085 SA
ATOM      2  N   UNL d   1      53.932  32.041  54.071  0.00  0.00    -0.207 NA
ATOM      3  C   UNL d   1      53.748  32.827  54.138  0.00  0.00     0.280 A 
ATOM      4  C   UNL d   1      52.467  32.870  53.304  0.00  0.00     0.034 A 
ATOM      5  C   UNL d   1      53.072  33.214  53.784  0.00  0.00     0.069 A 
ATOM      6  C   UNL d   1      52.857  31.589  53.255  0.00  0.00     0.047 A 
ATOM      7  C   UNL d   1      53.549  31.555  53.703  0.00  0.00     0.091 A 
ATOM      8  O   UNL d   1      54.257  33.294  54.584  0.00  0.00    -0.265 OA
ATOM      9  C   UNL d   1      52.562  30.909  52.899  0.00  0.00     0.008 A 
ATOM     10  C   UNL d   1      53.946  30.840  53.794  0.00  0.00     0.020 A 
ATOM     11  C   UNL d   1      53.653  30.151  53.436  0.00  0.00     0.002 A 
ATOM     12  C   UNL d   1      52.961  30.185  52.989  0.00  0.00     0.001 A 
ENDROOT
BRANCH   4  13
ATOM     13  C   UNL d   1      51.869  33.375  53.030  0.00  0.00     0.006 A 
ATOM     14  C   UNL d   1      51.148  33.409  53.417  0.00  0.00     0.001 A 
ATOM     15  C   UNL d   1      50.557  33.907  53.147  0.00  0.00     0.000 A 
ATOM     16  C   UNL d   1      50.689  34.378  52.483  0.00  0.00     0.000 A 
ATOM     17  C   UNL d   1      51.422  34.345  52.087  0.00  0.00     0.000 A 
ATOM     18  C   UNL d   1      52.012  33.842  52.363  0.00  0.00     0.001 A 
ENDBRANCH   4  13
TORSDOF 1
ENDMDL
MODEL 6
REMARK VINA RESULT:     -10.3      1.434      3.422
REMARK  1 active torsions:
REMARK  status: ('A' for Active; 'I' for Inactive)
REMARK    1  A    between atoms: C_9  and  C_4 
ROOT
ATOM      1  S   UNL d   1      52.664  32.433  53.276  0.00  0.00    -0.085 SA
ATOM      2  N   UNL d   1      53.812  33.747  53.767  0.00  0.00    -0.207 NA
ATOM      3  C   UNL d   1      54.267  33.097  53.929  0.00  0.00     0.280 A 
ATOM      4  C   UNL d   1      53.299  31.989  53.515  0.00  0.00     0.034 A 
ATOM      5  C   UNL d   1      54.033  32.282  53.814  0.00  0.00     0.069 A 
ATOM      6  C   UNL d   1      52.629  33.125  53.282  0.00  0.00     0.047 A 
ATOM      7  C   UNL d   1      53.144  33.731  53.502  0.00  0.00     0.091 A 
ATOM      8  O   UNL d   1      55.020  33.232  54.231  0.00  0.00    -0.265 OA
ATOM      9  C   UNL d   1      51.881  33.305  52.990  0.00  0.00     0.008 A 
ATOM     10  C   UNL d   1      52.910  34.516  53.432  0.00  0.00     0.020 A 
ATOM     11  C   UNL d   1      52.156  34.703  53.139  0.00  0.00     0.002 A 
ATOM     12  C   UNL d   1      51.641  34.098  52.918  0.00  0.00     0.001 A 
ENDROOT
BRANCH   4  13
ATOM     13  C   UNL d   1      53.216  31.166  53.459  0.00  0.00     0.006 A 
ATOM     14  C   UNL d   1      53.057  30.814  52.736  0.00  0.00     0.001 A 
ATOM     15  C   UNL d   1      52.975  30.002  52.680  0.00  0.00     0.000 A 
ATOM     16  C   UNL d   1      53.052  29.534  53.355  0.00  0.00     0.000 A 
ATOM     17  C   UNL d   1      53.214  29.889  54.092  0.00  0.00     0.000 A 
ATOM     18  C   UNL d   1      53.295  30.707  54.142  0.00  0.00     0.001 A 
ENDBRANCH   4  13
TORSDOF 1
ENDMDL
