MODEL 1
REMARK VINA RESULT:      -8.4      0.000      0.000
REMARK  4 active torsions:
REMARK  status: ('A' for Active; 'I' for Inactive)
REMARK    1  A    between atoms: C_2  and  C_1 
REMARK    2  A    between atoms: N_12  and  C_6 
REMARK    3  A    between atoms: C_16  and  N_12 
REMARK    4  A    between atoms: O_25  and  C_17 
ROOT
ATOM      1  C   UNL d   1      51.617  33.675  52.965  0.00  0.00     0.082 A 
ATOM      2  C   UNL d   1      51.361  34.075  53.642  0.00  0.00     0.302 A 
ATOM      3  C   UNL d   1      51.165  33.708  52.261  0.00  0.00     0.009 A 
ATOM      4  O   UNL d   1      50.656  34.511  53.631  0.00  0.00    -0.273 OA
ATOM      5  C   UNL d   1      50.462  34.144  52.256  0.00  0.00     0.025 A 
ATOM      6  C   UNL d   1      50.204  34.548  52.940  0.00  0.00     0.103 A 
ATOM      7  O   UNL d   1      51.812  34.039  54.336  0.00  0.00    -0.259 OA
ATOM      8  C   UNL d   1      50.015  34.178  51.564  0.00  0.00     0.026 A 
ATOM      9  C   UNL d   1      49.502  34.978  52.919  0.00  0.00     0.027 A 
ATOM     10  C   UNL d   1      49.312  34.613  51.555  0.00  0.00     0.094 A 
ATOM     11  C   UNL d   1      49.057  35.010  52.229  0.00  0.00     0.026 A 
ENDROOT
BRANCH   1  12
ATOM     12  C   UNL d   1      52.317  33.245  52.981  0.00  0.00     0.095 A 
ATOM     13  N   UNL d   1      52.420  32.481  52.711  0.00  0.00    -0.221 NA
ATOM     14  C   UNL d   1      53.204  32.268  52.833  0.00  0.00     0.194 A 
ATOM     15  S   UNL d   1      53.587  32.905  53.181  0.00  0.00    -0.046 SA
ATOM     16  C   UNL d   1      53.035  33.517  53.274  0.00  0.00     0.058 A 
BRANCH  14  17
ATOM     17  N   UNL d   1      53.541  31.543  52.640  0.00  0.00    -0.221 NA
BRANCH  17  18
ATOM     18  C   UNL d   1      53.382  30.884  53.113  0.00  0.00     0.084 A 
ATOM     19  C   UNL d   1      52.812  30.336  52.867  0.00  0.00     0.022 A 
ATOM     20  C   UNL d   1      52.648  29.681  53.328  0.00  0.00     0.044 A 
ATOM     21  C   UNL d   1      53.057  29.575  54.041  0.00  0.00     0.196 A 
ATOM     22  C   UNL d   1      53.626  30.125  54.283  0.00  0.00     0.044 A 
ATOM     23  O   UNL d   1      52.892  28.913  54.508  0.00  0.00    -0.287 OA
ATOM     24  C   UNL d   1      53.783  30.778  53.813  0.00  0.00     0.022 A 
ENDBRANCH  17  18
ENDBRANCH  14  17
ENDBRANCH   1  12
BRANCH  10  25
ATOM     25  O   UNL d   1      48.868  34.646  50.865  0.00  0.00    -0.328 OA
ATOM     26  C   UNL d   1      48.100  34.941  50.884  0.00  0.00     0.181 C 
ENDBRANCH  10  25
TORSDOF 4
ENDMDL
MODEL 2
REMARK VINA RESULT:      -8.1      2.398      3.486
REMARK  4 active torsions:
REMARK  status: ('A' for Active; 'I' for Inactive)
REMARK    1  A    between atoms: C_2  and  C_1 
REMARK    2  A    between atoms: N_12  and  C_6 
REMARK    3  A    between atoms: C_16  and  N_12 
REMARK    4  A    between atoms: O_25  and  C_17 
ROOT
ATOM      1  C   UNL d   1      49.519  34.795  52.536  0.00  0.00     0.082 A 
ATOM      2  C   UNL d   1      49.189  34.809  51.778  0.00  0.00     0.302 A 
ATOM      3  C   UNL d   1      49.130  35.177  53.171  0.00  0.00     0.009 A 
ATOM      4  O   UNL d   1      48.472  35.201  51.640  0.00  0.00    -0.273 OA
ATOM      5  C   UNL d   1      48.415  35.566  53.027  0.00  0.00     0.025 A 
ATOM      6  C   UNL d   1      48.082  35.581  52.262  0.00  0.00     0.103 A 
ATOM      7  O   UNL d   1      49.578  34.430  51.153  0.00  0.00    -0.259 OA
ATOM      8  C   UNL d   1      48.030  35.943  53.652  0.00  0.00     0.026 A 
ATOM      9  C   UNL d   1      47.369  35.973  52.135  0.00  0.00     0.027 A 
ATOM     10  C   UNL d   1      47.315  36.333  53.512  0.00  0.00     0.094 A 
ATOM     11  C   UNL d   1      46.987  36.348  52.758  0.00  0.00     0.026 A 
ENDROOT
BRANCH   1  12
ATOM     12  C   UNL d   1      50.231  34.405  52.668  0.00  0.00     0.095 A 
ATOM     13  N   UNL d   1      50.978  34.722  52.583  0.00  0.00    -0.221 NA
ATOM     14  C   UNL d   1      51.528  34.141  52.772  0.00  0.00     0.194 A 
ATOM     15  S   UNL d   1      51.116  33.461  52.975  0.00  0.00    -0.046 SA
ATOM     16  C   UNL d   1      50.305  33.622  52.911  0.00  0.00     0.058 A 
BRANCH  14  17
ATOM     17  N   UNL d   1      52.345  34.230  52.758  0.00  0.00    -0.221 NA
BRANCH  17  18
ATOM     18  C   UNL d   1      52.757  34.296  53.472  0.00  0.00     0.084 A 
ATOM     19  C   UNL d   1      53.090  33.620  53.812  0.00  0.00     0.022 A 
ATOM     20  C   UNL d   1      53.499  33.676  54.519  0.00  0.00     0.044 A 
ATOM     21  C   UNL d   1      53.573  34.414  54.886  0.00  0.00     0.196 A 
ATOM     22  C   UNL d   1      53.238  35.088  54.542  0.00  0.00     0.044 A 
ATOM     23  O   UNL d   1      53.986  34.473  55.600  0.00  0.00    -0.287 OA
ATOM     24  C   UNL d   1      52.831  35.021  53.834  0.00  0.00     0.022 A 
ENDBRANCH  17  18
ENDBRANCH  14  17
ENDBRANCH   1  12
BRANCH  10  25
ATOM     25  O   UNL d   1      46.932  36.709  54.134  0.00  0.00    -0.328 OA
ATOM     26  C   UNL d   1      46.208  36.425  54.403  0.00  0.00     0.181 C 
ENDBRANCH  10  25
TORSDOF 4
ENDMDL
MODEL 3
REMARK VINA RESULT:      -7.9      1.400      1.931
REMARK  4 active torsions:
REMARK  status: ('A' for Active; 'I' for Inactive)
REMARK    1  A    between atoms: C_2  and  C_1 
REMARK    2  A    between atoms: N_12  and  C_6 
REMARK    3  A    between atoms: C_16  and  N_12 
REMARK    4  A    between atoms: O_25  and  C_17 
ROOT
ATOM      1  C   UNL d   1      50.917  34.445  52.701  0.00  0.00     0.082 A 
ATOM      2  C   UNL d   1      50.845  34.187  51.919  0.00  0.00     0.302 A 
ATOM      3  C   UNL d   1      50.275  34.828  53.078  0.00  0.00     0.009 A 
ATOM      4  O   UNL d   1      50.139  34.304  51.501  0.00  0.00    -0.273 OA
ATOM      5  C   UNL d   1      49.573  34.942  52.656  0.00  0.00     0.025 A 
ATOM      6  C   UNL d   1      49.500  34.682  51.867  0.00  0.00     0.103 A 
ATOM      7  O   UNL d   1      51.483  33.808  51.551  0.00  0.00    -0.259 OA
ATOM      8  C   UNL d   1      48.939  35.320  53.026  0.00  0.00     0.026 A 
ATOM      9  C   UNL d   1      48.795  34.803  51.460  0.00  0.00     0.027 A 
ATOM     10  C   UNL d   1      48.236  35.436  52.608  0.00  0.00     0.094 A 
ATOM     11  C   UNL d   1      48.164  35.179  51.829  0.00  0.00     0.026 A 
ENDROOT
BRANCH   1  12
ATOM     12  C   UNL d   1      51.619  34.326  53.112  0.00  0.00     0.095 A 
ATOM     13  N   UNL d   1      51.808  33.676  53.568  0.00  0.00    -0.221 NA
ATOM     14  C   UNL d   1      52.562  33.787  53.875  0.00  0.00     0.194 A 
ATOM     15  S   UNL d   1      52.840  34.511  53.606  0.00  0.00    -0.046 SA
ATOM     16  C   UNL d   1      52.253  34.850  53.129  0.00  0.00     0.058 A 
BRANCH  14  17
ATOM     17  N   UNL d   1      52.964  33.262  54.365  0.00  0.00    -0.221 NA
BRANCH  17  18
ATOM     18  C   UNL d   1      53.305  32.584  54.038  0.00  0.00     0.084 A 
ATOM     19  C   UNL d   1      52.885  31.871  54.052  0.00  0.00     0.022 A 
ATOM     20  C   UNL d   1      53.215  31.195  53.730  0.00  0.00     0.044 A 
ATOM     21  C   UNL d   1      53.970  31.234  53.393  0.00  0.00     0.196 A 
ATOM     22  C   UNL d   1      54.387  31.949  53.381  0.00  0.00     0.044 A 
ATOM     23  O   UNL d   1      54.305  30.551  53.068  0.00  0.00    -0.287 OA
ATOM     24  C   UNL d   1      54.047  32.620  53.706  0.00  0.00     0.022 A 
ENDBRANCH  17  18
ENDBRANCH  14  17
ENDBRANCH   1  12
BRANCH  10  25
ATOM     25  O   UNL d   1      47.605  35.811  52.976  0.00  0.00    -0.328 OA
ATOM     26  C   UNL d   1      47.216  36.429  52.597  0.00  0.00     0.181 C 
ENDBRANCH  10  25
TORSDOF 4
ENDMDL
MODEL 4
REMARK VINA RESULT:      -7.7      1.824      2.306
REMARK  4 active torsions:
REMARK  status: ('A' for Active; 'I' for Inactive)
REMARK    1  A    between atoms: C_2  and  C_1 
REMARK    2  A    between atoms: N_12  and  C_6 
REMARK    3  A    between atoms: C_16  and  N_12 
REMARK    4  A    between atoms: O_25  and  C_17 
ROOT
ATOM      1  C   UNL d   1      50.235  34.561  52.692  0.00  0.00     0.082 A 
ATOM      2  C   UNL d   1      50.073  35.094  53.303  0.00  0.00     0.302 A 
ATOM      3  C   UNL d   1      49.675  34.441  52.081  0.00  0.00     0.009 A 
ATOM      4  O   UNL d   1      49.357  35.513  53.317  0.00  0.00    -0.273 OA
ATOM      5  C   UNL d   1      48.963  34.861  52.100  0.00  0.00     0.025 A 
ATOM      6  C   UNL d   1      48.800  35.399  52.718  0.00  0.00     0.103 A 
ATOM      7  O   UNL d   1      50.630  35.210  53.905  0.00  0.00    -0.259 OA
ATOM      8  C   UNL d   1      48.410  34.743  51.499  0.00  0.00     0.026 A 
ATOM      9  C   UNL d   1      48.087  35.810  52.723  0.00  0.00     0.027 A 
ATOM     10  C   UNL d   1      47.698  35.161  51.515  0.00  0.00     0.094 A 
ATOM     11  C   UNL d   1      47.537  35.691  52.123  0.00  0.00     0.026 A 
ENDROOT
BRANCH   1  12
ATOM     12  C   UNL d   1      50.945  34.149  52.682  0.00  0.00     0.095 A 
ATOM     13  N   UNL d   1      51.153  33.533  53.177  0.00  0.00    -0.221 NA
ATOM     14  C   UNL d   1      51.909  33.285  52.975  0.00  0.00     0.194 A 
ATOM     15  S   UNL d   1      52.170  33.749  52.350  0.00  0.00    -0.046 SA
ATOM     16  C   UNL d   1      51.569  34.291  52.165  0.00  0.00     0.058 A 
BRANCH  14  17
ATOM     17  N   UNL d   1      52.328  32.676  53.337  0.00  0.00    -0.221 NA
BRANCH  17  18
ATOM     18  C   UNL d   1      53.044  32.847  53.713  0.00  0.00     0.084 A 
ATOM     19  C   UNL d   1      53.756  32.674  53.328  0.00  0.00     0.022 A 
ATOM     20  C   UNL d   1      54.470  32.840  53.692  0.00  0.00     0.044 A 
ATOM     21  C   UNL d   1      54.469  33.180  54.448  0.00  0.00     0.196 A 
ATOM     22  C   UNL d   1      53.755  33.351  54.829  0.00  0.00     0.044 A 
ATOM     23  O   UNL d   1      55.189  33.348  54.817  0.00  0.00    -0.287 OA
ATOM     24  C   UNL d   1      53.046  33.181  54.455  0.00  0.00     0.022 A 
ENDBRANCH  17  18
ENDBRANCH  14  17
ENDBRANCH   1  12
BRANCH  10  25
ATOM     25  O   UNL d   1      47.148  35.044  50.916  0.00  0.00    -0.328 OA
ATOM     26  C   UNL d   1      46.396  35.372  50.977  0.00  0.00     0.181 C 
ENDBRANCH  10  25
TORSDOF 4
ENDMDL
MODEL 5
REMARK VINA RESULT:      -7.3      1.386      5.110
REMARK  4 active torsions:
REMARK  status: ('A' for Active; 'I' for Inactive)
REMARK    1  A    between atoms: C_2  and  C_1 
REMARK    2  A    between atoms: N_12  and  C_6 
REMARK    3  A    between atoms: C_16  and  N_12 
REMARK    4  A    between atoms: O_25  and  C_17 
ROOT
ATOM      1  C   UNL d   1      53.537  32.377  53.742  0.00  0.00     0.082 A 
ATOM      2  C   UNL d   1      54.251  32.259  53.342  0.00  0.00     0.302 A 
ATOM      3  C   UNL d   1      53.107  31.721  54.035  0.00  0.00     0.009 A 
ATOM      4  O   UNL d   1      54.547  31.493  53.228  0.00  0.00    -0.273 OA
ATOM      5  C   UNL d   1      53.407  30.959  53.919  0.00  0.00     0.025 A 
ATOM      6  C   UNL d   1      54.128  30.841  53.515  0.00  0.00     0.103 A 
ATOM      7  O   UNL d   1      54.673  32.911  53.054  0.00  0.00    -0.259 OA
ATOM      8  C   UNL d   1      52.985  30.312  54.207  0.00  0.00     0.026 A 
ATOM      9  C   UNL d   1      54.414  30.076  53.407  0.00  0.00     0.027 A 
ATOM     10  C   UNL d   1      53.281  29.550  54.092  0.00  0.00     0.094 A 
ATOM     11  C   UNL d   1      53.992  29.432  53.694  0.00  0.00     0.026 A 
ENDROOT
BRANCH   1  12
ATOM     12  C   UNL d   1      53.247  33.138  53.852  0.00  0.00     0.095 A 
ATOM     13  N   UNL d   1      52.791  33.562  53.324  0.00  0.00    -0.221 NA
ATOM     14  C   UNL d   1      52.626  34.294  53.658  0.00  0.00     0.194 A 
ATOM     15  S   UNL d   1      52.982  34.322  54.397  0.00  0.00    -0.046 SA
ATOM     16  C   UNL d   1      53.371  33.600  54.521  0.00  0.00     0.058 A 
BRANCH  14  17
ATOM     17  N   UNL d   1      52.181  34.892  53.309  0.00  0.00    -0.221 NA
BRANCH  17  18
ATOM     18  C   UNL d   1      51.471  34.700  52.932  0.00  0.00     0.084 A 
ATOM     19  C   UNL d   1      51.481  34.489  52.132  0.00  0.00     0.022 A 
ATOM     20  C   UNL d   1      50.783  34.298  51.751  0.00  0.00     0.044 A 
ATOM     21  C   UNL d   1      50.071  34.318  52.174  0.00  0.00     0.196 A 
ATOM     22  C   UNL d   1      50.066  34.530  52.973  0.00  0.00     0.044 A 
ATOM     23  O   UNL d   1      49.365  34.125  51.790  0.00  0.00    -0.287 OA
ATOM     24  C   UNL d   1      50.771  34.720  53.346  0.00  0.00     0.022 A 
ENDBRANCH  17  18
ENDBRANCH  14  17
ENDBRANCH   1  12
BRANCH  10  25
ATOM     25  O   UNL d   1      52.860  28.906  54.380  0.00  0.00    -0.328 OA
ATOM     26  C   UNL d   1      53.185  28.430  54.967  0.00  0.00     0.181 C 
ENDBRANCH  10  25
TORSDOF 4
ENDMDL
MODEL 6
REMARK VINA RESULT:      -7.2      2.030      5.373
REMARK  4 active torsions:
REMARK  status: ('A' for Active; 'I' for Inactive)
REMARK    1  A    between atoms: C_2  and  C_1 
REMARK    2  A    between atoms: N_12  and  C_6 
REMARK    3  A    between atoms: C_16  and  N_12 
REMARK    4  A    between atoms: O_25  and  C_17 
ROOT
ATOM      1  C   UNL d   1      52.197  33.395  53.139  0.00  0.00     0.082 A 
ATOM      2  C   UNL d   1      52.380  32.593  53.054  0.00  0.00     0.302 A 
ATOM      3  C   UNL d   1      52.641  33.874  53.663  0.00  0.00     0.009 A 
ATOM      4  O   UNL d   1      53.003  32.257  53.485  0.00  0.00    -0.273 OA
ATOM      5  C   UNL d   1      53.262  33.533  54.090  0.00  0.00     0.025 A 
ATOM      6  C   UNL d   1      53.446  32.723  54.003  0.00  0.00     0.103 A 
ATOM      7  O   UNL d   1      51.937  32.124  52.535  0.00  0.00    -0.259 OA
ATOM      8  C   UNL d   1      53.701  34.003  54.606  0.00  0.00     0.026 A 
ATOM      9  C   UNL d   1      54.067  32.398  54.435  0.00  0.00     0.027 A 
ATOM     10  C   UNL d   1      54.322  33.666  55.034  0.00  0.00     0.094 A 
ATOM     11  C   UNL d   1      54.504  32.867  54.949  0.00  0.00     0.026 A 
ENDROOT
BRANCH   1  12
ATOM     12  C   UNL d   1      51.578  33.725  52.710  0.00  0.00     0.095 A 
ATOM     13  N   UNL d   1      50.782  33.598  52.838  0.00  0.00    -0.221 NA
ATOM     14  C   UNL d   1      50.360  34.035  52.284  0.00  0.00     0.194 A 
ATOM     15  S   UNL d   1      50.900  34.433  51.812  0.00  0.00    -0.046 SA
ATOM     16  C   UNL d   1      51.663  34.241  52.076  0.00  0.00     0.058 A 
BRANCH  14  17
ATOM     17  N   UNL d   1      49.541  34.065  52.217  0.00  0.00    -0.221 NA
BRANCH  17  18
ATOM     18  C   UNL d   1      49.136  34.728  52.500  0.00  0.00     0.084 A 
ATOM     19  C   UNL d   1      48.670  35.171  51.978  0.00  0.00     0.022 A 
ATOM     20  C   UNL d   1      48.267  35.829  52.248  0.00  0.00     0.044 A 
ATOM     21  C   UNL d   1      48.330  36.044  53.046  0.00  0.00     0.196 A 
ATOM     22  C   UNL d   1      48.797  35.599  53.563  0.00  0.00     0.044 A 
ATOM     23  O   UNL d   1      47.922  36.709  53.320  0.00  0.00    -0.287 OA
ATOM     24  C   UNL d   1      49.197  34.941  53.282  0.00  0.00     0.022 A 
ENDBRANCH  17  18
ENDBRANCH  14  17
ENDBRANCH   1  12
BRANCH  10  25
ATOM     25  O   UNL d   1      54.759  34.134  55.548  0.00  0.00    -0.328 OA
ATOM     26  C   UNL d   1      55.579  34.160  55.486  0.00  0.00     0.181 C 
ENDBRANCH  10  25
TORSDOF 4
ENDMDL
