MODEL 1
REMARK VINA RESULT:      43.3      0.000      0.000
REMARK  5 active torsions:
REMARK  status: ('A' for Active; 'I' for Inactive)
REMARK    1  A    between atoms: C_2  and  C_1 
REMARK    2  A    between atoms: O_16  and  C_13 
REMARK    3  A    between atoms: C_21  and  O_16 
REMARK    4  A    between atoms: O_22  and  C_17 
REMARK    5  A    between atoms: C_20  and  C_21 
ROOT
ATOM      1  C   UNL d   1      13.379  12.707  -3.435  0.00  0.00     0.030 A 
ATOM      2  C   UNL d   1      13.448  13.497  -3.663  0.00  0.00     0.027 A 
ATOM      3  C   UNL d   1      13.290  13.712  -4.445  0.00  0.00     0.103 A 
ATOM      4  O   UNL d   1      13.065  13.142  -4.996  0.00  0.00    -0.273 OA
ATOM      5  C   UNL d   1      12.996  12.353  -4.769  0.00  0.00     0.300 A 
ATOM      6  C   UNL d   1      13.154  12.138  -3.987  0.00  0.00     0.071 A 
ATOM      7  C   UNL d   1      13.674  14.079  -3.114  0.00  0.00     0.027 A 
ATOM      8  C   UNL d   1      13.738  14.857  -3.355  0.00  0.00     0.100 A 
ATOM      9  C   UNL d   1      13.358  14.504  -4.678  0.00  0.00     0.027 A 
ATOM     10  C   UNL d   1      13.581  15.077  -4.135  0.00  0.00     0.025 A 
ATOM     11  O   UNL d   1      12.773  11.779  -5.311  0.00  0.00    -0.259 OA
ATOM     12  C   UNL d   1      13.647  15.857  -4.365  0.00  0.00     0.002 C 
ENDROOT
BRANCH   1  13
ATOM     13  C   UNL d   1      13.538  12.498  -2.653  0.00  0.00     0.100 A 
ATOM     14  O   UNL d   1      14.291  12.436  -2.318  0.00  0.00    -0.305 OA
ATOM     15  C   UNL d   1      14.204  12.215  -1.530  0.00  0.00     0.122 A 
ATOM     16  C   UNL d   1      14.749  12.072  -0.932  0.00  0.00     0.117 A 
ATOM     17  C   UNL d   1      13.397  12.140  -1.374  0.00  0.00     0.027 A 
ATOM     18  C   UNL d   1      14.496  11.856  -0.185  0.00  0.00     0.026 A 
ATOM     19  C   UNL d   1      13.691  11.779  -0.023  0.00  0.00     0.002 A 
ATOM     20  C   UNL d   1      13.140  11.922  -0.621  0.00  0.00     0.002 A 
ATOM     21  C   UNL d   1      12.987  12.315  -2.067  0.00  0.00     0.027 A 
BRANCH  16  22
ATOM     22  O   UNL d   1      15.545  12.146  -1.085  0.00  0.00    -0.326 OA
ATOM     23  C   UNL d   1      16.087  12.159  -0.463  0.00  0.00     0.181 C 
ENDBRANCH  16  22
ENDBRANCH   1  13
BRANCH   8  24
ATOM     24  O   UNL d   1      13.964  15.431  -2.802  0.00  0.00    -0.302 OA
BRANCH  24  25
ATOM     25  C   UNL d   1      14.695  15.372  -2.423  0.00  0.00     0.165 C 
BRANCH  25  26
ATOM     26  C   UNL d   1      14.906  15.916  -1.845  0.00  0.00     0.220 C 
ATOM     27  O   UNL d   1      14.859  16.724  -2.007  0.00  0.00    -0.284 OA
ATOM     28  C   UNL d   1      15.161  15.667  -1.118  0.00  0.00     0.048 C 
ENDBRANCH  25  26
ENDBRANCH  24  25
ENDBRANCH   8  24
TORSDOF 5
ENDMDL
