MODEL 1
REMARK VINA RESULT:      -8.7      0.000      0.000
REMARK  8 active torsions:
REMARK  status: ('A' for Active; 'I' for Inactive)
REMARK    1  A    between atoms: C_2  and  P_1 
REMARK    2  A    between atoms: O_4  and  P_1 
REMARK    3  A    between atoms: C_5  and  P_1 
REMARK    4  A    between atoms: C_3  and  C_2 
REMARK    5  A    between atoms: C_20  and  O_4 
REMARK    6  A    between atoms: O_19  and  C_8 
REMARK    7  A    between atoms: N_11  and  C_9 
REMARK    8  A    between atoms: O_21  and  C_10 
ROOT
ATOM      1  P   UNL d   1      52.930  32.845  53.611  0.00  0.00     0.307 P 
ATOM      2  O   UNL d   1      52.963  33.410  54.209  0.00  0.00    -0.277 OA
ENDROOT
BRANCH   1   3
ATOM      3  C   UNL d   1      52.897  32.281  53.013  0.00  0.00     0.253 C 
ATOM      4  O   UNL d   1      52.863  32.510  52.214  0.00  0.00    -0.281 OA
BRANCH   3   5
ATOM      5  C   UNL d   1      52.897  31.471  53.199  0.00  0.00     0.046 A 
ATOM      6  C   UNL d   1      52.207  31.101  53.452  0.00  0.00     0.030 A 
ATOM      7  C   UNL d   1      52.213  30.304  53.633  0.00  0.00     0.116 A 
ATOM      8  C   UNL d   1      52.908  29.853  53.568  0.00  0.00     0.116 A 
ATOM      9  C   UNL d   1      53.608  30.228  53.312  0.00  0.00     0.026 A 
ATOM     10  C   UNL d   1      53.600  31.038  53.128  0.00  0.00     0.005 A 
BRANCH   7  11
ATOM     11  O   UNL d   1      51.522  29.938  53.885  0.00  0.00    -0.326 OA
ATOM     12  C   UNL d   1      50.843  29.975  53.419  0.00  0.00     0.181 C 
ENDBRANCH   7  11
BRANCH   8  13
ATOM     13  O   UNL d   1      52.917  29.052  53.750  0.00  0.00    -0.326 OA
ATOM     14  C   UNL d   1      53.503  28.763  54.250  0.00  0.00     0.181 C 
ENDBRANCH   8  13
ENDBRANCH   3   5
ENDBRANCH   1   3
BRANCH   1  15
ATOM     15  O   UNL d   1      53.600  32.482  53.918  0.00  0.00    -0.281 OA
BRANCH  15  16
ATOM     16  C   UNL d   1      54.140  32.914  54.359  0.00  0.00     0.101 A 
ATOM     17  C   UNL d   1      54.066  32.951  55.185  0.00  0.00     0.025 A 
ATOM     18  C   UNL d   1      54.603  33.380  55.625  0.00  0.00     0.002 A 
ATOM     19  C   UNL d   1      55.218  33.778  55.253  0.00  0.00     0.000 A 
ATOM     20  C   UNL d   1      55.298  33.746  54.434  0.00  0.00     0.002 A 
ATOM     21  C   UNL d   1      54.753  33.309  53.985  0.00  0.00     0.025 A 
ENDBRANCH  15  16
ENDBRANCH   1  15
BRANCH   1  22
ATOM     22  C   UNL d   1      52.253  33.213  53.301  0.00  0.00     0.061 A 
ATOM     23  C   UNL d   1      51.545  33.190  53.724  0.00  0.00     0.007 A 
ATOM     24  C   UNL d   1      50.864  33.558  53.414  0.00  0.00     0.018 A 
ATOM     25  C   UNL d   1      50.896  33.943  52.691  0.00  0.00     0.064 A 
ATOM     26  C   UNL d   1      51.611  33.963  52.271  0.00  0.00     0.018 A 
ATOM     27  C   UNL d   1      52.292  33.594  52.581  0.00  0.00     0.007 A 
BRANCH  25  28
ATOM     28  N   UNL d   1      50.222  34.309  52.384  0.00  0.00    -0.301 N 
ATOM     29  C   UNL d   1      50.015  34.195  51.596  0.00  0.00     0.100 C 
ATOM     30  C   UNL d   1      49.759  34.787  52.870  0.00  0.00     0.100 C 
ENDBRANCH  25  28
ENDBRANCH   1  22
TORSDOF 8
ENDMDL
MODEL 2
REMARK VINA RESULT:      -8.7      1.048      3.200
REMARK  8 active torsions:
REMARK  status: ('A' for Active; 'I' for Inactive)
REMARK    1  A    between atoms: C_2  and  P_1 
REMARK    2  A    between atoms: O_4  and  P_1 
REMARK    3  A    between atoms: C_5  and  P_1 
REMARK    4  A    between atoms: C_3  and  C_2 
REMARK    5  A    between atoms: C_20  and  O_4 
REMARK    6  A    between atoms: O_19  and  C_8 
REMARK    7  A    between atoms: N_11  and  C_9 
REMARK    8  A    between atoms: O_21  and  C_10 
ROOT
ATOM      1  P   UNL d   1      52.519  32.463  53.206  0.00  0.00     0.307 P 
ATOM      2  O   UNL d   1      51.994  31.846  53.356  0.00  0.00    -0.277 OA
ENDROOT
BRANCH   1   3
ATOM      3  C   UNL d   1      53.043  33.078  53.056  0.00  0.00     0.253 C 
ATOM      4  O   UNL d   1      53.095  33.416  52.297  0.00  0.00    -0.281 OA
BRANCH   3   5
ATOM      5  C   UNL d   1      53.529  33.373  53.661  0.00  0.00     0.046 A 
ATOM      6  C   UNL d   1      53.243  33.938  54.188  0.00  0.00     0.030 A 
ATOM      7  C   UNL d   1      53.726  34.224  54.782  0.00  0.00     0.116 A 
ATOM      8  C   UNL d   1      54.508  33.956  54.868  0.00  0.00     0.116 A 
ATOM      9  C   UNL d   1      54.798  33.384  54.335  0.00  0.00     0.026 A 
ATOM     10  C   UNL d   1      54.306  33.094  53.732  0.00  0.00     0.005 A 
BRANCH   7  11
ATOM     11  O   UNL d   1      53.437  34.788  55.306  0.00  0.00    -0.326 OA
ATOM     12  C   UNL d   1      53.113  35.489  55.018  0.00  0.00     0.181 C 
ENDBRANCH   7  11
BRANCH   8  13
ATOM     13  O   UNL d   1      54.995  34.243  55.464  0.00  0.00    -0.326 OA
ATOM     14  C   UNL d   1      55.756  33.940  55.538  0.00  0.00     0.181 C 
ENDBRANCH   8  13
ENDBRANCH   3   5
ENDBRANCH   1   3
BRANCH   1  15
ATOM     15  O   UNL d   1      53.149  31.971  53.396  0.00  0.00    -0.281 OA
BRANCH  15  16
ATOM     16  C   UNL d   1      53.072  31.157  53.338  0.00  0.00     0.101 A 
ATOM     17  C   UNL d   1      53.028  30.694  54.025  0.00  0.00     0.025 A 
ATOM     18  C   UNL d   1      52.951  29.883  53.969  0.00  0.00     0.002 A 
ATOM     19  C   UNL d   1      52.917  29.522  53.231  0.00  0.00     0.000 A 
ATOM     20  C   UNL d   1      52.960  29.974  52.545  0.00  0.00     0.002 A 
ATOM     21  C   UNL d   1      53.038  30.799  52.601  0.00  0.00     0.025 A 
ENDBRANCH  15  16
ENDBRANCH   1  15
BRANCH   1  22
ATOM     22  C   UNL d   1      51.881  32.958  53.013  0.00  0.00     0.061 A 
ATOM     23  C   UNL d   1      51.235  33.012  53.524  0.00  0.00     0.007 A 
ATOM     24  C   UNL d   1      50.594  33.509  53.332  0.00  0.00     0.018 A 
ATOM     25  C   UNL d   1      50.604  33.946  52.637  0.00  0.00     0.064 A 
ATOM     26  C   UNL d   1      51.256  33.888  52.128  0.00  0.00     0.018 A 
ATOM     27  C   UNL d   1      51.898  33.389  52.321  0.00  0.00     0.007 A 
BRANCH  25  28
ATOM     28  N   UNL d   1      49.969  34.439  52.447  0.00  0.00    -0.301 N 
ATOM     29  C   UNL d   1      49.649  34.424  51.689  0.00  0.00     0.100 C 
ATOM     30  C   UNL d   1      49.659  34.945  53.018  0.00  0.00     0.100 C 
ENDBRANCH  25  28
ENDBRANCH   1  22
TORSDOF 8
ENDMDL
MODEL 3
REMARK VINA RESULT:      -6.6      1.594      3.686
REMARK  8 active torsions:
REMARK  status: ('A' for Active; 'I' for Inactive)
REMARK    1  A    between atoms: C_2  and  P_1 
REMARK    2  A    between atoms: O_4  and  P_1 
REMARK    3  A    between atoms: C_5  and  P_1 
REMARK    4  A    between atoms: C_3  and  C_2 
REMARK    5  A    between atoms: C_20  and  O_4 
REMARK    6  A    between atoms: O_19  and  C_8 
REMARK    7  A    between atoms: N_11  and  C_9 
REMARK    8  A    between atoms: O_21  and  C_10 
ROOT
ATOM      1  P   UNL d   1      53.541  32.353  53.914  0.00  0.00     0.307 P 
ATOM      2  O   UNL d   1      53.931  32.274  54.634  0.00  0.00    -0.277 OA
ENDROOT
BRANCH   1   3
ATOM      3  C   UNL d   1      53.150  32.433  53.195  0.00  0.00     0.253 C 
ATOM      4  O   UNL d   1      53.433  32.047  52.514  0.00  0.00    -0.281 OA
BRANCH   3   5
ATOM      5  C   UNL d   1      52.466  32.900  53.137  0.00  0.00     0.046 A 
ATOM      6  C   UNL d   1      52.430  33.522  52.599  0.00  0.00     0.030 A 
ATOM      7  C   UNL d   1      51.754  33.978  52.546  0.00  0.00     0.116 A 
ATOM      8  C   UNL d   1      51.094  33.829  53.030  0.00  0.00     0.116 A 
ATOM      9  C   UNL d   1      51.131  33.200  53.576  0.00  0.00     0.026 A 
ATOM     10  C   UNL d   1      51.818  32.736  53.628  0.00  0.00     0.005 A 
BRANCH   7  11
ATOM     11  O   UNL d   1      51.721  34.598  52.007  0.00  0.00    -0.326 OA
ATOM     12  C   UNL d   1      51.753  34.442  51.198  0.00  0.00     0.181 C 
ENDBRANCH   7  11
BRANCH   8  13
ATOM     13  O   UNL d   1      50.415  34.287  52.979  0.00  0.00    -0.326 OA
ATOM     14  C   UNL d   1      49.913  34.330  53.630  0.00  0.00     0.181 C 
ENDBRANCH   8  13
ENDBRANCH   3   5
ENDBRANCH   1   3
BRANCH   1  15
ATOM     15  O   UNL d   1      53.662  33.166  53.939  0.00  0.00    -0.281 OA
BRANCH  15  16
ATOM     16  C   UNL d   1      54.292  33.478  54.361  0.00  0.00     0.101 A 
ATOM     17  C   UNL d   1      54.176  33.757  55.134  0.00  0.00     0.025 A 
ATOM     18  C   UNL d   1      54.802  34.068  55.556  0.00  0.00     0.002 A 
ATOM     19  C   UNL d   1      55.550  34.106  55.216  0.00  0.00     0.000 A 
ATOM     20  C   UNL d   1      55.673  33.830  54.451  0.00  0.00     0.002 A 
ATOM     21  C   UNL d   1      55.037  33.514  54.021  0.00  0.00     0.025 A 
ENDBRANCH  15  16
ENDBRANCH   1  15
BRANCH   1  22
ATOM     22  C   UNL d   1      53.419  31.532  53.890  0.00  0.00     0.061 A 
ATOM     23  C   UNL d   1      53.080  31.149  54.537  0.00  0.00     0.007 A 
ATOM     24  C   UNL d   1      52.957  30.325  54.514  0.00  0.00     0.018 A 
ATOM     25  C   UNL d   1      53.171  29.894  53.850  0.00  0.00     0.064 A 
ATOM     26  C   UNL d   1      53.511  30.285  53.202  0.00  0.00     0.018 A 
ATOM     27  C   UNL d   1      53.634  31.111  53.226  0.00  0.00     0.007 A 
BRANCH  25  28
ATOM     28  N   UNL d   1      53.050  29.077  53.826  0.00  0.00    -0.301 N 
ATOM     29  C   UNL d   1      52.599  28.745  53.223  0.00  0.00     0.100 C 
ATOM     30  C   UNL d   1      53.380  28.597  54.409  0.00  0.00     0.100 C 
ENDBRANCH  25  28
ENDBRANCH   1  22
TORSDOF 8
ENDMDL
MODEL 4
REMARK VINA RESULT:      -6.6      1.498      4.161
REMARK  8 active torsions:
REMARK  status: ('A' for Active; 'I' for Inactive)
REMARK    1  A    between atoms: C_2  and  P_1 
REMARK    2  A    between atoms: O_4  and  P_1 
REMARK    3  A    between atoms: C_5  and  P_1 
REMARK    4  A    between atoms: C_3  and  C_2 
REMARK    5  A    between atoms: C_20  and  O_4 
REMARK    6  A    between atoms: O_19  and  C_8 
REMARK    7  A    between atoms: N_11  and  C_9 
REMARK    8  A    between atoms: O_21  and  C_10 
ROOT
ATOM      1  P   UNL d   1      53.023  32.161  53.535  0.00  0.00     0.307 P 
ATOM      2  O   UNL d   1      53.121  31.526  54.049  0.00  0.00    -0.277 OA
ENDROOT
BRANCH   1   3
ATOM      3  C   UNL d   1      52.924  32.796  53.022  0.00  0.00     0.253 C 
ATOM      4  O   UNL d   1      53.545  33.040  52.525  0.00  0.00    -0.281 OA
BRANCH   3   5
ATOM      5  C   UNL d   1      52.201  33.204  52.992  0.00  0.00     0.046 A 
ATOM      6  C   UNL d   1      51.908  33.480  52.274  0.00  0.00     0.030 A 
ATOM      7  C   UNL d   1      51.196  33.881  52.250  0.00  0.00     0.116 A 
ATOM      8  C   UNL d   1      50.755  34.019  52.942  0.00  0.00     0.116 A 
ATOM      9  C   UNL d   1      51.053  33.739  53.669  0.00  0.00     0.026 A 
ATOM     10  C   UNL d   1      51.776  33.332  53.692  0.00  0.00     0.005 A 
BRANCH   7  11
ATOM     11  O   UNL d   1      50.906  34.156  51.532  0.00  0.00    -0.326 OA
ATOM     12  C   UNL d   1      51.413  34.527  50.998  0.00  0.00     0.181 C 
ENDBRANCH   7  11
BRANCH   8  13
ATOM     13  O   UNL d   1      50.040  34.422  52.920  0.00  0.00    -0.326 OA
ATOM     14  C   UNL d   1      49.808  34.859  53.578  0.00  0.00     0.181 C 
ENDBRANCH   8  13
ENDBRANCH   3   5
ENDBRANCH   1   3
BRANCH   1  15
ATOM     15  O   UNL d   1      52.460  31.734  53.115  0.00  0.00    -0.281 OA
BRANCH  15  16
ATOM     16  C   UNL d   1      52.497  30.915  53.088  0.00  0.00     0.101 A 
ATOM     17  C   UNL d   1      52.059  30.461  53.627  0.00  0.00     0.025 A 
ATOM     18  C   UNL d   1      52.096  29.646  53.601  0.00  0.00     0.002 A 
ATOM     19  C   UNL d   1      52.566  29.272  53.040  0.00  0.00     0.000 A 
ATOM     20  C   UNL d   1      53.004  29.715  52.502  0.00  0.00     0.002 A 
ATOM     21  C   UNL d   1      52.967  30.545  52.528  0.00  0.00     0.025 A 
ENDBRANCH  15  16
ENDBRANCH   1  15
BRANCH   1  22
ATOM     22  C   UNL d   1      53.591  32.592  53.959  0.00  0.00     0.061 A 
ATOM     23  C   UNL d   1      53.481  32.734  54.764  0.00  0.00     0.007 A 
ATOM     24  C   UNL d   1      54.052  33.167  55.191  0.00  0.00     0.018 A 
ATOM     25  C   UNL d   1      54.722  33.452  54.814  0.00  0.00     0.064 A 
ATOM     26  C   UNL d   1      54.827  33.306  54.004  0.00  0.00     0.018 A 
ATOM     27  C   UNL d   1      54.255  32.873  53.577  0.00  0.00     0.007 A 
BRANCH  25  28
ATOM     28  N   UNL d   1      55.287  33.881  55.237  0.00  0.00    -0.301 N 
ATOM     29  C   UNL d   1      55.939  34.198  54.848  0.00  0.00     0.100 C 
ATOM     30  C   UNL d   1      55.195  33.989  56.049  0.00  0.00     0.100 C 
ENDBRANCH  25  28
ENDBRANCH   1  22
TORSDOF 8
ENDMDL
MODEL 5
REMARK VINA RESULT:      -6.4      1.661      4.461
REMARK  8 active torsions:
REMARK  status: ('A' for Active; 'I' for Inactive)
REMARK    1  A    between atoms: C_2  and  P_1 
REMARK    2  A    between atoms: O_4  and  P_1 
REMARK    3  A    between atoms: C_5  and  P_1 
REMARK    4  A    between atoms: C_3  and  C_2 
REMARK    5  A    between atoms: C_20  and  O_4 
REMARK    6  A    between atoms: O_19  and  C_8 
REMARK    7  A    between atoms: N_11  and  C_9 
REMARK    8  A    between atoms: O_21  and  C_10 
ROOT
ATOM      1  P   UNL d   1      51.844  33.225  52.908  0.00  0.00     0.307 P 
ATOM      2  O   UNL d   1      51.069  32.948  52.898  0.00  0.00    -0.277 OA
ENDROOT
BRANCH   1   3
ATOM      3  C   UNL d   1      52.618  33.503  52.917  0.00  0.00     0.253 C 
ATOM      4  O   UNL d   1      53.169  33.243  52.351  0.00  0.00    -0.281 OA
BRANCH   3   5
ATOM      5  C   UNL d   1      52.862  34.048  53.495  0.00  0.00     0.046 A 
ATOM      6  C   UNL d   1      53.220  33.788  54.189  0.00  0.00     0.030 A 
ATOM      7  C   UNL d   1      53.458  34.329  54.753  0.00  0.00     0.116 A 
ATOM      8  C   UNL d   1      53.346  35.146  54.642  0.00  0.00     0.116 A 
ATOM      9  C   UNL d   1      52.983  35.409  53.939  0.00  0.00     0.026 A 
ATOM     10  C   UNL d   1      52.742  34.858  53.366  0.00  0.00     0.005 A 
BRANCH   7  11
ATOM     11  O   UNL d   1      53.815  34.066  55.446  0.00  0.00    -0.326 OA
ATOM     12  C   UNL d   1      54.455  33.548  55.407  0.00  0.00     0.181 C 
ENDBRANCH   7  11
BRANCH   8  13
ATOM     13  O   UNL d   1      53.584  35.691  55.208  0.00  0.00    -0.326 OA
ATOM     14  C   UNL d   1      53.327  36.470  55.145  0.00  0.00     0.181 C 
ENDBRANCH   8  13
ENDBRANCH   3   5
ENDBRANCH   1   3
BRANCH   1  15
ATOM     15  O   UNL d   1      51.568  33.994  52.815  0.00  0.00    -0.281 OA
BRANCH  15  16
ATOM     16  C   UNL d   1      50.855  34.136  52.436  0.00  0.00     0.101 A 
ATOM     17  C   UNL d   1      50.172  34.291  52.881  0.00  0.00     0.025 A 
ATOM     18  C   UNL d   1      49.461  34.432  52.505  0.00  0.00     0.002 A 
ATOM     19  C   UNL d   1      49.419  34.421  51.684  0.00  0.00     0.000 A 
ATOM     20  C   UNL d   1      50.093  34.269  51.235  0.00  0.00     0.002 A 
ATOM     21  C   UNL d   1      50.817  34.125  51.617  0.00  0.00     0.025 A 
ENDBRANCH  15  16
ENDBRANCH   1  15
BRANCH   1  22
ATOM     22  C   UNL d   1      52.121  32.449  53.002  0.00  0.00     0.061 A 
ATOM     23  C   UNL d   1      51.791  31.964  53.582  0.00  0.00     0.007 A 
ATOM     24  C   UNL d   1      52.069  31.183  53.677  0.00  0.00     0.018 A 
ATOM     25  C   UNL d   1      52.668  30.896  53.196  0.00  0.00     0.064 A 
ATOM     26  C   UNL d   1      52.995  31.389  52.615  0.00  0.00     0.018 A 
ATOM     27  C   UNL d   1      52.717  32.171  52.520  0.00  0.00     0.007 A 
BRANCH  25  28
ATOM     28  N   UNL d   1      52.943  30.123  53.291  0.00  0.00    -0.301 N 
ATOM     29  C   UNL d   1      53.605  29.975  53.758  0.00  0.00     0.100 C 
ATOM     30  C   UNL d   1      52.553  29.501  52.915  0.00  0.00     0.100 C 
ENDBRANCH  25  28
ENDBRANCH   1  22
TORSDOF 8
ENDMDL
MODEL 6
REMARK VINA RESULT:      -6.2      1.362      3.281
REMARK  8 active torsions:
REMARK  status: ('A' for Active; 'I' for Inactive)
REMARK    1  A    between atoms: C_2  and  P_1 
REMARK    2  A    between atoms: O_4  and  P_1 
REMARK    3  A    between atoms: C_5  and  P_1 
REMARK    4  A    between atoms: C_3  and  C_2 
REMARK    5  A    between atoms: C_20  and  O_4 
REMARK    6  A    between atoms: O_19  and  C_8 
REMARK    7  A    between atoms: N_11  and  C_9 
REMARK    8  A    between atoms: O_21  and  C_10 
ROOT
ATOM      1  P   UNL d   1      52.784  32.872  53.594  0.00  0.00     0.307 P 
ATOM      2  O   UNL d   1      52.318  33.465  53.924  0.00  0.00    -0.277 OA
ENDROOT
BRANCH   1   3
ATOM      3  C   UNL d   1      53.248  32.279  53.264  0.00  0.00     0.253 C 
ATOM      4  O   UNL d   1      53.828  32.461  52.696  0.00  0.00    -0.281 OA
BRANCH   3   5
ATOM      5  C   UNL d   1      53.145  31.487  53.494  0.00  0.00     0.046 A 
ATOM      6  C   UNL d   1      52.953  30.913  52.936  0.00  0.00     0.030 A 
ATOM      7  C   UNL d   1      52.853  30.136  53.168  0.00  0.00     0.116 A 
ATOM      8  C   UNL d   1      52.941  29.908  53.963  0.00  0.00     0.116 A 
ATOM      9  C   UNL d   1      53.135  30.490  54.528  0.00  0.00     0.026 A 
ATOM     10  C   UNL d   1      53.237  31.279  54.291  0.00  0.00     0.005 A 
BRANCH   7  11
ATOM     11  O   UNL d   1      52.662  29.564  52.609  0.00  0.00    -0.326 OA
ATOM     12  C   UNL d   1      52.991  29.602  51.854  0.00  0.00     0.181 C 
ENDBRANCH   7  11
BRANCH   8  13
ATOM     13  O   UNL d   1      52.841  29.128  54.198  0.00  0.00    -0.326 OA
ATOM     14  C   UNL d   1      53.277  28.843  54.835  0.00  0.00     0.181 C 
ENDBRANCH   8  13
ENDBRANCH   3   5
ENDBRANCH   1   3
BRANCH   1  15
ATOM     15  O   UNL d   1      52.134  32.599  53.171  0.00  0.00    -0.281 OA
BRANCH  15  16
ATOM     16  C   UNL d   1      51.557  33.122  52.914  0.00  0.00     0.101 A 
ATOM     17  C   UNL d   1      50.831  33.169  53.314  0.00  0.00     0.025 A 
ATOM     18  C   UNL d   1      50.256  33.689  53.060  0.00  0.00     0.002 A 
ATOM     19  C   UNL d   1      50.393  34.170  52.407  0.00  0.00     0.000 A 
ATOM     20  C   UNL d   1      51.111  34.129  52.005  0.00  0.00     0.002 A 
ATOM     21  C   UNL d   1      51.697  33.600  52.263  0.00  0.00     0.025 A 
ENDBRANCH  15  16
ENDBRANCH   1  15
BRANCH   1  22
ATOM     22  C   UNL d   1      53.439  33.148  54.021  0.00  0.00     0.061 A 
ATOM     23  C   UNL d   1      53.358  33.333  54.821  0.00  0.00     0.007 A 
ATOM     24  C   UNL d   1      54.017  33.610  55.251  0.00  0.00     0.018 A 
ATOM     25  C   UNL d   1      54.743  33.701  54.882  0.00  0.00     0.064 A 
ATOM     26  C   UNL d   1      54.818  33.513  54.078  0.00  0.00     0.018 A 
ATOM     27  C   UNL d   1      54.159  33.235  53.647  0.00  0.00     0.007 A 
BRANCH  25  28
ATOM     28  N   UNL d   1      55.395  33.976  55.308  0.00  0.00    -0.301 N 
ATOM     29  C   UNL d   1      55.503  33.745  56.091  0.00  0.00     0.100 C 
ATOM     30  C   UNL d   1      55.937  34.481  54.947  0.00  0.00     0.100 C 
ENDBRANCH  25  28
ENDBRANCH   1  22
TORSDOF 8
ENDMDL
