MODEL 1
REMARK VINA RESULT:      20.1      0.000      0.000
REMARK  7 active torsions:
REMARK  status: ('A' for Active; 'I' for Inactive)
REMARK    1  A    between atoms: N_5  and  S_1 
REMARK    2  A    between atoms: C_8  and  S_1 
REMARK    3  A    between atoms: C_2  and  C_11 
REMARK    4  A    between atoms: C_9  and  N_5 
REMARK    5  A    between atoms: C_10  and  C_9 
REMARK       I    between atoms: N_14  and  C_10 
REMARK    6  A    between atoms: C_24  and  N_14 
REMARK    7  A    between atoms: C_15  and  C_16 
ROOT
ATOM      1  C   UNL d   1     -41.478-122.982 -53.046  0.00  0.00     0.299 C 
ATOM      2  N   UNL d   1     -41.587-122.397 -52.492  0.00  0.00    -0.207 NA
ATOM      3  O   UNL d   1     -41.506-123.781 -52.824  0.00  0.00    -0.263 OA
ENDROOT
BRANCH   1   4
ATOM      4  C   UNL d   1     -41.338-122.788 -53.844  0.00  0.00     0.174 C 
BRANCH   4   5
ATOM      5  N   UNL d   1     -41.970-122.763 -54.362  0.00  0.00    -0.152 NA
BRANCH   5   6
ATOM      6  S   UNL d   1     -41.928-122.275 -55.037  0.00  0.00     0.285 S 
ATOM      7  O   UNL d   1     -42.575-122.674 -55.360  0.00  0.00    -0.198 OA
ATOM      8  O   UNL d   1     -41.282-121.880 -54.710  0.00  0.00    -0.198 OA
BRANCH   6   9
ATOM      9  C   UNL d   1     -41.884-121.791 -55.703  0.00  0.00     0.105 A 
ATOM     10  C   UNL d   1     -42.494-121.275 -55.880  0.00  0.00     0.013 A 
ATOM     11  C   UNL d   1     -42.451-120.790 -56.547  0.00  0.00    -0.004 A 
ATOM     12  C   UNL d   1     -41.785-120.827 -57.038  0.00  0.00    -0.023 A 
ATOM     13  C   UNL d   1     -41.168-121.351 -56.856  0.00  0.00    -0.004 A 
ATOM     14  C   UNL d   1     -41.219-121.828 -56.194  0.00  0.00     0.013 A 
BRANCH  12  15
ATOM     15  C   UNL d   1     -41.733-120.345 -57.706  0.00  0.00     0.019 C 
ATOM     16  C   UNL d   1     -41.130-119.919 -57.348  0.00  0.00     0.004 C 
ATOM     17  C   UNL d   1     -42.343-120.778 -58.065  0.00  0.00     0.004 C 
ATOM     18  C   UNL d   1     -41.678-119.861 -58.372  0.00  0.00     0.004 C 
ENDBRANCH  12  15
ENDBRANCH   6   9
ENDBRANCH   5   6
ENDBRANCH   4   5
ENDBRANCH   1   4
BRANCH   2  19
ATOM     19  C   UNL d   1     -41.726-122.597 -51.703  0.00  0.00     0.085 A 
ATOM     20  C   UNL d   1     -42.183-122.098 -51.237  0.00  0.00     0.019 A 
ATOM     21  C   UNL d   1     -42.332-122.286 -50.439  0.00  0.00     0.004 A 
ATOM     22  C   UNL d   1     -42.020-122.975 -50.115  0.00  0.00     0.024 A 
ATOM     23  C   UNL d   1     -41.560-123.476 -50.582  0.00  0.00     0.004 A 
ATOM     24  C   UNL d   1     -41.410-123.294 -51.373  0.00  0.00     0.019 A 
BRANCH  22  25
ATOM     25  C   UNL d   1     -42.175-123.151 -49.318  0.00  0.00     0.111 A 
ATOM     26  N   UNL d   1     -42.927-123.123 -48.994  0.00  0.00    -0.239 NA
ATOM     27  C   UNL d   1     -42.876-123.330 -48.196  0.00  0.00     0.088 A 
ATOM     28  C   UNL d   1     -43.445-123.396 -47.603  0.00  0.00     0.020 A 
ATOM     29  C   UNL d   1     -42.085-123.487 -48.029  0.00  0.00     0.049 A 
ATOM     30  C   UNL d   1     -43.219-123.618 -46.844  0.00  0.00     0.002 A 
ATOM     31  C   UNL d   1     -42.428-123.775 -46.676  0.00  0.00     0.001 A 
ATOM     32  C   UNL d   1     -41.860-123.710 -47.268  0.00  0.00     0.008 A 
ATOM     33  S   UNL d   1     -41.651-123.376 -48.724  0.00  0.00    -0.066 SA
ENDBRANCH  22  25
ENDBRANCH   2  19
TORSDOF 7
ENDMDL
