MODEL 1
REMARK VINA RESULT:      62.9      0.000      0.000
REMARK  9 active torsions:
REMARK  status: ('A' for Active; 'I' for Inactive)
REMARK    1  A    between atoms: C_7  and  C_1 
REMARK    2  A    between atoms: N_6  and  C_2 
REMARK    3  A    between atoms: C_9  and  C_3 
REMARK       I    between atoms: C_8  and  N_6 
REMARK    4  A    between atoms: O_22  and  C_7 
REMARK    5  A    between atoms: C_11  and  C_8 
REMARK    6  A    between atoms: N_10  and  C_15 
REMARK    7  A    between atoms: C_15  and  C_11 
REMARK    8  A    between atoms: C_21  and  C_12 
REMARK    9  A    between atoms: C_29  and  O_22 
ROOT
ATOM      1  C   UNL d   1      44.543 -15.407  44.462  0.00  0.00     0.088 A 
ATOM      2  C   UNL d   1      43.977 -14.851  44.750  0.00  0.00     0.119 A 
ATOM      3  C   UNL d   1      44.195 -16.138  44.497  0.00  0.00     0.014 A 
ATOM      4  S   UNL d   1      43.314 -15.216  44.952  0.00  0.00    -0.067 SA
ATOM      5  C   UNL d   1      43.434 -16.044  44.796  0.00  0.00     0.037 A 
ENDROOT
BRANCH   3   6
ATOM      6  C   UNL d   1      44.597 -16.787  44.259  0.00  0.00     0.001 A 
ATOM      7  C   UNL d   1      45.088 -17.191  44.750  0.00  0.00     0.000 A 
ATOM      8  C   UNL d   1      45.506 -17.874  44.485  0.00  0.00     0.000 A 
ATOM      9  C   UNL d   1      45.420 -18.122  43.759  0.00  0.00     0.000 A 
ATOM     10  C   UNL d   1      44.928 -17.738  43.223  0.00  0.00     0.000 A 
ATOM     11  C   UNL d   1      44.490 -17.047  43.451  0.00  0.00     0.000 A 
BRANCH   9  12
ATOM     12  C   UNL d   1      45.832 -18.786  43.515  0.00  0.00     0.000 A 
ATOM     13  C   UNL d   1      45.963 -18.902  42.711  0.00  0.00     0.000 A 
ATOM     14  C   UNL d   1      46.377 -19.570  42.462  0.00  0.00     0.000 A 
ATOM     15  C   UNL d   1      46.647 -20.098  43.003  0.00  0.00     0.000 A 
ATOM     16  C   UNL d   1      46.517 -19.984  43.816  0.00  0.00     0.000 A 
ATOM     17  C   UNL d   1      46.100 -19.312  44.063  0.00  0.00     0.000 A 
ENDBRANCH   9  12
ENDBRANCH   3   6
BRANCH   1  18
ATOM     18  C   UNL d   1      45.345 -15.237  44.182  0.00  0.00     0.302 C 
ATOM     19  O   UNL d   1      45.990 -15.315  44.712  0.00  0.00    -0.259 OA
BRANCH  18  20
ATOM     20  O   UNL d   1      45.460 -15.001  43.398  0.00  0.00    -0.271 OA
BRANCH  20  21
ATOM     21  C   UNL d   1      45.907 -15.505  42.863  0.00  0.00     0.126 C 
ATOM     22  C   UNL d   1      46.646 -15.276  42.639  0.00  0.00     0.029 C 
ENDBRANCH  20  21
ENDBRANCH  18  20
ENDBRANCH   1  18
BRANCH   2  23
ATOM     23  N   UNL d   1      44.060 -13.995  44.832  0.00  0.00    -0.201 NA
ATOM     24  C   UNL d   1      44.117 -13.531  44.157  0.00  0.00     0.281 C 
ATOM     25  O   UNL d   1      44.094 -13.890  43.375  0.00  0.00    -0.265 OA
BRANCH  24  26
ATOM     26  C   UNL d   1      44.197 -12.704  44.206  0.00  0.00     0.082 C 
BRANCH  26  27
ATOM     27  C   UNL d   1      44.872 -12.324  43.885  0.00  0.00     0.085 C 
BRANCH  27  28
ATOM     28  N   UNL d   1      44.985 -12.268  43.071  0.00  0.00    -0.299 N 
ATOM     29  C   UNL d   1      45.770 -12.307  42.746  0.00  0.00     0.107 A 
ATOM     30  C   UNL d   1      45.877 -12.251  41.929  0.00  0.00     0.142 A 
ATOM     31  O   UNL d   1      45.223 -12.158  41.444  0.00  0.00    -0.300 OA
ATOM     32  C   UNL d   1      44.413 -12.114  41.729  0.00  0.00     0.142 A 
ATOM     33  C   UNL d   1      44.313 -12.171  42.546  0.00  0.00     0.107 A 
ENDBRANCH  27  28
ENDBRANCH  26  27
ENDBRANCH  24  26
ENDBRANCH   2  23
TORSDOF 9
ENDMDL
