MODEL 1
REMARK VINA RESULT:      -2.2      0.000      0.000
REMARK  4 active torsions:
REMARK  status: ('A' for Active; 'I' for Inactive)
REMARK    1  A    between atoms: C_2  and  C_1 
REMARK    2  A    between atoms: C_11  and  N_5 
REMARK    3  A    between atoms: C_14  and  C_11 
REMARK    4  A    between atoms: C_17  and  C_14 
ROOT
ATOM      1  C   UNL d   1      32.956  19.950 -22.549  0.00  0.00     0.112 A 
ATOM      2  C   UNL d   1      32.910  20.145 -21.758  0.00  0.00     0.176 A 
ATOM      3  N   UNL d   1      33.035  20.966 -21.690  0.00  0.00    -0.285 N 
ATOM      4  C   UNL d   1      33.109  20.637 -22.976  0.00  0.00     0.219 A 
ATOM      5  C   UNL d   1      33.156  21.257 -22.438  0.00  0.00     0.124 A 
ATOM      6  O   UNL d   1      33.199  20.702 -23.791  0.00  0.00    -0.285 OA
ATOM      7  N   UNL d   1      32.763  19.622 -21.124  0.00  0.00    -0.128 N 
ENDROOT
BRANCH   1   8
ATOM      8  C   UNL d   1      32.860  19.178 -22.836  0.00  0.00     0.169 A 
ATOM      9  N   UNL d   1      33.238  18.473 -22.650  0.00  0.00    -0.225 NA
ATOM     10  C   UNL d   1      32.909  17.879 -23.116  0.00  0.00     0.101 A 
ATOM     11  C   UNL d   1      33.063  17.073 -23.171  0.00  0.00     0.021 A 
ATOM     12  C   UNL d   1      32.325  18.222 -23.590  0.00  0.00     0.101 A 
ATOM     13  C   UNL d   1      32.634  16.604 -23.700  0.00  0.00     0.002 A 
ATOM     14  C   UNL d   1      32.051  16.947 -24.174  0.00  0.00     0.002 A 
ATOM     15  C   UNL d   1      31.897  17.758 -24.118  0.00  0.00     0.021 A 
ATOM     16  N   UNL d   1      32.300  19.025 -23.413  0.00  0.00    -0.225 NA
ENDBRANCH   1   8
BRANCH   3  17
ATOM     17  C   UNL d   1      33.037  21.403 -20.989  0.00  0.00     0.082 C 
BRANCH  17  18
ATOM     18  C   UNL d   1      33.238  22.203 -21.000  0.00  0.00     0.019 C 
BRANCH  18  19
ATOM     19  C   UNL d   1      33.038  22.690 -20.369  0.00  0.00     0.002 C 
ATOM     20  C   UNL d   1      32.658  23.411 -20.502  0.00  0.00     0.000 C 
ATOM     21  C   UNL d   1      33.218  22.457 -19.596  0.00  0.00     0.000 C 
ENDBRANCH  18  19
ENDBRANCH  17  18
ENDBRANCH   3  17
TORSDOF 4
ENDMDL
MODEL 2
REMARK VINA RESULT:      -2.2      1.141      4.726
REMARK  4 active torsions:
REMARK  status: ('A' for Active; 'I' for Inactive)
REMARK    1  A    between atoms: C_2  and  C_1 
REMARK    2  A    between atoms: C_11  and  N_5 
REMARK    3  A    between atoms: C_14  and  C_11 
REMARK    4  A    between atoms: C_17  and  C_14 
ROOT
ATOM      1  C   UNL d   1      32.977  20.327 -21.952  0.00  0.00     0.112 A 
ATOM      2  C   UNL d   1      32.962  20.100 -22.736  0.00  0.00     0.176 A 
ATOM      3  N   UNL d   1      33.122  19.284 -22.768  0.00  0.00    -0.285 N 
ATOM      4  C   UNL d   1      33.143  19.664 -21.495  0.00  0.00     0.219 A 
ATOM      5  C   UNL d   1      33.231  19.026 -22.006  0.00  0.00     0.124 A 
ATOM      6  O   UNL d   1      33.212  19.634 -20.676  0.00  0.00    -0.285 OA
ATOM      7  N   UNL d   1      32.814  20.593 -23.394  0.00  0.00    -0.128 N 
ENDROOT
BRANCH   1   8
ATOM      8  C   UNL d   1      32.841  21.106 -21.699  0.00  0.00     0.169 A 
ATOM      9  N   UNL d   1      33.241  21.808 -21.849  0.00  0.00    -0.225 NA
ATOM     10  C   UNL d   1      32.850  22.411 -21.445  0.00  0.00     0.101 A 
ATOM     11  C   UNL d   1      32.994  23.219 -21.389  0.00  0.00     0.021 A 
ATOM     12  C   UNL d   1      32.208  22.076 -21.047  0.00  0.00     0.101 A 
ATOM     13  C   UNL d   1      32.497  23.697 -20.933  0.00  0.00     0.002 A 
ATOM     14  C   UNL d   1      31.855  23.363 -20.535  0.00  0.00     0.002 A 
ATOM     15  C   UNL d   1      31.711  22.550 -20.593  0.00  0.00     0.021 A 
ATOM     16  N   UNL d   1      32.208  21.269 -21.208  0.00  0.00    -0.225 NA
ENDBRANCH   1   8
BRANCH   3  17
ATOM     17  C   UNL d   1      33.162  18.820 -23.451  0.00  0.00     0.082 C 
BRANCH  17  18
ATOM     18  C   UNL d   1      32.809  18.075 -23.467  0.00  0.00     0.019 C 
BRANCH  18  19
ATOM     19  C   UNL d   1      32.960  17.558 -24.088  0.00  0.00     0.002 C 
ATOM     20  C   UNL d   1      33.195  17.848 -24.825  0.00  0.00     0.000 C 
ATOM     21  C   UNL d   1      32.875  16.743 -23.975  0.00  0.00     0.000 C 
ENDBRANCH  18  19
ENDBRANCH  17  18
ENDBRANCH   3  17
TORSDOF 4
ENDMDL
MODEL 3
REMARK VINA RESULT:      -2.2      0.933      1.392
REMARK  4 active torsions:
REMARK  status: ('A' for Active; 'I' for Inactive)
REMARK    1  A    between atoms: C_2  and  C_1 
REMARK    2  A    between atoms: C_11  and  N_5 
REMARK    3  A    between atoms: C_14  and  C_11 
REMARK    4  A    between atoms: C_17  and  C_14 
ROOT
ATOM      1  C   UNL d   1      32.931  19.000 -23.526  0.00  0.00     0.112 A 
ATOM      2  C   UNL d   1      32.964  19.231 -22.744  0.00  0.00     0.176 A 
ATOM      3  N   UNL d   1      33.150  20.042 -22.727  0.00  0.00    -0.285 N 
ATOM      4  C   UNL d   1      33.093  19.654 -23.997  0.00  0.00     0.219 A 
ATOM      5  C   UNL d   1      33.227  20.292 -23.495  0.00  0.00     0.124 A 
ATOM      6  O   UNL d   1      33.119  19.678 -24.818  0.00  0.00    -0.285 OA
ATOM      7  N   UNL d   1      32.836  18.747 -22.076  0.00  0.00    -0.128 N 
ENDROOT
BRANCH   1   8
ATOM      8  C   UNL d   1      32.758  18.224 -23.767  0.00  0.00     0.169 A 
ATOM      9  N   UNL d   1      33.235  17.623 -24.061  0.00  0.00    -0.225 NA
ATOM     10  C   UNL d   1      32.755  16.969 -24.205  0.00  0.00     0.101 A 
ATOM     11  C   UNL d   1      32.921  16.218 -24.496  0.00  0.00     0.021 A 
ATOM     12  C   UNL d   1      31.981  17.171 -23.998  0.00  0.00     0.101 A 
ATOM     13  C   UNL d   1      32.314  15.663 -24.583  0.00  0.00     0.002 A 
ATOM     14  C   UNL d   1      31.540  15.865 -24.377  0.00  0.00     0.002 A 
ATOM     15  C   UNL d   1      31.374  16.621 -24.084  0.00  0.00     0.021 A 
ATOM     16  N   UNL d   1      31.989  17.948 -23.728  0.00  0.00    -0.225 NA
ENDBRANCH   1   8
BRANCH   3  17
ATOM     17  C   UNL d   1      33.241  20.508 -22.050  0.00  0.00     0.082 C 
BRANCH  17  18
ATOM     18  C   UNL d   1      32.707  21.116 -21.892  0.00  0.00     0.019 C 
BRANCH  18  19
ATOM     19  C   UNL d   1      32.840  21.632 -21.266  0.00  0.00     0.002 C 
ATOM     20  C   UNL d   1      33.201  22.363 -21.397  0.00  0.00     0.000 C 
ATOM     21  C   UNL d   1      32.610  21.419 -20.500  0.00  0.00     0.000 C 
ENDBRANCH  18  19
ENDBRANCH  17  18
ENDBRANCH   3  17
TORSDOF 4
ENDMDL
MODEL 4
REMARK VINA RESULT:      -2.1      1.839      3.125
REMARK  4 active torsions:
REMARK  status: ('A' for Active; 'I' for Inactive)
REMARK    1  A    between atoms: C_2  and  C_1 
REMARK    2  A    between atoms: C_11  and  N_5 
REMARK    3  A    between atoms: C_14  and  C_11 
REMARK    4  A    between atoms: C_17  and  C_14 
ROOT
ATOM      1  C   UNL d   1      32.772  22.200 -20.598  0.00  0.00     0.112 A 
ATOM      2  C   UNL d   1      32.951  22.085 -19.810  0.00  0.00     0.176 A 
ATOM      3  N   UNL d   1      32.802  22.799 -19.408  0.00  0.00    -0.285 N 
ATOM      4  C   UNL d   1      32.512  22.974 -20.693  0.00  0.00     0.219 A 
ATOM      5  C   UNL d   1      32.535  23.336 -19.955  0.00  0.00     0.124 A 
ATOM      6  O   UNL d   1      32.273  23.332 -21.394  0.00  0.00    -0.285 OA
ATOM      7  N   UNL d   1      33.235  21.381 -19.461  0.00  0.00    -0.128 N 
ENDROOT
BRANCH   1   8
ATOM      8  C   UNL d   1      32.850  21.609 -21.175  0.00  0.00     0.169 A 
ATOM      9  N   UNL d   1      32.780  20.792 -21.136  0.00  0.00    -0.225 NA
ATOM     10  C   UNL d   1      32.918  20.490 -21.890  0.00  0.00     0.101 A 
ATOM     11  C   UNL d   1      32.922  19.722 -22.184  0.00  0.00     0.021 A 
ATOM     12  C   UNL d   1      33.074  21.126 -22.394  0.00  0.00     0.101 A 
ATOM     13  C   UNL d   1      33.083  19.585 -22.983  0.00  0.00     0.002 A 
ATOM     14  C   UNL d   1      33.239  20.221 -23.487  0.00  0.00     0.002 A 
ATOM     15  C   UNL d   1      33.234  20.993 -23.190  0.00  0.00     0.021 A 
ATOM     16  N   UNL d   1      33.031  21.816 -21.946  0.00  0.00    -0.225 NA
ENDBRANCH   1   8
BRANCH   3  17
ATOM     17  C   UNL d   1      32.907  22.936 -18.600  0.00  0.00     0.082 C 
BRANCH  17  18
ATOM     18  C   UNL d   1      32.389  23.431 -18.193  0.00  0.00     0.019 C 
BRANCH  18  19
ATOM     19  C   UNL d   1      32.439  23.503 -17.375  0.00  0.00     0.002 C 
ATOM     20  C   UNL d   1      31.772  23.702 -16.932  0.00  0.00     0.000 C 
ATOM     21  C   UNL d   1      33.162  23.374 -16.994  0.00  0.00     0.000 C 
ENDBRANCH  18  19
ENDBRANCH  17  18
ENDBRANCH   3  17
TORSDOF 4
ENDMDL
MODEL 5
REMARK VINA RESULT:      -1.8      0.664      4.539
REMARK  4 active torsions:
REMARK  status: ('A' for Active; 'I' for Inactive)
REMARK    1  A    between atoms: C_2  and  C_1 
REMARK    2  A    between atoms: C_11  and  N_5 
REMARK    3  A    between atoms: C_14  and  C_11 
REMARK    4  A    between atoms: C_17  and  C_14 
ROOT
ATOM      1  C   UNL d   1      33.044  20.395 -22.578  0.00  0.00     0.112 A 
ATOM      2  C   UNL d   1      33.009  19.592 -22.435  0.00  0.00     0.176 A 
ATOM      3  N   UNL d   1      33.114  19.199 -23.161  0.00  0.00    -0.285 N 
ATOM      4  C   UNL d   1      33.169  20.508 -23.383  0.00  0.00     0.219 A 
ATOM      5  C   UNL d   1      33.211  19.766 -23.734  0.00  0.00     0.124 A 
ATOM      6  O   UNL d   1      33.241  21.227 -23.775  0.00  0.00    -0.285 OA
ATOM      7  N   UNL d   1      32.890  19.223 -21.695  0.00  0.00    -0.128 N 
ENDROOT
BRANCH   1   8
ATOM      8  C   UNL d   1      32.963  20.969 -21.985  0.00  0.00     0.169 A 
ATOM      9  N   UNL d   1      33.240  21.002 -21.212  0.00  0.00    -0.225 NA
ATOM     10  C   UNL d   1      32.985  21.713 -20.883  0.00  0.00     0.101 A 
ATOM     11  C   UNL d   1      33.091  22.044 -20.137  0.00  0.00     0.021 A 
ATOM     12  C   UNL d   1      32.550  22.117 -21.457  0.00  0.00     0.101 A 
ATOM     13  C   UNL d   1      32.763  22.782 -19.961  0.00  0.00     0.002 A 
ATOM     14  C   UNL d   1      32.328  23.187 -20.535  0.00  0.00     0.002 A 
ATOM     15  C   UNL d   1      32.222  22.853 -21.285  0.00  0.00     0.021 A 
ATOM     16  N   UNL d   1      32.540  21.653 -22.136  0.00  0.00    -0.225 NA
ENDBRANCH   1   8
BRANCH   3  17
ATOM     17  C   UNL d   1      33.119  18.381 -23.277  0.00  0.00     0.082 C 
BRANCH  17  18
ATOM     18  C   UNL d   1      32.545  18.027 -23.753  0.00  0.00     0.019 C 
BRANCH  18  19
ATOM     19  C   UNL d   1      32.485  17.208 -23.789  0.00  0.00     0.002 C 
ATOM     20  C   UNL d   1      33.142  16.749 -23.988  0.00  0.00     0.000 C 
ATOM     21  C   UNL d   1      31.762  16.841 -23.626  0.00  0.00     0.000 C 
ENDBRANCH  18  19
ENDBRANCH  17  18
ENDBRANCH   3  17
TORSDOF 4
ENDMDL
MODEL 6
REMARK VINA RESULT:      -1.6      2.756      4.449
REMARK  4 active torsions:
REMARK  status: ('A' for Active; 'I' for Inactive)
REMARK    1  A    between atoms: C_2  and  C_1 
REMARK    2  A    between atoms: C_11  and  N_5 
REMARK    3  A    between atoms: C_14  and  C_11 
REMARK    4  A    between atoms: C_17  and  C_14 
ROOT
ATOM      1  C   UNL d   1      31.136  16.914 -24.055  0.00  0.00     0.112 A 
ATOM      2  C   UNL d   1      31.361  17.590 -24.453  0.00  0.00     0.176 A 
ATOM      3  N   UNL d   1      32.151  17.755 -24.250  0.00  0.00    -0.285 N 
ATOM      4  C   UNL d   1      31.775  16.655 -23.606  0.00  0.00     0.219 A 
ATOM      5  C   UNL d   1      32.396  17.179 -23.732  0.00  0.00     0.124 A 
ATOM      6  O   UNL d   1      31.798  15.994 -23.117  0.00  0.00    -0.285 OA
ATOM      7  N   UNL d   1      30.889  18.041 -24.974  0.00  0.00    -0.128 N 
ENDROOT
BRANCH   1   8
ATOM      8  C   UNL d   1      30.381  16.576 -24.118  0.00  0.00     0.169 A 
ATOM      9  N   UNL d   1      29.964  16.284 -24.763  0.00  0.00    -0.225 NA
ATOM     10  C   UNL d   1      29.234  16.015 -24.489  0.00  0.00     0.101 A 
ATOM     11  C   UNL d   1      28.595  15.671 -24.876  0.00  0.00     0.021 A 
ATOM     12  C   UNL d   1      29.205  16.143 -23.674  0.00  0.00     0.101 A 
ATOM     13  C   UNL d   1      27.921  15.453 -24.448  0.00  0.00     0.002 A 
ATOM     14  C   UNL d   1      27.892  15.581 -23.633  0.00  0.00     0.002 A 
ATOM     15  C   UNL d   1      28.536  15.927 -23.246  0.00  0.00     0.021 A 
ATOM     16  N   UNL d   1      29.917  16.490 -23.450  0.00  0.00    -0.225 NA
ENDBRANCH   1   8
BRANCH   3  17
ATOM     17  C   UNL d   1      32.605  18.388 -24.524  0.00  0.00     0.082 C 
BRANCH  17  18
ATOM     18  C   UNL d   1      32.890  18.954 -23.996  0.00  0.00     0.019 C 
BRANCH  18  19
ATOM     19  C   UNL d   1      33.123  19.695 -24.267  0.00  0.00     0.002 C 
ATOM     20  C   UNL d   1      33.240  19.826 -25.073  0.00  0.00     0.000 C 
ATOM     21  C   UNL d   1      33.241  20.311 -23.728  0.00  0.00     0.000 C 
ENDBRANCH  18  19
ENDBRANCH  17  18
ENDBRANCH   3  17
TORSDOF 4
ENDMDL
MODEL 7
REMARK VINA RESULT:      -0.8      2.076      5.203
REMARK  4 active torsions:
REMARK  status: ('A' for Active; 'I' for Inactive)
REMARK    1  A    between atoms: C_2  and  C_1 
REMARK    2  A    between atoms: C_11  and  N_5 
REMARK    3  A    between atoms: C_14  and  C_11 
REMARK    4  A    between atoms: C_17  and  C_14 
ROOT
ATOM      1  C   UNL d   1      31.780  17.474 -23.758  0.00  0.00     0.112 A 
ATOM      2  C   UNL d   1      31.029  17.393 -24.067  0.00  0.00     0.176 A 
ATOM      3  N   UNL d   1      30.885  16.580 -24.176  0.00  0.00    -0.285 N 
ATOM      4  C   UNL d   1      32.106  16.724 -23.673  0.00  0.00     0.219 A 
ATOM      5  C   UNL d   1      31.547  16.179 -23.932  0.00  0.00     0.124 A 
ATOM      6  O   UNL d   1      32.854  16.541 -23.381  0.00  0.00    -0.285 OA
ATOM      7  N   UNL d   1      30.495  18.010 -24.245  0.00  0.00    -0.128 N 
ENDROOT
BRANCH   1   8
ATOM      8  C   UNL d   1      32.122  18.207 -23.575  0.00  0.00     0.169 A 
ATOM      9  N   UNL d   1      32.320  18.555 -22.857  0.00  0.00    -0.225 NA
ATOM     10  C   UNL d   1      32.646  19.295 -23.018  0.00  0.00     0.101 A 
ATOM     11  C   UNL d   1      32.940  19.885 -22.526  0.00  0.00     0.021 A 
ATOM     12  C   UNL d   1      32.648  19.400 -23.837  0.00  0.00     0.101 A 
ATOM     13  C   UNL d   1      33.239  20.585 -22.851  0.00  0.00     0.002 A 
ATOM     14  C   UNL d   1      33.241  20.690 -23.670  0.00  0.00     0.002 A 
ATOM     15  C   UNL d   1      32.944  20.095 -24.163  0.00  0.00     0.021 A 
ATOM     16  N   UNL d   1      32.323  18.725 -24.176  0.00  0.00    -0.225 NA
ENDBRANCH   1   8
BRANCH   3  17
ATOM     17  C   UNL d   1      30.193  16.243 -24.476  0.00  0.00     0.082 C 
BRANCH  17  18
ATOM     18  C   UNL d   1      29.628  15.929 -23.964  0.00  0.00     0.019 C 
BRANCH  18  19
ATOM     19  C   UNL d   1      28.898  15.683 -24.251  0.00  0.00     0.002 C 
ATOM     20  C   UNL d   1      28.788  15.562 -25.060  0.00  0.00     0.000 C 
ATOM     21  C   UNL d   1      28.271  15.557 -23.727  0.00  0.00     0.000 C 
ENDBRANCH  18  19
ENDBRANCH  17  18
ENDBRANCH   3  17
TORSDOF 4
ENDMDL
