MODEL 1
REMARK VINA RESULT:      28.0      0.000      0.000
REMARK  6 active torsions:
REMARK  status: ('A' for Active; 'I' for Inactive)
REMARK    1  A    between atoms: C_12  and  C_3 
REMARK    2  A    between atoms: O_11  and  C_5 
REMARK    3  A    between atoms: O_16  and  C_10 
REMARK    4  A    between atoms: C_13  and  O_11 
REMARK    5  A    between atoms: C_15  and  O_16 
REMARK    6  A    between atoms: O_24  and  C_21 
ROOT
ATOM      1  C   UNL d   1      45.984 -16.413  43.477  0.00  0.00     0.201 A 
ATOM      2  C   UNL d   1      46.150 -17.222  43.524  0.00  0.00     0.085 A 
ATOM      3  C   UNL d   1      45.858 -15.978  44.155  0.00  0.00     0.064 A 
ATOM      4  C   UNL d   1      46.188 -17.583  44.264  0.00  0.00     0.107 A 
ATOM      5  C   UNL d   1      46.277 -17.669  42.849  0.00  0.00     0.110 A 
ATOM      6  C   UNL d   1      45.896 -16.339  44.895  0.00  0.00     0.126 A 
ATOM      7  O   UNL d   1      46.062 -17.144  44.954  0.00  0.00    -0.305 OA
ATOM      8  C   UNL d   1      46.353 -18.388  44.323  0.00  0.00     0.050 A 
ATOM      9  C   UNL d   1      46.440 -18.462  42.903  0.00  0.00     0.050 A 
ATOM     10  C   UNL d   1      46.478 -18.824  43.644  0.00  0.00     0.107 A 
ATOM     11  O   UNL d   1      45.945 -16.052  42.736  0.00  0.00    -0.286 OA
ENDROOT
BRANCH   3  12
ATOM     12  C   UNL d   1      45.692 -15.166  44.100  0.00  0.00     0.005 A 
ATOM     13  C   UNL d   1      46.300 -14.625  43.982  0.00  0.00     0.002 A 
ATOM     14  C   UNL d   1      46.135 -13.823  43.928  0.00  0.00     0.024 A 
ATOM     15  C   UNL d   1      45.352 -13.558  43.994  0.00  0.00     0.094 A 
ATOM     16  C   UNL d   1      44.743 -14.095  44.112  0.00  0.00     0.024 A 
ATOM     17  C   UNL d   1      44.912 -14.903  44.166  0.00  0.00     0.002 A 
BRANCH  15  18
ATOM     18  O   UNL d   1      45.183 -12.751  43.940  0.00  0.00    -0.328 OA
ATOM     19  C   UNL d   1      45.393 -12.324  43.259  0.00  0.00     0.181 C 
ENDBRANCH  15  18
ENDBRANCH   3  12
BRANCH   5  20
ATOM     20  O   UNL d   1      46.239 -17.307  42.108  0.00  0.00    -0.273 OA
BRANCH  20  21
ATOM     21  C   UNL d   1      45.945 -17.722  41.461  0.00  0.00     0.300 C 
ATOM     22  O   UNL d   1      45.154 -17.956  41.444  0.00  0.00    -0.259 OA
ATOM     23  C   UNL d   1      46.443 -17.903  40.830  0.00  0.00     0.074 C 
ENDBRANCH  20  21
ENDBRANCH   5  20
BRANCH  10  24
ATOM     24  O   UNL d   1      46.645 -19.636  43.699  0.00  0.00    -0.273 OA
BRANCH  24  25
ATOM     25  C   UNL d   1      46.256 -20.096  44.261  0.00  0.00     0.300 C 
ATOM     26  O   UNL d   1      45.476 -20.330  44.135  0.00  0.00    -0.259 OA
ATOM     27  C   UNL d   1      46.641 -20.329  44.954  0.00  0.00     0.074 C 
ENDBRANCH  24  25
ENDBRANCH  10  24
TORSDOF 6
ENDMDL
