MODEL 1
REMARK VINA RESULT:      -3.3      0.000      0.000
REMARK  5 active torsions:
REMARK  status: ('A' for Active; 'I' for Inactive)
REMARK    1  A    between atoms: N_2  and  C_1 
REMARK    2  A    between atoms: C_8  and  C_5 
REMARK    3  A    between atoms: C_6  and  C_9 
REMARK       I    between atoms: N_12  and  C_6 
REMARK    4  A    between atoms: C_9  and  C_8 
REMARK    5  A    between atoms: C_13  and  N_12 
ROOT
ATOM      1  C   UNL d   1      32.918  19.018 -22.707  0.00  0.00     0.279 C 
ATOM      2  N   UNL d   1      32.561  18.836 -23.423  0.00  0.00    -0.208 NA
ATOM      3  O   UNL d   1      33.233  18.408 -22.220  0.00  0.00    -0.265 OA
ENDROOT
BRANCH   1   4
ATOM      4  C   UNL d   1      32.970  19.802 -22.457  0.00  0.00     0.063 C 
BRANCH   4   5
ATOM      5  C   UNL d   1      33.057  19.958 -21.640  0.00  0.00     0.011 C 
BRANCH   5   6
ATOM      6  C   UNL d   1      32.945  20.740 -21.366  0.00  0.00     0.031 A 
ATOM      7  S   UNL d   1      32.665  21.419 -21.734  0.00  0.00    -0.064 SA
ATOM      8  C   UNL d   1      32.684  22.007 -21.183  0.00  0.00     0.156 A 
ATOM      9  C   UNL d   1      32.972  21.706 -20.470  0.00  0.00     0.031 A 
ATOM     10  C   UNL d   1      33.137  20.925 -20.570  0.00  0.00     0.009 A 
BRANCH   8  11
ATOM     11  N   UNL d   1      32.448  22.801 -21.308  0.00  0.00    -0.107 N 
ATOM     12  O   UNL d   1      33.009  23.375 -21.445  0.00  0.00    -0.531 OA
ATOM     13  O   UNL d   1      31.640  22.998 -21.292  0.00  0.00    -0.531 OA
ENDBRANCH   8  11
ENDBRANCH   5   6
ENDBRANCH   4   5
ENDBRANCH   1   4
BRANCH   2  14
ATOM     14  C   UNL d   1      32.510  18.059 -23.671  0.00  0.00     0.085 A 
ATOM     15  C   UNL d   1      31.781  17.677 -23.704  0.00  0.00     0.019 A 
ATOM     16  C   UNL d   1      31.729  16.903 -23.950  0.00  0.00     0.002 A 
ATOM     17  C   UNL d   1      30.976  16.524 -23.979  0.00  0.00     0.000 C 
ATOM     18  C   UNL d   1      32.406  16.490 -24.170  0.00  0.00     0.000 A 
ATOM     19  C   UNL d   1      33.138  16.869 -24.139  0.00  0.00     0.002 A 
ATOM     20  C   UNL d   1      33.189  17.643 -23.892  0.00  0.00     0.019 A 
ENDBRANCH   2  14
TORSDOF 5
ENDMDL
MODEL 2
REMARK VINA RESULT:      -3.1      1.615      5.178
REMARK  5 active torsions:
REMARK  status: ('A' for Active; 'I' for Inactive)
REMARK    1  A    between atoms: N_2  and  C_1 
REMARK    2  A    between atoms: C_8  and  C_5 
REMARK    3  A    between atoms: C_6  and  C_9 
REMARK       I    between atoms: N_12  and  C_6 
REMARK    4  A    between atoms: C_9  and  C_8 
REMARK    5  A    between atoms: C_13  and  N_12 
ROOT
ATOM      1  C   UNL d   1      32.769  20.537 -21.880  0.00  0.00     0.279 C 
ATOM      2  N   UNL d   1      32.429  20.711 -21.155  0.00  0.00    -0.208 NA
ATOM      3  O   UNL d   1      33.241  21.108 -22.280  0.00  0.00    -0.265 OA
ENDROOT
BRANCH   1   4
ATOM      4  C   UNL d   1      32.652  19.797 -22.226  0.00  0.00     0.063 C 
BRANCH   4   5
ATOM      5  C   UNL d   1      33.040  19.625 -22.946  0.00  0.00     0.011 C 
BRANCH   5   6
ATOM      6  C   UNL d   1      32.903  18.884 -23.308  0.00  0.00     0.031 A 
ATOM      7  S   UNL d   1      32.620  18.170 -23.016  0.00  0.00    -0.064 SA
ATOM      8  C   UNL d   1      32.612  17.653 -23.634  0.00  0.00     0.156 A 
ATOM      9  C   UNL d   1      32.887  18.033 -24.314  0.00  0.00     0.031 A 
ATOM     10  C   UNL d   1      33.070  18.793 -24.126  0.00  0.00     0.009 A 
BRANCH   8  11
ATOM     11  N   UNL d   1      32.363  16.853 -23.598  0.00  0.00    -0.107 N 
ATOM     12  O   UNL d   1      32.837  16.266 -23.905  0.00  0.00    -0.531 OA
ATOM     13  O   UNL d   1      31.634  16.665 -23.247  0.00  0.00    -0.531 OA
ENDBRANCH   8  11
ENDBRANCH   5   6
ENDBRANCH   4   5
ENDBRANCH   1   4
BRANCH   2  14
ATOM     14  C   UNL d   1      32.545  21.445 -20.812  0.00  0.00     0.085 A 
ATOM     15  C   UNL d   1      32.090  22.092 -21.043  0.00  0.00     0.019 A 
ATOM     16  C   UNL d   1      32.206  22.822 -20.702  0.00  0.00     0.002 A 
ATOM     17  C   UNL d   1      31.733  23.476 -20.949  0.00  0.00     0.000 C 
ATOM     18  C   UNL d   1      32.779  22.924 -20.121  0.00  0.00     0.000 A 
ATOM     19  C   UNL d   1      33.236  22.279 -19.887  0.00  0.00     0.002 A 
ATOM     20  C   UNL d   1      33.120  21.549 -20.228  0.00  0.00     0.019 A 
ENDBRANCH   2  14
TORSDOF 5
ENDMDL
MODEL 3
REMARK VINA RESULT:      -1.7      2.127      3.589
REMARK  5 active torsions:
REMARK  status: ('A' for Active; 'I' for Inactive)
REMARK    1  A    between atoms: N_2  and  C_1 
REMARK    2  A    between atoms: C_8  and  C_5 
REMARK    3  A    between atoms: C_6  and  C_9 
REMARK       I    between atoms: N_12  and  C_6 
REMARK    4  A    between atoms: C_9  and  C_8 
REMARK    5  A    between atoms: C_13  and  N_12 
ROOT
ATOM      1  C   UNL d   1      30.812  16.838 -23.994  0.00  0.00     0.279 C 
ATOM      2  N   UNL d   1      30.484  16.117 -23.780  0.00  0.00    -0.208 NA
ATOM      3  O   UNL d   1      30.387  17.371 -24.488  0.00  0.00    -0.265 OA
ENDROOT
BRANCH   1   4
ATOM      4  C   UNL d   1      31.564  17.047 -23.726  0.00  0.00     0.063 C 
BRANCH   4   5
ATOM      5  C   UNL d   1      31.888  17.777 -23.973  0.00  0.00     0.011 C 
BRANCH   5   6
ATOM      6  C   UNL d   1      32.340  18.220 -23.427  0.00  0.00     0.031 A 
ATOM      7  S   UNL d   1      32.360  19.022 -23.248  0.00  0.00    -0.064 SA
ATOM      8  C   UNL d   1      32.912  19.117 -22.669  0.00  0.00     0.156 A 
ATOM      9  C   UNL d   1      33.241  18.384 -22.479  0.00  0.00     0.031 A 
ATOM     10  C   UNL d   1      32.897  17.823 -22.940  0.00  0.00     0.009 A 
BRANCH   8  11
ATOM     11  N   UNL d   1      33.123  19.845 -22.311  0.00  0.00    -0.107 N 
ATOM     12  O   UNL d   1      33.211  19.890 -21.503  0.00  0.00    -0.531 OA
ATOM     13  O   UNL d   1      33.240  20.518 -22.785  0.00  0.00    -0.531 OA
ENDBRANCH   8  11
ENDBRANCH   5   6
ENDBRANCH   4   5
ENDBRANCH   1   4
BRANCH   2  14
ATOM     14  C   UNL d   1      29.739  15.909 -24.045  0.00  0.00     0.085 A 
ATOM     15  C   UNL d   1      29.089  15.946 -23.541  0.00  0.00     0.019 A 
ATOM     16  C   UNL d   1      28.348  15.739 -23.805  0.00  0.00     0.002 A 
ATOM     17  C   UNL d   1      27.691  15.781 -23.276  0.00  0.00     0.000 C 
ATOM     18  C   UNL d   1      28.237  15.490 -24.580  0.00  0.00     0.000 A 
ATOM     19  C   UNL d   1      28.885  15.453 -25.089  0.00  0.00     0.002 A 
ATOM     20  C   UNL d   1      29.626  15.659 -24.825  0.00  0.00     0.019 A 
ENDBRANCH   2  14
TORSDOF 5
ENDMDL
MODEL 4
REMARK VINA RESULT:      -0.3      2.402      3.706
REMARK  5 active torsions:
REMARK  status: ('A' for Active; 'I' for Inactive)
REMARK    1  A    between atoms: N_2  and  C_1 
REMARK    2  A    between atoms: C_8  and  C_5 
REMARK    3  A    between atoms: C_6  and  C_9 
REMARK       I    between atoms: N_12  and  C_6 
REMARK    4  A    between atoms: C_9  and  C_8 
REMARK    5  A    between atoms: C_13  and  N_12 
ROOT
ATOM      1  C   UNL d   1      32.782  22.194 -21.227  0.00  0.00     0.279 C 
ATOM      2  N   UNL d   1      33.008  21.405 -21.226  0.00  0.00    -0.208 NA
ATOM      3  O   UNL d   1      32.603  22.587 -21.949  0.00  0.00    -0.265 OA
ENDROOT
BRANCH   1   4
ATOM      4  C   UNL d   1      32.728  22.610 -20.517  0.00  0.00     0.063 C 
BRANCH   4   5
ATOM      5  C   UNL d   1      33.170  22.341 -19.859  0.00  0.00     0.011 C 
BRANCH   5   6
ATOM      6  C   UNL d   1      33.049  22.708 -19.118  0.00  0.00     0.031 A 
ATOM      7  S   UNL d   1      33.142  22.440 -18.347  0.00  0.00    -0.064 SA
ATOM      8  C   UNL d   1      32.939  23.051 -17.862  0.00  0.00     0.156 A 
ATOM      9  C   UNL d   1      32.719  23.702 -18.319  0.00  0.00     0.031 A 
ATOM     10  C   UNL d   1      32.783  23.504 -19.095  0.00  0.00     0.009 A 
BRANCH   8  11
ATOM     11  N   UNL d   1      32.948  23.033 -17.024  0.00  0.00    -0.107 N 
ATOM     12  O   UNL d   1      32.671  23.670 -16.601  0.00  0.00    -0.531 OA
ATOM     13  O   UNL d   1      33.241  22.361 -16.630  0.00  0.00    -0.531 OA
ENDBRANCH   8  11
ENDBRANCH   5   6
ENDBRANCH   4   5
ENDBRANCH   1   4
BRANCH   2  14
ATOM     14  C   UNL d   1      33.061  20.993 -21.930  0.00  0.00     0.085 A 
ATOM     15  C   UNL d   1      32.990  20.172 -21.941  0.00  0.00     0.019 A 
ATOM     16  C   UNL d   1      33.043  19.761 -22.642  0.00  0.00     0.002 A 
ATOM     17  C   UNL d   1      32.968  18.921 -22.638  0.00  0.00     0.000 C 
ATOM     18  C   UNL d   1      33.169  20.160 -23.350  0.00  0.00     0.000 A 
ATOM     19  C   UNL d   1      33.240  20.982 -23.343  0.00  0.00     0.002 A 
ATOM     20  C   UNL d   1      33.187  21.393 -22.642  0.00  0.00     0.019 A 
ENDBRANCH   2  14
TORSDOF 5
ENDMDL
