MODEL 1
REMARK VINA RESULT:      -7.3      0.000      0.000
REMARK  9 active torsions:
REMARK  status: ('A' for Active; 'I' for Inactive)
REMARK       I    between atoms: C_2  and  N_1 
REMARK    1  A    between atoms: C_3  and  C_2 
REMARK    2  A    between atoms: C_15  and  C_4 
REMARK       I    between atoms: C_5  and  N_9 
REMARK    3  A    between atoms: C_6  and  C_5 
REMARK       I    between atoms: N_21  and  C_6 
REMARK    4  A    between atoms: N_9  and  C_15 
REMARK    5  A    between atoms: C_25  and  N_21 
REMARK    6  A    between atoms: N_23  and  C_26 
REMARK    7  A    between atoms: C_27  and  N_23 
REMARK    8  A    between atoms: C_28  and  N_23 
REMARK    9  A    between atoms: C_26  and  C_25 
ROOT
ATOM      1  N   UNL d   1      51.637  33.539  53.380  0.00  0.00    -0.250 N 
ATOM      2  C   UNL d   1      52.209  34.127  53.494  0.00  0.00     0.266 C 
ATOM      3  C   UNL d   1      50.859  33.644  53.120  0.00  0.00     0.190 A 
ATOM      4  O   UNL d   1      52.017  34.918  53.341  0.00  0.00    -0.267 OA
ATOM      5  O   UNL d   1      50.487  32.914  53.086  0.00  0.00    -0.285 OA
ATOM      6  C   UNL d   1      51.736  32.728  53.505  0.00  0.00     0.112 A 
ATOM      7  C   UNL d   1      51.030  32.345  53.325  0.00  0.00     0.144 A 
ENDROOT
BRANCH   3   8
ATOM      8  C   UNL d   1      50.516  34.378  52.925  0.00  0.00     0.146 C 
BRANCH   8   9
ATOM      9  N   UNL d   1      49.887  34.407  52.394  0.00  0.00    -0.199 NA
ATOM     10  C   UNL d   1      49.329  35.005  52.455  0.00  0.00     0.337 C 
ATOM     11  O   UNL d   1      49.390  35.581  53.046  0.00  0.00    -0.260 OA
BRANCH  10  12
ATOM     12  C   UNL d   1      48.699  35.034  51.924  0.00  0.00     0.337 C 
ATOM     13  O   UNL d   1      48.764  34.669  51.189  0.00  0.00    -0.260 OA
ATOM     14  N   UNL d   1      48.011  35.427  52.129  0.00  0.00    -0.201 NA
BRANCH  14  15
ATOM     15  C   UNL d   1      47.278  35.575  51.760  0.00  0.00     0.121 C 
BRANCH  15  16
ATOM     16  C   UNL d   1      46.707  36.065  52.091  0.00  0.00     0.101 C 
BRANCH  16  17
ATOM     17  N   UNL d   1      45.944  36.069  51.789  0.00  0.00    -0.301 N 
BRANCH  17  18
ATOM     18  C   UNL d   1      45.759  35.690  51.091  0.00  0.00     0.080 C 
ATOM     19  C   UNL d   1      45.061  35.868  50.672  0.00  0.00     0.021 C 
ENDBRANCH  17  18
BRANCH  17  20
ATOM     20  C   UNL d   1      45.337  36.474  52.212  0.00  0.00     0.080 C 
ATOM     21  C   UNL d   1      45.463  36.687  53.010  0.00  0.00     0.021 C 
ENDBRANCH  17  20
ENDBRANCH  16  17
ENDBRANCH  15  16
ENDBRANCH  14  15
ENDBRANCH  10  12
ENDBRANCH   8   9
ENDBRANCH   3   8
BRANCH   2  22
ATOM     22  C   UNL d   1      52.960  33.912  53.758  0.00  0.00     0.059 A 
ATOM     23  C   UNL d   1      53.236  34.139  54.491  0.00  0.00     0.031 A 
ATOM     24  C   UNL d   1      53.987  33.924  54.755  0.00  0.00     0.119 A 
ATOM     25  O   UNL d   1      54.402  34.070  55.450  0.00  0.00    -0.300 OA
ATOM     26  C   UNL d   1      54.471  33.461  54.254  0.00  0.00     0.119 A 
ATOM     27  C   UNL d   1      55.143  33.697  55.379  0.00  0.00     0.304 A 
ATOM     28  O   UNL d   1      55.184  33.328  54.652  0.00  0.00    -0.300 OA
ATOM     29  C   UNL d   1      54.202  33.225  53.510  0.00  0.00     0.026 A 
ATOM     30  C   UNL d   1      53.448  33.449  53.260  0.00  0.00     0.007 A 
ENDBRANCH   2  22
TORSDOF 9
ENDMDL
MODEL 2
REMARK VINA RESULT:      -7.2      1.466      7.077
REMARK  9 active torsions:
REMARK  status: ('A' for Active; 'I' for Inactive)
REMARK       I    between atoms: C_2  and  N_1 
REMARK    1  A    between atoms: C_3  and  C_2 
REMARK    2  A    between atoms: C_15  and  C_4 
REMARK       I    between atoms: C_5  and  N_9 
REMARK    3  A    between atoms: C_6  and  C_5 
REMARK       I    between atoms: N_21  and  C_6 
REMARK    4  A    between atoms: N_9  and  C_15 
REMARK    5  A    between atoms: C_25  and  N_21 
REMARK    6  A    between atoms: N_23  and  C_26 
REMARK    7  A    between atoms: C_27  and  N_23 
REMARK    8  A    between atoms: C_28  and  N_23 
REMARK    9  A    between atoms: C_26  and  C_25 
ROOT
ATOM      1  N   UNL d   1      48.162  35.658  52.763  0.00  0.00    -0.250 N 
ATOM      2  C   UNL d   1      47.810  35.382  52.066  0.00  0.00     0.266 C 
ATOM      3  C   UNL d   1      48.923  35.487  53.039  0.00  0.00     0.190 A 
ATOM      4  O   UNL d   1      48.236  34.877  51.566  0.00  0.00    -0.267 OA
ATOM      5  O   UNL d   1      49.043  35.877  53.751  0.00  0.00    -0.285 OA
ATOM      6  C   UNL d   1      47.817  36.162  53.320  0.00  0.00     0.112 A 
ATOM      7  C   UNL d   1      48.358  36.296  53.926  0.00  0.00     0.144 A 
ENDROOT
BRANCH   3   8
ATOM      8  C   UNL d   1      49.472  34.996  52.650  0.00  0.00     0.146 C 
BRANCH   8   9
ATOM      9  N   UNL d   1      49.923  34.463  53.087  0.00  0.00    -0.199 NA
ATOM     10  C   UNL d   1      50.614  34.155  52.767  0.00  0.00     0.337 C 
ATOM     11  O   UNL d   1      50.862  34.375  52.009  0.00  0.00    -0.260 OA
BRANCH  10  12
ATOM     12  C   UNL d   1      51.065  33.622  53.204  0.00  0.00     0.337 C 
ATOM     13  O   UNL d   1      50.731  32.918  53.468  0.00  0.00    -0.260 OA
ATOM     14  N   UNL d   1      51.848  33.795  53.374  0.00  0.00    -0.201 NA
BRANCH  14  15
ATOM     15  C   UNL d   1      52.465  33.414  53.786  0.00  0.00     0.121 C 
BRANCH  15  16
ATOM     16  C   UNL d   1      53.253  33.630  53.698  0.00  0.00     0.101 C 
BRANCH  16  17
ATOM     17  N   UNL d   1      53.830  33.271  54.158  0.00  0.00    -0.301 N 
BRANCH  17  18
ATOM     18  C   UNL d   1      54.263  32.637  53.882  0.00  0.00     0.080 C 
ATOM     19  C   UNL d   1      54.871  32.736  53.322  0.00  0.00     0.021 C 
ENDBRANCH  17  18
BRANCH  17  20
ATOM     20  C   UNL d   1      53.979  33.566  54.934  0.00  0.00     0.080 C 
ATOM     21  C   UNL d   1      54.767  33.633  55.205  0.00  0.00     0.021 C 
ENDBRANCH  17  20
ENDBRANCH  16  17
ENDBRANCH  15  16
ENDBRANCH  14  15
ENDBRANCH  10  12
ENDBRANCH   8   9
ENDBRANCH   3   8
BRANCH   2  22
ATOM     22  C   UNL d   1      47.041  35.615  51.885  0.00  0.00     0.059 A 
ATOM     23  C   UNL d   1      46.394  35.182  52.128  0.00  0.00     0.031 A 
ATOM     24  C   UNL d   1      45.625  35.416  51.946  0.00  0.00     0.119 A 
ATOM     25  O   UNL d   1      44.885  35.097  52.114  0.00  0.00    -0.300 OA
ATOM     26  C   UNL d   1      45.512  36.115  51.501  0.00  0.00     0.119 A 
ATOM     27  C   UNL d   1      44.315  35.598  51.772  0.00  0.00     0.304 A 
ATOM     28  O   UNL d   1      44.698  36.216  51.400  0.00  0.00    -0.300 OA
ATOM     29  C   UNL d   1      46.159  36.561  51.249  0.00  0.00     0.026 A 
ATOM     30  C   UNL d   1      46.923  36.314  51.439  0.00  0.00     0.007 A 
ENDBRANCH   2  22
TORSDOF 9
ENDMDL
MODEL 3
REMARK VINA RESULT:      -7.2      2.363      3.248
REMARK  9 active torsions:
REMARK  status: ('A' for Active; 'I' for Inactive)
REMARK       I    between atoms: C_2  and  N_1 
REMARK    1  A    between atoms: C_3  and  C_2 
REMARK    2  A    between atoms: C_15  and  C_4 
REMARK       I    between atoms: C_5  and  N_9 
REMARK    3  A    between atoms: C_6  and  C_5 
REMARK       I    between atoms: N_21  and  C_6 
REMARK    4  A    between atoms: N_9  and  C_15 
REMARK    5  A    between atoms: C_25  and  N_21 
REMARK    6  A    between atoms: N_23  and  C_26 
REMARK    7  A    between atoms: C_27  and  N_23 
REMARK    8  A    between atoms: C_28  and  N_23 
REMARK    9  A    between atoms: C_26  and  C_25 
ROOT
ATOM      1  N   UNL d   1      53.063  32.081  53.347  0.00  0.00    -0.250 N 
ATOM      2  C   UNL d   1      52.588  31.413  53.232  0.00  0.00     0.266 C 
ATOM      3  C   UNL d   1      52.879  32.864  53.154  0.00  0.00     0.190 A 
ATOM      4  O   UNL d   1      51.840  31.499  52.888  0.00  0.00    -0.267 OA
ATOM      5  O   UNL d   1      53.508  33.347  53.364  0.00  0.00    -0.285 OA
ATOM      6  C   UNL d   1      53.820  32.093  53.681  0.00  0.00     0.112 A 
ATOM      7  C   UNL d   1      54.092  32.869  53.691  0.00  0.00     0.144 A 
ENDROOT
BRANCH   3   8
ATOM      8  C   UNL d   1      52.166  33.112  52.802  0.00  0.00     0.146 C 
BRANCH   8   9
ATOM      9  N   UNL d   1      51.725  33.712  53.154  0.00  0.00    -0.199 NA
ATOM     10  C   UNL d   1      51.181  34.134  52.708  0.00  0.00     0.337 C 
ATOM     11  O   UNL d   1      51.070  33.963  51.906  0.00  0.00    -0.260 OA
BRANCH  10  12
ATOM     12  C   UNL d   1      50.739  34.734  53.061  0.00  0.00     0.337 C 
ATOM     13  O   UNL d   1      51.101  35.264  53.576  0.00  0.00    -0.260 OA
ATOM     14  N   UNL d   1      49.939  34.801  52.896  0.00  0.00    -0.201 NA
BRANCH  14  15
ATOM     15  C   UNL d   1      49.325  35.314  53.133  0.00  0.00     0.121 C 
BRANCH  15  16
ATOM     16  C   UNL d   1      48.561  35.252  52.837  0.00  0.00     0.101 C 
BRANCH  16  17
ATOM     17  N   UNL d   1      48.017  35.850  52.978  0.00  0.00    -0.301 N 
BRANCH  17  18
ATOM     18  C   UNL d   1      47.793  36.054  53.735  0.00  0.00     0.080 C 
ATOM     19  C   UNL d   1      46.992  36.167  53.936  0.00  0.00     0.021 C 
ENDBRANCH  17  18
BRANCH  17  20
ATOM     20  C   UNL d   1      47.682  36.264  52.324  0.00  0.00     0.080 C 
ATOM     21  C   UNL d   1      47.200  35.852  51.780  0.00  0.00     0.021 C 
ENDBRANCH  17  20
ENDBRANCH  16  17
ENDBRANCH  15  16
ENDBRANCH  14  15
ENDBRANCH  10  12
ENDBRANCH   8   9
ENDBRANCH   3   8
BRANCH   2  22
ATOM     22  C   UNL d   1      52.871  30.674  53.463  0.00  0.00     0.059 A 
ATOM     23  C   UNL d   1      52.785  30.405  54.229  0.00  0.00     0.031 A 
ATOM     24  C   UNL d   1      53.068  29.665  54.460  0.00  0.00     0.119 A 
ATOM     25  O   UNL d   1      53.061  29.259  55.175  0.00  0.00    -0.300 OA
ATOM     26  C   UNL d   1      53.450  29.185  53.891  0.00  0.00     0.119 A 
ATOM     27  C   UNL d   1      53.438  28.528  55.049  0.00  0.00     0.304 A 
ATOM     28  O   UNL d   1      53.674  28.484  54.268  0.00  0.00    -0.300 OA
ATOM     29  C   UNL d   1      53.541  29.447  53.114  0.00  0.00     0.026 A 
ATOM     30  C   UNL d   1      53.253  30.190  52.898  0.00  0.00     0.007 A 
ENDBRANCH   2  22
TORSDOF 9
ENDMDL
MODEL 4
REMARK VINA RESULT:      -6.9      1.644      6.790
REMARK  9 active torsions:
REMARK  status: ('A' for Active; 'I' for Inactive)
REMARK       I    between atoms: C_2  and  N_1 
REMARK    1  A    between atoms: C_3  and  C_2 
REMARK    2  A    between atoms: C_15  and  C_4 
REMARK       I    between atoms: C_5  and  N_9 
REMARK    3  A    between atoms: C_6  and  C_5 
REMARK       I    between atoms: N_21  and  C_6 
REMARK    4  A    between atoms: N_9  and  C_15 
REMARK    5  A    between atoms: C_25  and  N_21 
REMARK    6  A    between atoms: N_23  and  C_26 
REMARK    7  A    between atoms: C_27  and  N_23 
REMARK    8  A    between atoms: C_28  and  N_23 
REMARK    9  A    between atoms: C_26  and  C_25 
ROOT
ATOM      1  N   UNL d   1      48.311  35.122  51.994  0.00  0.00    -0.250 N 
ATOM      2  C   UNL d   1      48.046  35.523  52.667  0.00  0.00     0.266 C 
ATOM      3  C   UNL d   1      49.062  34.800  51.868  0.00  0.00     0.190 A 
ATOM      4  O   UNL d   1      48.561  35.634  53.306  0.00  0.00    -0.267 OA
ATOM      5  O   UNL d   1      49.084  34.452  51.125  0.00  0.00    -0.285 OA
ATOM      6  C   UNL d   1      47.871  34.965  51.311  0.00  0.00     0.112 A 
ATOM      7  C   UNL d   1      48.345  34.555  50.779  0.00  0.00     0.144 A 
ENDROOT
BRANCH   3   8
ATOM      8  C   UNL d   1      49.690  34.828  52.415  0.00  0.00     0.146 C 
BRANCH   8   9
ATOM      9  N   UNL d   1      50.392  34.430  52.250  0.00  0.00    -0.199 NA
ATOM     10  C   UNL d   1      51.044  34.535  52.737  0.00  0.00     0.337 C 
ATOM     11  O   UNL d   1      51.004  35.037  53.394  0.00  0.00    -0.260 OA
BRANCH  10  12
ATOM     12  C   UNL d   1      51.747  34.137  52.573  0.00  0.00     0.337 C 
ATOM     13  O   UNL d   1      52.296  34.466  52.056  0.00  0.00    -0.260 OA
ATOM     14  N   UNL d   1      51.897  33.413  52.925  0.00  0.00    -0.201 NA
BRANCH  14  15
ATOM     15  C   UNL d   1      52.519  32.858  52.902  0.00  0.00     0.121 C 
BRANCH  15  16
ATOM     16  C   UNL d   1      52.610  32.273  53.472  0.00  0.00     0.101 C 
BRANCH  16  17
ATOM     17  N   UNL d   1      53.143  31.661  53.351  0.00  0.00    -0.301 N 
BRANCH  17  18
ATOM     18  C   UNL d   1      52.962  31.025  52.874  0.00  0.00     0.080 C 
ATOM     19  C   UNL d   1      52.940  30.248  53.175  0.00  0.00     0.021 C 
ENDBRANCH  17  18
BRANCH  17  20
ATOM     20  C   UNL d   1      53.897  31.692  53.729  0.00  0.00     0.080 C 
ATOM     21  C   UNL d   1      53.994  32.155  54.417  0.00  0.00     0.021 C 
ENDBRANCH  17  20
ENDBRANCH  16  17
ENDBRANCH  15  16
ENDBRANCH  14  15
ENDBRANCH  10  12
ENDBRANCH   8   9
ENDBRANCH   3   8
BRANCH   2  22
ATOM     22  C   UNL d   1      47.272  35.806  52.689  0.00  0.00     0.059 A 
ATOM     23  C   UNL d   1      46.727  35.518  53.224  0.00  0.00     0.031 A 
ATOM     24  C   UNL d   1      45.953  35.801  53.245  0.00  0.00     0.119 A 
ATOM     25  O   UNL d   1      45.300  35.619  53.711  0.00  0.00    -0.300 OA
ATOM     26  C   UNL d   1      45.727  36.397  52.702  0.00  0.00     0.119 A 
ATOM     27  C   UNL d   1      44.671  36.102  53.458  0.00  0.00     0.304 A 
ATOM     28  O   UNL d   1      44.933  36.574  52.845  0.00  0.00    -0.300 OA
ATOM     29  C   UNL d   1      46.270  36.695  52.158  0.00  0.00     0.026 A 
ATOM     30  C   UNL d   1      47.041  36.402  52.149  0.00  0.00     0.007 A 
ENDBRANCH   2  22
TORSDOF 9
ENDMDL
MODEL 5
REMARK VINA RESULT:      -6.7      1.556      2.196
REMARK  9 active torsions:
REMARK  status: ('A' for Active; 'I' for Inactive)
REMARK       I    between atoms: C_2  and  N_1 
REMARK    1  A    between atoms: C_3  and  C_2 
REMARK    2  A    between atoms: C_15  and  C_4 
REMARK       I    between atoms: C_5  and  N_9 
REMARK    3  A    between atoms: C_6  and  C_5 
REMARK       I    between atoms: N_21  and  C_6 
REMARK    4  A    between atoms: N_9  and  C_15 
REMARK    5  A    between atoms: C_25  and  N_21 
REMARK    6  A    between atoms: N_23  and  C_26 
REMARK    7  A    between atoms: C_27  and  N_23 
REMARK    8  A    between atoms: C_28  and  N_23 
REMARK    9  A    between atoms: C_26  and  C_25 
ROOT
ATOM      1  N   UNL d   1      52.163  33.314  53.410  0.00  0.00    -0.250 N 
ATOM      2  C   UNL d   1      52.065  32.621  52.968  0.00  0.00     0.266 C 
ATOM      3  C   UNL d   1      51.713  34.006  53.361  0.00  0.00     0.190 A 
ATOM      4  O   UNL d   1      51.459  32.579  52.405  0.00  0.00    -0.267 OA
ATOM      5  O   UNL d   1      52.002  34.553  53.899  0.00  0.00    -0.285 OA
ATOM      6  C   UNL d   1      52.737  33.447  53.991  0.00  0.00     0.112 A 
ATOM      7  C   UNL d   1      52.637  34.207  54.290  0.00  0.00     0.144 A 
ENDROOT
BRANCH   3   8
ATOM      8  C   UNL d   1      51.069  34.119  52.844  0.00  0.00     0.146 C 
BRANCH   8   9
ATOM      9  N   UNL d   1      50.432  34.585  53.082  0.00  0.00    -0.199 NA
ATOM     10  C   UNL d   1      49.837  34.766  52.547  0.00  0.00     0.337 C 
ATOM     11  O   UNL d   1      49.869  34.485  51.769  0.00  0.00    -0.260 OA
BRANCH  10  12
ATOM     12  C   UNL d   1      49.200  35.231  52.784  0.00  0.00     0.337 C 
ATOM     13  O   UNL d   1      49.234  35.643  53.496  0.00  0.00    -0.260 OA
ATOM     14  N   UNL d   1      48.534  35.283  52.310  0.00  0.00    -0.201 NA
BRANCH  14  15
ATOM     15  C   UNL d   1      47.802  35.680  52.355  0.00  0.00     0.121 C 
BRANCH  15  16
ATOM     16  C   UNL d   1      47.245  35.648  51.751  0.00  0.00     0.101 C 
BRANCH  16  17
ATOM     17  N   UNL d   1      46.480  35.914  51.884  0.00  0.00    -0.301 N 
BRANCH  17  18
ATOM     18  C   UNL d   1      45.831  35.500  51.616  0.00  0.00     0.080 C 
ATOM     19  C   UNL d   1      45.458  35.695  50.897  0.00  0.00     0.021 C 
ENDBRANCH  17  18
BRANCH  17  20
ATOM     20  C   UNL d   1      46.364  36.635  52.308  0.00  0.00     0.080 C 
ATOM     21  C   UNL d   1      45.743  36.690  52.863  0.00  0.00     0.021 C 
ENDBRANCH  17  20
ENDBRANCH  16  17
ENDBRANCH  15  16
ENDBRANCH  14  15
ENDBRANCH  10  12
ENDBRANCH   8   9
ENDBRANCH   3   8
BRANCH   2  22
ATOM     22  C   UNL d   1      52.573  31.985  53.097  0.00  0.00     0.059 A 
ATOM     23  C   UNL d   1      52.293  31.257  53.335  0.00  0.00     0.031 A 
ATOM     24  C   UNL d   1      52.802  30.621  53.464  0.00  0.00     0.119 A 
ATOM     25  O   UNL d   1      52.680  29.842  53.700  0.00  0.00    -0.300 OA
ATOM     26  C   UNL d   1      53.623  30.733  53.348  0.00  0.00     0.119 A 
ATOM     27  C   UNL d   1      53.426  29.472  53.729  0.00  0.00     0.304 A 
ATOM     28  O   UNL d   1      53.997  30.015  53.515  0.00  0.00    -0.300 OA
ATOM     29  C   UNL d   1      53.917  31.465  53.107  0.00  0.00     0.026 A 
ATOM     30  C   UNL d   1      53.395  32.092  52.982  0.00  0.00     0.007 A 
ENDBRANCH   2  22
TORSDOF 9
ENDMDL
MODEL 6
REMARK VINA RESULT:      -4.4     10.058     11.800
REMARK  9 active torsions:
REMARK  status: ('A' for Active; 'I' for Inactive)
REMARK       I    between atoms: C_2  and  N_1 
REMARK    1  A    between atoms: C_3  and  C_2 
REMARK    2  A    between atoms: C_15  and  C_4 
REMARK       I    between atoms: C_5  and  N_9 
REMARK    3  A    between atoms: C_6  and  C_5 
REMARK       I    between atoms: N_21  and  C_6 
REMARK    4  A    between atoms: N_9  and  C_15 
REMARK    5  A    between atoms: C_25  and  N_21 
REMARK    6  A    between atoms: N_23  and  C_26 
REMARK    7  A    between atoms: C_27  and  N_23 
REMARK    8  A    between atoms: C_28  and  N_23 
REMARK    9  A    between atoms: C_26  and  C_25 
ROOT
ATOM      1  N   UNL d   1      45.067  27.954  57.655  0.00  0.00    -0.250 N 
ATOM      2  C   UNL d   1      44.825  28.398  58.310  0.00  0.00     0.266 C 
ATOM      3  C   UNL d   1      45.035  27.132  57.570  0.00  0.00     0.190 A 
ATOM      4  O   UNL d   1      44.511  28.012  58.972  0.00  0.00    -0.267 OA
ATOM      5  O   UNL d   1      45.332  26.927  56.834  0.00  0.00    -0.285 OA
ATOM      6  C   UNL d   1      45.391  28.250  56.954  0.00  0.00     0.112 A 
ATOM      7  C   UNL d   1      45.553  27.620  56.451  0.00  0.00     0.144 A 
ENDROOT
BRANCH   3   8
ATOM      8  C   UNL d   1      44.745  26.605  58.146  0.00  0.00     0.146 C 
BRANCH   8   9
ATOM      9  N   UNL d   1      44.715  25.798  57.983  0.00  0.00    -0.199 NA
ATOM     10  C   UNL d   1      44.501  25.269  58.573  0.00  0.00     0.337 C 
ATOM     11  O   UNL d   1      44.314  25.538  59.333  0.00  0.00    -0.260 OA
BRANCH  10  12
ATOM     12  C   UNL d   1      44.472  24.462  58.409  0.00  0.00     0.337 C 
ATOM     13  O   UNL d   1      44.314  23.925  59.012  0.00  0.00    -0.260 OA
ATOM     14  N   UNL d   1      44.600  24.197  57.645  0.00  0.00    -0.201 NA
BRANCH  14  15
ATOM     15  C   UNL d   1      44.617  23.453  57.269  0.00  0.00     0.121 C 
BRANCH  15  16
ATOM     16  C   UNL d   1      44.939  23.343  56.520  0.00  0.00     0.101 C 
BRANCH  16  17
ATOM     17  N   UNL d   1      44.904  22.605  56.163  0.00  0.00    -0.301 N 
BRANCH  17  18
ATOM     18  C   UNL d   1      44.361  22.439  55.578  0.00  0.00     0.080 C 
ATOM     19  C   UNL d   1      44.315  22.897  54.884  0.00  0.00     0.021 C 
ENDBRANCH  17  18
BRANCH  17  20
ATOM     20  C   UNL d   1      45.445  22.006  56.407  0.00  0.00     0.080 C 
ATOM     21  C   UNL d   1      46.051  21.761  55.886  0.00  0.00     0.021 C 
ENDBRANCH  17  20
ENDBRANCH  16  17
ENDBRANCH  15  16
ENDBRANCH  14  15
ENDBRANCH  10  12
ENDBRANCH   8   9
ENDBRANCH   3   8
BRANCH   2  22
ATOM     22  C   UNL d   1      44.903  29.219  58.291  0.00  0.00     0.059 A 
ATOM     23  C   UNL d   1      44.544  29.667  57.711  0.00  0.00     0.031 A 
ATOM     24  C   UNL d   1      44.621  30.488  57.692  0.00  0.00     0.119 A 
ATOM     25  O   UNL d   1      44.330  31.069  57.187  0.00  0.00    -0.300 OA
ATOM     26  C   UNL d   1      45.080  30.863  58.283  0.00  0.00     0.119 A 
ATOM     27  C   UNL d   1      44.608  31.802  57.466  0.00  0.00     0.304 A 
ATOM     28  O   UNL d   1      45.063  31.675  58.132  0.00  0.00    -0.300 OA
ATOM     29  C   UNL d   1      45.447  30.419  58.873  0.00  0.00     0.026 A 
ATOM     30  C   UNL d   1      45.360  29.598  58.880  0.00  0.00     0.007 A 
ENDBRANCH   2  22
TORSDOF 9
ENDMDL
