MODEL 1
REMARK VINA RESULT:      -8.2      0.000      0.000
REMARK  4 active torsions:
REMARK  status: ('A' for Active; 'I' for Inactive)
REMARK       I    between atoms: C_3  and  N_1 
REMARK    1  A    between atoms: C_5  and  N_2 
REMARK    2  A    between atoms: C_4  and  C_3 
REMARK    3  A    between atoms: C_7  and  C_4 
REMARK    4  A    between atoms: C_13  and  C_7 
ROOT
ATOM      1  N   UNL d   1      51.786  33.564  52.978  0.00  0.00    -0.269 N 
ATOM      2  N   UNL d   1      50.353  34.347  52.713  0.00  0.00    -0.301 N 
ATOM      3  C   UNL d   1      52.502  33.184  53.107  0.00  0.00     0.265 C 
ATOM      4  C   UNL d   1      51.778  34.382  52.804  0.00  0.00     0.102 A 
ATOM      5  C   UNL d   1      51.074  33.151  53.016  0.00  0.00     0.102 A 
ATOM      6  C   UNL d   1      51.060  34.772  52.671  0.00  0.00     0.100 A 
ATOM      7  C   UNL d   1      50.357  33.536  52.885  0.00  0.00     0.100 A 
ATOM      8  O   UNL d   1      53.209  33.595  53.069  0.00  0.00    -0.267 OA
ENDROOT
BRANCH   3   9
ATOM      9  C   UNL d   1      52.512  32.373  53.280  0.00  0.00     0.061 C 
BRANCH   9  10
ATOM     10  C   UNL d   1      53.215  31.943  53.219  0.00  0.00     0.005 C 
BRANCH  10  11
ATOM     11  C   UNL d   1      53.227  31.147  53.419  0.00  0.00     0.000 A 
ATOM     12  C   UNL d   1      53.554  30.917  54.136  0.00  0.00     0.002 A 
ATOM     13  C   UNL d   1      53.569  30.120  54.343  0.00  0.00     0.030 A 
ATOM     14  C   UNL d   1      53.252  29.555  53.824  0.00  0.00     0.140 A 
ATOM     15  C   UNL d   1      52.928  29.796  53.110  0.00  0.00     0.030 A 
ATOM     16  F   UNL d   1      53.267  28.757  54.031  0.00  0.00    -0.204 F 
ATOM     17  C   UNL d   1      52.917  30.592  52.910  0.00  0.00     0.002 A 
ENDBRANCH  10  11
ENDBRANCH   9  10
ENDBRANCH   3   9
BRANCH   2  18
ATOM     18  C   UNL d   1      49.633  34.733  52.582  0.00  0.00     0.065 A 
ATOM     19  C   UNL d   1      49.306  35.206  53.175  0.00  0.00     0.029 A 
ATOM     20  C   UNL d   1      48.589  35.593  53.049  0.00  0.00     0.059 A 
ATOM     21 CL   UNL d   1      48.263  36.065  53.643  0.00  0.00    -0.082 Cl
ATOM     22  C   UNL d   1      48.195  35.508  52.326  0.00  0.00     0.011 A 
ATOM     23  C   UNL d   1      48.529  35.032  51.734  0.00  0.00     0.002 A 
ATOM     24  C   UNL d   1      49.249  34.644  51.862  0.00  0.00     0.018 A 
ENDBRANCH   2  18
TORSDOF 4
ENDMDL
MODEL 2
REMARK VINA RESULT:      -8.0      1.761      2.189
REMARK  4 active torsions:
REMARK  status: ('A' for Active; 'I' for Inactive)
REMARK       I    between atoms: C_3  and  N_1 
REMARK    1  A    between atoms: C_5  and  N_2 
REMARK    2  A    between atoms: C_4  and  C_3 
REMARK    3  A    between atoms: C_7  and  C_4 
REMARK    4  A    between atoms: C_13  and  C_7 
ROOT
ATOM      1  N   UNL d   1      51.033  34.051  52.669  0.00  0.00    -0.269 N 
ATOM      2  N   UNL d   1      49.603  34.881  52.709  0.00  0.00    -0.301 N 
ATOM      3  C   UNL d   1      51.740  33.637  52.640  0.00  0.00     0.265 C 
ATOM      4  C   UNL d   1      50.542  34.079  51.993  0.00  0.00     0.102 A 
ATOM      5  C   UNL d   1      50.798  34.440  53.356  0.00  0.00     0.102 A 
ATOM      6  C   UNL d   1      49.827  34.495  52.014  0.00  0.00     0.100 A 
ATOM      7  C   UNL d   1      50.086  34.855  53.382  0.00  0.00     0.100 A 
ATOM      8  O   UNL d   1      51.973  33.250  51.956  0.00  0.00    -0.267 OA
ENDROOT
BRANCH   3   9
ATOM      9  C   UNL d   1      52.228  33.607  53.309  0.00  0.00     0.061 C 
BRANCH   9  10
ATOM     10  C   UNL d   1      52.938  33.183  53.290  0.00  0.00     0.005 C 
BRANCH  10  11
ATOM     11  C   UNL d   1      53.438  33.192  53.940  0.00  0.00     0.000 A 
ATOM     12  C   UNL d   1      53.543  32.505  54.377  0.00  0.00     0.002 A 
ATOM     13  C   UNL d   1      54.044  32.508  55.031  0.00  0.00     0.030 A 
ATOM     14  C   UNL d   1      54.439  33.207  55.243  0.00  0.00     0.140 A 
ATOM     15  C   UNL d   1      54.326  33.887  54.800  0.00  0.00     0.030 A 
ATOM     16  F   UNL d   1      54.940  33.209  55.898  0.00  0.00    -0.204 F 
ATOM     17  C   UNL d   1      53.826  33.877  54.150  0.00  0.00     0.002 A 
ENDBRANCH  10  11
ENDBRANCH   9  10
ENDBRANCH   3   9
BRANCH   2  18
ATOM     18  C   UNL d   1      48.888  35.298  52.735  0.00  0.00     0.065 A 
ATOM     19  C   UNL d   1      48.679  35.713  53.419  0.00  0.00     0.029 A 
ATOM     20  C   UNL d   1      47.969  36.129  53.449  0.00  0.00     0.059 A 
ATOM     21 CL   UNL d   1      47.760  36.543  54.133  0.00  0.00    -0.082 Cl
ATOM     22  C   UNL d   1      47.463  36.133  52.794  0.00  0.00     0.011 A 
ATOM     23  C   UNL d   1      47.678  35.715  52.111  0.00  0.00     0.002 A 
ATOM     24  C   UNL d   1      48.392  35.297  52.081  0.00  0.00     0.018 A 
ENDBRANCH   2  18
TORSDOF 4
ENDMDL
MODEL 3
REMARK VINA RESULT:      -7.6      2.869      5.749
REMARK  4 active torsions:
REMARK  status: ('A' for Active; 'I' for Inactive)
REMARK       I    between atoms: C_3  and  N_1 
REMARK    1  A    between atoms: C_5  and  N_2 
REMARK    2  A    between atoms: C_4  and  C_3 
REMARK    3  A    between atoms: C_7  and  C_4 
REMARK    4  A    between atoms: C_13  and  C_7 
ROOT
ATOM      1  N   UNL d   1      50.833  34.155  52.617  0.00  0.00    -0.269 N 
ATOM      2  N   UNL d   1      52.175  33.520  53.346  0.00  0.00    -0.301 N 
ATOM      3  C   UNL d   1      50.171  34.467  52.246  0.00  0.00     0.265 C 
ATOM      4  C   UNL d   1      51.430  33.791  52.158  0.00  0.00     0.102 A 
ATOM      5  C   UNL d   1      50.919  34.195  53.435  0.00  0.00     0.102 A 
ATOM      6  C   UNL d   1      52.101  33.473  52.524  0.00  0.00     0.100 A 
ATOM      7  C   UNL d   1      51.586  33.880  53.804  0.00  0.00     0.100 A 
ATOM      8  O   UNL d   1      50.087  34.427  51.433  0.00  0.00    -0.267 OA
ENDROOT
BRANCH   3   9
ATOM      9  C   UNL d   1      49.579  34.829  52.699  0.00  0.00     0.061 C 
BRANCH   9  10
ATOM     10  C   UNL d   1      48.962  35.237  52.329  0.00  0.00     0.005 C 
BRANCH  10  11
ATOM     11  C   UNL d   1      48.385  35.605  52.782  0.00  0.00     0.000 A 
ATOM     12  C   UNL d   1      47.617  35.650  52.495  0.00  0.00     0.002 A 
ATOM     13  C   UNL d   1      47.032  36.018  52.945  0.00  0.00     0.030 A 
ATOM     14  C   UNL d   1      47.226  36.341  53.685  0.00  0.00     0.140 A 
ATOM     15  C   UNL d   1      47.997  36.290  53.960  0.00  0.00     0.030 A 
ATOM     16  F   UNL d   1      46.642  36.709  54.135  0.00  0.00    -0.204 F 
ATOM     17  C   UNL d   1      48.574  35.922  53.507  0.00  0.00     0.002 A 
ENDBRANCH  10  11
ENDBRANCH   9  10
ENDBRANCH   3   9
BRANCH   2  18
ATOM     18  C   UNL d   1      52.844  33.203  53.716  0.00  0.00     0.065 A 
ATOM     19  C   UNL d   1      53.306  33.681  54.208  0.00  0.00     0.029 A 
ATOM     20  C   UNL d   1      53.974  33.371  54.578  0.00  0.00     0.059 A 
ATOM     21 CL   UNL d   1      54.435  33.849  55.069  0.00  0.00    -0.082 Cl
ATOM     22  C   UNL d   1      54.182  32.579  54.460  0.00  0.00     0.011 A 
ATOM     23  C   UNL d   1      53.715  32.104  53.966  0.00  0.00     0.002 A 
ATOM     24  C   UNL d   1      53.044  32.417  53.593  0.00  0.00     0.018 A 
ENDBRANCH   2  18
TORSDOF 4
ENDMDL
MODEL 4
REMARK VINA RESULT:      -7.2      2.383      3.423
REMARK  4 active torsions:
REMARK  status: ('A' for Active; 'I' for Inactive)
REMARK       I    between atoms: C_3  and  N_1 
REMARK    1  A    between atoms: C_5  and  N_2 
REMARK    2  A    between atoms: C_4  and  C_3 
REMARK    3  A    between atoms: C_7  and  C_4 
REMARK    4  A    between atoms: C_13  and  C_7 
ROOT
ATOM      1  N   UNL d   1      49.378  34.832  52.157  0.00  0.00    -0.269 N 
ATOM      2  N   UNL d   1      47.920  35.582  52.380  0.00  0.00    -0.301 N 
ATOM      3  C   UNL d   1      50.097  34.458  52.036  0.00  0.00     0.265 C 
ATOM      4  C   UNL d   1      48.801  34.824  51.550  0.00  0.00     0.102 A 
ATOM      5  C   UNL d   1      49.213  35.217  52.866  0.00  0.00     0.102 A 
ATOM      6  C   UNL d   1      48.072  35.200  51.663  0.00  0.00     0.100 A 
ATOM      7  C   UNL d   1      48.488  35.593  52.983  0.00  0.00     0.100 A 
ATOM      8  O   UNL d   1      50.260  34.076  51.331  0.00  0.00    -0.267 OA
ENDROOT
BRANCH   3   9
ATOM      9  C   UNL d   1      50.670  34.465  52.636  0.00  0.00     0.061 C 
BRANCH   9  10
ATOM     10  C   UNL d   1      51.419  34.143  52.501  0.00  0.00     0.005 C 
BRANCH  10  11
ATOM     11  C   UNL d   1      51.975  34.131  53.105  0.00  0.00     0.000 A 
ATOM     12  C   UNL d   1      52.134  33.424  53.491  0.00  0.00     0.002 A 
ATOM     13  C   UNL d   1      52.690  33.405  54.098  0.00  0.00     0.030 A 
ATOM     14  C   UNL d   1      53.086  34.102  54.315  0.00  0.00     0.140 A 
ATOM     15  C   UNL d   1      52.919  34.802  53.922  0.00  0.00     0.030 A 
ATOM     16  F   UNL d   1      53.643  34.083  54.922  0.00  0.00    -0.204 F 
ATOM     17  C   UNL d   1      52.363  34.814  53.318  0.00  0.00     0.002 A 
ENDBRANCH  10  11
ENDBRANCH   9  10
ENDBRANCH   3   9
BRANCH   2  18
ATOM     18  C   UNL d   1      47.192  35.959  52.497  0.00  0.00     0.065 A 
ATOM     19  C   UNL d   1      46.626  35.956  51.895  0.00  0.00     0.029 A 
ATOM     20  C   UNL d   1      45.900  36.330  52.008  0.00  0.00     0.059 A 
ATOM     21 CL   UNL d   1      45.335  36.327  51.406  0.00  0.00    -0.082 Cl
ATOM     22  C   UNL d   1      45.737  36.709  52.726  0.00  0.00     0.011 A 
ATOM     23  C   UNL d   1      46.309  36.709  53.326  0.00  0.00     0.002 A 
ATOM     24  C   UNL d   1      47.038  36.333  53.212  0.00  0.00     0.018 A 
ENDBRANCH   2  18
TORSDOF 4
ENDMDL
MODEL 5
REMARK VINA RESULT:      -7.1      2.640      5.586
REMARK  4 active torsions:
REMARK  status: ('A' for Active; 'I' for Inactive)
REMARK       I    between atoms: C_3  and  N_1 
REMARK    1  A    between atoms: C_5  and  N_2 
REMARK    2  A    between atoms: C_4  and  C_3 
REMARK    3  A    between atoms: C_7  and  C_4 
REMARK    4  A    between atoms: C_13  and  C_7 
ROOT
ATOM      1  N   UNL d   1      51.493  33.734  53.128  0.00  0.00    -0.269 N 
ATOM      2  N   UNL d   1      52.421  32.372  53.269  0.00  0.00    -0.301 N 
ATOM      3  C   UNL d   1      51.041  34.415  53.062  0.00  0.00     0.265 C 
ATOM      4  C   UNL d   1      52.245  33.771  53.492  0.00  0.00     0.102 A 
ATOM      5  C   UNL d   1      51.219  33.013  52.839  0.00  0.00     0.102 A 
ATOM      6  C   UNL d   1      52.708  33.089  53.563  0.00  0.00     0.100 A 
ATOM      7  C   UNL d   1      51.677  32.330  52.907  0.00  0.00     0.100 A 
ATOM      8  O   UNL d   1      51.314  35.131  53.349  0.00  0.00    -0.267 OA
ENDROOT
BRANCH   3   9
ATOM      9  C   UNL d   1      50.295  34.380  52.701  0.00  0.00     0.061 C 
BRANCH   9  10
ATOM     10  C   UNL d   1      49.772  35.018  52.762  0.00  0.00     0.005 C 
BRANCH  10  11
ATOM     11  C   UNL d   1      49.107  35.049  52.282  0.00  0.00     0.000 A 
ATOM     12  C   UNL d   1      48.432  35.429  52.554  0.00  0.00     0.002 A 
ATOM     13  C   UNL d   1      47.761  35.464  52.077  0.00  0.00     0.030 A 
ATOM     14  C   UNL d   1      47.774  35.114  51.324  0.00  0.00     0.140 A 
ATOM     15  C   UNL d   1      48.454  34.738  51.063  0.00  0.00     0.030 A 
ATOM     16  F   UNL d   1      47.103  35.149  50.847  0.00  0.00    -0.204 F 
ATOM     17  C   UNL d   1      49.119  34.706  51.543  0.00  0.00     0.002 A 
ENDBRANCH  10  11
ENDBRANCH   9  10
ENDBRANCH   3   9
BRANCH   2  18
ATOM     18  C   UNL d   1      52.881  31.687  53.337  0.00  0.00     0.065 A 
ATOM     19  C   UNL d   1      52.565  30.956  53.114  0.00  0.00     0.029 A 
ATOM     20  C   UNL d   1      53.020  30.272  53.180  0.00  0.00     0.059 A 
ATOM     21 CL   UNL d   1      52.703  29.542  52.956  0.00  0.00    -0.082 Cl
ATOM     22  C   UNL d   1      53.793  30.315  53.470  0.00  0.00     0.011 A 
ATOM     23  C   UNL d   1      54.105  31.051  53.693  0.00  0.00     0.002 A 
ATOM     24  C   UNL d   1      53.648  31.738  53.626  0.00  0.00     0.018 A 
ENDBRANCH   2  18
TORSDOF 4
ENDMDL
MODEL 6
REMARK VINA RESULT:      -5.6     10.240     11.166
REMARK  4 active torsions:
REMARK  status: ('A' for Active; 'I' for Inactive)
REMARK       I    between atoms: C_3  and  N_1 
REMARK    1  A    between atoms: C_5  and  N_2 
REMARK    2  A    between atoms: C_4  and  C_3 
REMARK    3  A    between atoms: C_7  and  C_4 
REMARK    4  A    between atoms: C_13  and  C_7 
ROOT
ATOM      1  N   UNL d   1      44.964  28.709  58.560  0.00  0.00    -0.269 N 
ATOM      2  N   UNL d   1      44.788  27.171  57.974  0.00  0.00    -0.301 N 
ATOM      3  C   UNL d   1      45.055  29.473  58.841  0.00  0.00     0.265 C 
ATOM      4  C   UNL d   1      45.197  28.525  57.778  0.00  0.00     0.102 A 
ATOM      5  C   UNL d   1      44.646  28.117  59.036  0.00  0.00     0.102 A 
ATOM      6  C   UNL d   1      45.108  27.755  57.486  0.00  0.00     0.100 A 
ATOM      7  C   UNL d   1      44.556  27.348  58.750  0.00  0.00     0.100 A 
ATOM      8  O   UNL d   1      45.371  30.061  58.367  0.00  0.00    -0.267 OA
ENDROOT
BRANCH   3   9
ATOM      9  C   UNL d   1      44.825  29.657  59.616  0.00  0.00     0.061 C 
BRANCH   9  10
ATOM     10  C   UNL d   1      44.964  30.411  59.925  0.00  0.00     0.005 C 
BRANCH  10  11
ATOM     11  C   UNL d   1      44.803  30.567  60.714  0.00  0.00     0.000 A 
ATOM     12  C   UNL d   1      44.478  31.291  60.923  0.00  0.00     0.002 A 
ATOM     13  C   UNL d   1      44.314  31.454  61.715  0.00  0.00     0.030 A 
ATOM     14  C   UNL d   1      44.478  30.882  62.294  0.00  0.00     0.140 A 
ATOM     15  C   UNL d   1      44.802  30.163  62.073  0.00  0.00     0.030 A 
ATOM     16  F   UNL d   1      44.314  31.045  63.085  0.00  0.00    -0.204 F 
ATOM     17  C   UNL d   1      44.964  30.007  61.283  0.00  0.00     0.002 A 
ENDBRANCH  10  11
ENDBRANCH   9  10
ENDBRANCH   3   9
BRANCH   2  18
ATOM     18  C   UNL d   1      44.698  26.400  57.687  0.00  0.00     0.065 A 
ATOM     19  C   UNL d   1      44.692  26.263  56.872  0.00  0.00     0.029 A 
ATOM     20  C   UNL d   1      44.602  25.497  56.582  0.00  0.00     0.059 A 
ATOM     21 CL   UNL d   1      44.596  25.361  55.767  0.00  0.00    -0.082 Cl
ATOM     22  C   UNL d   1      44.517  24.863  57.107  0.00  0.00     0.011 A 
ATOM     23  C   UNL d   1      44.524  25.007  57.923  0.00  0.00     0.002 A 
ATOM     24  C   UNL d   1      44.614  25.776  58.214  0.00  0.00     0.018 A 
ENDBRANCH   2  18
TORSDOF 4
ENDMDL
MODEL 7
REMARK VINA RESULT:      -5.4      9.864     10.971
REMARK  4 active torsions:
REMARK  status: ('A' for Active; 'I' for Inactive)
REMARK       I    between atoms: C_3  and  N_1 
REMARK    1  A    between atoms: C_5  and  N_2 
REMARK    2  A    between atoms: C_4  and  C_3 
REMARK    3  A    between atoms: C_7  and  C_4 
REMARK    4  A    between atoms: C_13  and  C_7 
ROOT
ATOM      1  N   UNL d   1      44.769  26.701  57.673  0.00  0.00    -0.269 N 
ATOM      2  N   UNL d   1      44.747  25.524  56.510  0.00  0.00    -0.301 N 
ATOM      3  C   UNL d   1      44.778  27.277  58.256  0.00  0.00     0.265 C 
ATOM      4  C   UNL d   1      44.676  25.898  57.886  0.00  0.00     0.102 A 
ATOM      5  C   UNL d   1      44.849  26.901  56.878  0.00  0.00     0.102 A 
ATOM      6  C   UNL d   1      44.666  25.310  57.304  0.00  0.00     0.100 A 
ATOM      7  C   UNL d   1      44.839  26.319  56.293  0.00  0.00     0.100 A 
ATOM      8  O   UNL d   1      44.698  27.078  59.046  0.00  0.00    -0.267 OA
ENDROOT
BRANCH   3   9
ATOM      9  C   UNL d   1      44.870  28.074  58.046  0.00  0.00     0.061 C 
BRANCH   9  10
ATOM     10  C   UNL d   1      44.782  28.668  58.614  0.00  0.00     0.005 C 
BRANCH  10  11
ATOM     11  C   UNL d   1      44.863  29.456  58.399  0.00  0.00     0.000 A 
ATOM     12  C   UNL d   1      45.286  29.964  58.886  0.00  0.00     0.002 A 
ATOM     13  C   UNL d   1      45.371  30.757  58.676  0.00  0.00     0.030 A 
ATOM     14  C   UNL d   1      45.028  31.034  57.972  0.00  0.00     0.140 A 
ATOM     15  C   UNL d   1      44.609  30.517  57.495  0.00  0.00     0.030 A 
ATOM     16  F   UNL d   1      45.114  31.826  57.762  0.00  0.00    -0.204 F 
ATOM     17  C   UNL d   1      44.528  29.729  57.710  0.00  0.00     0.002 A 
ENDBRANCH  10  11
ENDBRANCH   9  10
ENDBRANCH   3   9
BRANCH   2  18
ATOM     18  C   UNL d   1      44.737  24.939  55.924  0.00  0.00     0.065 A 
ATOM     19  C   UNL d   1      45.145  24.230  56.044  0.00  0.00     0.029 A 
ATOM     20  C   UNL d   1      45.137  23.646  55.463  0.00  0.00     0.059 A 
ATOM     21 CL   UNL d   1      45.545  22.937  55.583  0.00  0.00    -0.082 Cl
ATOM     22  C   UNL d   1      44.722  23.768  54.758  0.00  0.00     0.011 A 
ATOM     23  C   UNL d   1      44.315  24.482  54.643  0.00  0.00     0.002 A 
ATOM     24  C   UNL d   1      44.323  25.069  55.227  0.00  0.00     0.018 A 
ENDBRANCH   2  18
TORSDOF 4
ENDMDL
MODEL 8
REMARK VINA RESULT:      -5.4     10.415     10.870
REMARK  4 active torsions:
REMARK  status: ('A' for Active; 'I' for Inactive)
REMARK       I    between atoms: C_3  and  N_1 
REMARK    1  A    between atoms: C_5  and  N_2 
REMARK    2  A    between atoms: C_4  and  C_3 
REMARK    3  A    between atoms: C_7  and  C_4 
REMARK    4  A    between atoms: C_13  and  C_7 
ROOT
ATOM      1  N   UNL d   1      44.613  30.303  59.886  0.00  0.00    -0.269 N 
ATOM      2  N   UNL d   1      44.632  29.890  58.283  0.00  0.00    -0.301 N 
ATOM      3  C   UNL d   1      44.605  30.517  60.677  0.00  0.00     0.265 C 
ATOM      4  C   UNL d   1      44.690  30.893  59.298  0.00  0.00     0.102 A 
ATOM      5  C   UNL d   1      44.546  29.513  59.659  0.00  0.00     0.102 A 
ATOM      6  C   UNL d   1      44.699  30.685  58.497  0.00  0.00     0.100 A 
ATOM      7  C   UNL d   1      44.555  29.301  58.863  0.00  0.00     0.100 A 
ATOM      8  O   UNL d   1      44.671  31.302  60.901  0.00  0.00    -0.267 OA
ENDROOT
BRANCH   3   9
ATOM      9  C   UNL d   1      44.528  29.933  61.261  0.00  0.00     0.061 C 
BRANCH   9  10
ATOM     10  C   UNL d   1      44.837  30.058  62.018  0.00  0.00     0.005 C 
BRANCH  10  11
ATOM     11  C   UNL d   1      44.709  29.503  62.608  0.00  0.00     0.000 A 
ATOM     12  C   UNL d   1      44.850  28.709  62.452  0.00  0.00     0.002 A 
ATOM     13  C   UNL d   1      44.724  28.146  63.041  0.00  0.00     0.030 A 
ATOM     14  C   UNL d   1      44.454  28.388  63.788  0.00  0.00     0.140 A 
ATOM     15  C   UNL d   1      44.316  29.183  63.932  0.00  0.00     0.030 A 
ATOM     16  F   UNL d   1      44.328  27.825  64.377  0.00  0.00    -0.204 F 
ATOM     17  C   UNL d   1      44.444  29.738  63.342  0.00  0.00     0.002 A 
ENDBRANCH  10  11
ENDBRANCH   9  10
ENDBRANCH   3   9
BRANCH   2  18
ATOM     18  C   UNL d   1      44.640  29.677  57.484  0.00  0.00     0.065 A 
ATOM     19  C   UNL d   1      44.780  28.891  57.269  0.00  0.00     0.029 A 
ATOM     20  C   UNL d   1      44.789  28.674  56.474  0.00  0.00     0.059 A 
ATOM     21 CL   UNL d   1      44.928  27.889  56.260  0.00  0.00    -0.082 Cl
ATOM     22  C   UNL d   1      44.659  29.245  55.888  0.00  0.00     0.011 A 
ATOM     23  C   UNL d   1      44.520  30.032  56.110  0.00  0.00     0.002 A 
ATOM     24  C   UNL d   1      44.510  30.248  56.909  0.00  0.00     0.018 A 
ENDBRANCH   2  18
TORSDOF 4
ENDMDL
