MODEL 1
REMARK VINA RESULT:      -7.4      0.000      0.000
REMARK  8 active torsions:
REMARK  status: ('A' for Active; 'I' for Inactive)
REMARK    1  A    between atoms: S_5  and  C_2 
REMARK       I    between atoms: C_3  and  N_9 
REMARK    2  A    between atoms: C_16  and  C_3 
REMARK       I    between atoms: C_4  and  N_8 
REMARK    3  A    between atoms: C_17  and  C_4 
REMARK    4  A    between atoms: C_10  and  S_5 
REMARK    5  A    between atoms: S_11  and  C_6 
REMARK    6  A    between atoms: N_8  and  C_10 
REMARK    7  A    between atoms: N_9  and  C_12 
REMARK    8  A    between atoms: C_12  and  S_11 
ROOT
ATOM      1  N   UNL d   1      49.542  34.901  53.132  0.00  0.00    -0.214 NA
ATOM      2  C   UNL d   1      49.996  34.427  52.633  0.00  0.00     0.196 A 
ATOM      3  C   UNL d   1      48.900  35.311  52.815  0.00  0.00     0.116 A 
ATOM      4  N   UNL d   1      49.821  34.354  51.822  0.00  0.00    -0.220 NA
ATOM      5  C   UNL d   1      48.710  35.256  52.024  0.00  0.00     0.047 A 
ATOM      6  C   UNL d   1      49.163  34.782  51.525  0.00  0.00     0.103 A 
ENDROOT
BRANCH   2   7
ATOM      7  S   UNL d   1      50.657  33.990  52.906  0.00  0.00    -0.027 SA
BRANCH   7   8
ATOM      8  C   UNL d   1      51.360  34.359  53.072  0.00  0.00     0.141 C 
BRANCH   8   9
ATOM      9  N   UNL d   1      51.935  33.908  53.509  0.00  0.00    -0.199 NA
ATOM     10  C   UNL d   1      52.717  34.221  53.593  0.00  0.00     0.280 C 
ATOM     11  O   UNL d   1      52.906  34.949  53.254  0.00  0.00    -0.265 OA
BRANCH  10  12
ATOM     12  C   UNL d   1      53.302  33.817  54.007  0.00  0.00     0.058 A 
ATOM     13  C   UNL d   1      53.716  34.175  54.624  0.00  0.00     0.005 A 
ATOM     14  C   UNL d   1      54.301  33.748  55.027  0.00  0.00     0.000 A 
ATOM     15  C   UNL d   1      54.469  32.973  54.815  0.00  0.00     0.000 A 
ATOM     16  C   UNL d   1      54.065  32.618  54.209  0.00  0.00     0.000 A 
ATOM     17  C   UNL d   1      53.472  33.046  53.798  0.00  0.00     0.005 A 
ENDBRANCH  10  12
ENDBRANCH   8   9
ENDBRANCH   7   8
ENDBRANCH   2   7
BRANCH   3  18
ATOM     18  S   UNL d   1      48.438  35.791  53.311  0.00  0.00    -0.047 SA
BRANCH  18  19
ATOM     19  C   UNL d   1      47.628  35.860  53.172  0.00  0.00     0.139 C 
BRANCH  19  20
ATOM     20  N   UNL d   1      47.102  35.871  53.802  0.00  0.00    -0.199 NA
ATOM     21  C   UNL d   1      46.341  36.160  53.694  0.00  0.00     0.280 C 
ATOM     22  O   UNL d   1      46.109  36.440  52.944  0.00  0.00    -0.265 OA
BRANCH  21  23
ATOM     23  C   UNL d   1      45.811  36.172  54.326  0.00  0.00     0.058 A 
ATOM     24  C   UNL d   1      45.938  36.676  54.964  0.00  0.00     0.005 A 
ATOM     25  C   UNL d   1      45.424  36.707  55.606  0.00  0.00     0.000 A 
ATOM     26  C   UNL d   1      44.756  36.218  55.620  0.00  0.00     0.000 A 
ATOM     27  C   UNL d   1      44.601  35.692  54.981  0.00  0.00     0.000 A 
ATOM     28  C   UNL d   1      45.140  35.681  54.341  0.00  0.00     0.005 A 
ENDBRANCH  21  23
ENDBRANCH  19  20
ENDBRANCH  18  19
ENDBRANCH   3  18
TORSDOF 8
ENDMDL
MODEL 2
REMARK VINA RESULT:      -7.3      2.707      4.366
REMARK  8 active torsions:
REMARK  status: ('A' for Active; 'I' for Inactive)
REMARK    1  A    between atoms: S_5  and  C_2 
REMARK       I    between atoms: C_3  and  N_9 
REMARK    2  A    between atoms: C_16  and  C_3 
REMARK       I    between atoms: C_4  and  N_8 
REMARK    3  A    between atoms: C_17  and  C_4 
REMARK    4  A    between atoms: C_10  and  S_5 
REMARK    5  A    between atoms: S_11  and  C_6 
REMARK    6  A    between atoms: N_8  and  C_10 
REMARK    7  A    between atoms: N_9  and  C_12 
REMARK    8  A    between atoms: C_12  and  S_11 
ROOT
ATOM      1  N   UNL d   1      53.023  33.992  53.964  0.00  0.00    -0.214 NA
ATOM      2  C   UNL d   1      53.554  33.893  54.587  0.00  0.00     0.196 A 
ATOM      3  C   UNL d   1      52.734  34.748  53.804  0.00  0.00     0.116 A 
ATOM      4  N   UNL d   1      53.802  34.536  55.055  0.00  0.00    -0.220 NA
ATOM      5  C   UNL d   1      52.962  35.392  54.249  0.00  0.00     0.047 A 
ATOM      6  C   UNL d   1      53.493  35.294  54.872  0.00  0.00     0.103 A 
ENDROOT
BRANCH   2   7
ATOM      7  S   UNL d   1      53.876  33.146  54.790  0.00  0.00    -0.027 SA
BRANCH   7   8
ATOM      8  C   UNL d   1      54.062  32.603  54.216  0.00  0.00     0.141 C 
BRANCH   8   9
ATOM      9  N   UNL d   1      53.663  31.852  54.257  0.00  0.00    -0.199 NA
ATOM     10  C   UNL d   1      53.850  31.263  53.679  0.00  0.00     0.280 C 
ATOM     11  O   UNL d   1      54.409  31.425  53.093  0.00  0.00    -0.265 OA
BRANCH  10  12
ATOM     12  C   UNL d   1      53.488  30.524  53.682  0.00  0.00     0.058 A 
ATOM     13  C   UNL d   1      53.690  29.950  54.239  0.00  0.00     0.005 A 
ATOM     14  C   UNL d   1      53.311  29.212  54.222  0.00  0.00     0.000 A 
ATOM     15  C   UNL d   1      52.738  29.053  53.656  0.00  0.00     0.000 A 
ATOM     16  C   UNL d   1      52.538  29.614  53.108  0.00  0.00     0.000 A 
ATOM     17  C   UNL d   1      52.918  30.362  53.120  0.00  0.00     0.005 A 
ENDBRANCH  10  12
ENDBRANCH   8   9
ENDBRANCH   7   8
ENDBRANCH   2   7
BRANCH   3  18
ATOM     18  S   UNL d   1      52.199  34.856  53.178  0.00  0.00    -0.047 SA
BRANCH  18  19
ATOM     19  C   UNL d   1      51.473  34.463  53.190  0.00  0.00     0.139 C 
BRANCH  19  20
ATOM     20  N   UNL d   1      50.859  34.721  52.710  0.00  0.00    -0.199 NA
ATOM     21  C   UNL d   1      50.163  34.287  52.670  0.00  0.00     0.280 C 
ATOM     22  O   UNL d   1      50.086  33.588  53.117  0.00  0.00    -0.265 OA
BRANCH  21  23
ATOM     23  C   UNL d   1      49.544  34.544  52.189  0.00  0.00     0.058 A 
ATOM     24  C   UNL d   1      49.505  34.307  51.402  0.00  0.00     0.005 A 
ATOM     25  C   UNL d   1      48.898  34.550  50.902  0.00  0.00     0.000 A 
ATOM     26  C   UNL d   1      48.304  35.049  51.191  0.00  0.00     0.000 A 
ATOM     27  C   UNL d   1      48.318  35.307  51.992  0.00  0.00     0.000 A 
ATOM     28  C   UNL d   1      48.947  35.045  52.479  0.00  0.00     0.005 A 
ENDBRANCH  21  23
ENDBRANCH  19  20
ENDBRANCH  18  19
ENDBRANCH   3  18
TORSDOF 8
ENDMDL
MODEL 3
REMARK VINA RESULT:      -7.3      2.099      7.040
REMARK  8 active torsions:
REMARK  status: ('A' for Active; 'I' for Inactive)
REMARK    1  A    between atoms: S_5  and  C_2 
REMARK       I    between atoms: C_3  and  N_9 
REMARK    2  A    between atoms: C_16  and  C_3 
REMARK       I    between atoms: C_4  and  N_8 
REMARK    3  A    between atoms: C_17  and  C_4 
REMARK    4  A    between atoms: C_10  and  S_5 
REMARK    5  A    between atoms: S_11  and  C_6 
REMARK    6  A    between atoms: N_8  and  C_10 
REMARK    7  A    between atoms: N_9  and  C_12 
REMARK    8  A    between atoms: C_12  and  S_11 
ROOT
ATOM      1  N   UNL d   1      51.125  33.706  53.165  0.00  0.00    -0.214 NA
ATOM      2  C   UNL d   1      50.816  34.366  52.777  0.00  0.00     0.196 A 
ATOM      3  C   UNL d   1      51.944  33.636  53.237  0.00  0.00     0.116 A 
ATOM      4  N   UNL d   1      51.310  34.956  52.459  0.00  0.00    -0.220 NA
ATOM      5  C   UNL d   1      52.447  34.201  52.935  0.00  0.00     0.047 A 
ATOM      6  C   UNL d   1      52.139  34.860  52.547  0.00  0.00     0.103 A 
ENDROOT
BRANCH   2   7
ATOM      7  S   UNL d   1      49.993  34.484  52.677  0.00  0.00    -0.027 SA
BRANCH   7   8
ATOM      8  C   UNL d   1      49.606  35.077  53.073  0.00  0.00     0.141 C 
BRANCH   8   9
ATOM      9  N   UNL d   1      48.796  35.220  52.851  0.00  0.00    -0.199 NA
ATOM     10  C   UNL d   1      48.387  35.868  53.210  0.00  0.00     0.280 C 
ATOM     11  O   UNL d   1      48.774  36.344  53.762  0.00  0.00    -0.265 OA
BRANCH  10  12
ATOM     12  C   UNL d   1      47.604  36.041  53.024  0.00  0.00     0.058 A 
ATOM     13  C   UNL d   1      47.374  36.207  52.249  0.00  0.00     0.005 A 
ATOM     14  C   UNL d   1      46.579  36.379  52.086  0.00  0.00     0.000 A 
ATOM     15  C   UNL d   1      46.023  36.383  52.690  0.00  0.00     0.000 A 
ATOM     16  C   UNL d   1      46.246  36.221  53.452  0.00  0.00     0.000 A 
ATOM     17  C   UNL d   1      47.049  36.047  53.622  0.00  0.00     0.005 A 
ENDBRANCH  10  12
ENDBRANCH   8   9
ENDBRANCH   7   8
ENDBRANCH   2   7
BRANCH   3  18
ATOM     18  S   UNL d   1      52.263  32.975  53.627  0.00  0.00    -0.047 SA
BRANCH  18  19
ATOM     19  C   UNL d   1      52.533  32.333  53.185  0.00  0.00     0.139 C 
BRANCH  19  20
ATOM     20  N   UNL d   1      52.683  31.615  53.554  0.00  0.00    -0.199 NA
ATOM     21  C   UNL d   1      52.868  30.955  53.102  0.00  0.00     0.280 C 
ATOM     22  O   UNL d   1      52.901  31.019  52.271  0.00  0.00    -0.265 OA
BRANCH  21  23
ATOM     23  C   UNL d   1      53.019  30.232  53.470  0.00  0.00     0.058 A 
ATOM     24  C   UNL d   1      53.666  30.150  53.971  0.00  0.00     0.005 A 
ATOM     25  C   UNL d   1      53.838  29.440  54.350  0.00  0.00     0.000 A 
ATOM     26  C   UNL d   1      53.350  28.782  54.229  0.00  0.00     0.000 A 
ATOM     27  C   UNL d   1      52.681  28.837  53.723  0.00  0.00     0.000 A 
ATOM     28  C   UNL d   1      52.529  29.571  53.350  0.00  0.00     0.005 A 
ENDBRANCH  21  23
ENDBRANCH  19  20
ENDBRANCH  18  19
ENDBRANCH   3  18
TORSDOF 8
ENDMDL
MODEL 4
REMARK VINA RESULT:      -7.3      0.546      6.810
REMARK  8 active torsions:
REMARK  status: ('A' for Active; 'I' for Inactive)
REMARK    1  A    between atoms: S_5  and  C_2 
REMARK       I    between atoms: C_3  and  N_9 
REMARK    2  A    between atoms: C_16  and  C_3 
REMARK       I    between atoms: C_4  and  N_8 
REMARK    3  A    between atoms: C_17  and  C_4 
REMARK    4  A    between atoms: C_10  and  S_5 
REMARK    5  A    between atoms: S_11  and  C_6 
REMARK    6  A    between atoms: N_8  and  C_10 
REMARK    7  A    between atoms: N_9  and  C_12 
REMARK    8  A    between atoms: C_12  and  S_11 
ROOT
ATOM      1  N   UNL d   1      49.195  35.013  52.964  0.00  0.00    -0.214 NA
ATOM      2  C   UNL d   1      48.617  35.432  52.550  0.00  0.00     0.196 A 
ATOM      3  C   UNL d   1      49.694  34.507  52.545  0.00  0.00     0.116 A 
ATOM      4  N   UNL d   1      48.529  35.356  51.726  0.00  0.00    -0.220 NA
ATOM      5  C   UNL d   1      49.626  34.416  51.738  0.00  0.00     0.047 A 
ATOM      6  C   UNL d   1      49.049  34.835  51.324  0.00  0.00     0.103 A 
ENDROOT
BRANCH   2   7
ATOM      7  S   UNL d   1      48.086  35.959  52.929  0.00  0.00    -0.027 SA
BRANCH   7   8
ATOM      8  C   UNL d   1      47.283  35.867  52.852  0.00  0.00     0.141 C 
BRANCH   8   9
ATOM      9  N   UNL d   1      46.827  35.881  53.571  0.00  0.00    -0.199 NA
ATOM     10  C   UNL d   1      45.989  35.985  53.515  0.00  0.00     0.280 C 
ATOM     11  O   UNL d   1      45.633  36.071  52.775  0.00  0.00    -0.265 OA
BRANCH  10  12
ATOM     12  C   UNL d   1      45.510  36.004  54.185  0.00  0.00     0.058 A 
ATOM     13  C   UNL d   1      45.361  36.709  54.586  0.00  0.00     0.005 A 
ATOM     14  C   UNL d   1      44.876  36.703  55.258  0.00  0.00     0.000 A 
ATOM     15  C   UNL d   1      44.545  36.001  55.525  0.00  0.00     0.000 A 
ATOM     16  C   UNL d   1      44.690  35.307  55.134  0.00  0.00     0.000 A 
ATOM     17  C   UNL d   1      45.180  35.307  54.453  0.00  0.00     0.005 A 
ENDBRANCH  10  12
ENDBRANCH   8   9
ENDBRANCH   7   8
ENDBRANCH   2   7
BRANCH   3  18
ATOM     18  S   UNL d   1      50.278  34.081  52.954  0.00  0.00    -0.047 SA
BRANCH  18  19
ATOM     19  C   UNL d   1      51.066  34.321  52.907  0.00  0.00     0.139 C 
BRANCH  19  20
ATOM     20  N   UNL d   1      51.651  33.884  53.282  0.00  0.00    -0.199 NA
ATOM     21  C   UNL d   1      52.424  34.161  53.290  0.00  0.00     0.280 C 
ATOM     22  O   UNL d   1      52.608  34.883  52.918  0.00  0.00    -0.265 OA
BRANCH  21  23
ATOM     23  C   UNL d   1      53.014  33.723  53.665  0.00  0.00     0.058 A 
ATOM     24  C   UNL d   1      53.289  33.949  54.407  0.00  0.00     0.005 A 
ATOM     25  C   UNL d   1      53.877  33.529  54.802  0.00  0.00     0.000 A 
ATOM     26  C   UNL d   1      54.208  32.857  54.450  0.00  0.00     0.000 A 
ATOM     27  C   UNL d   1      53.946  32.603  53.692  0.00  0.00     0.000 A 
ATOM     28  C   UNL d   1      53.347  33.048  53.312  0.00  0.00     0.005 A 
ENDBRANCH  21  23
ENDBRANCH  19  20
ENDBRANCH  18  19
ENDBRANCH   3  18
TORSDOF 8
ENDMDL
MODEL 5
REMARK VINA RESULT:      -7.0      2.180      3.352
REMARK  8 active torsions:
REMARK  status: ('A' for Active; 'I' for Inactive)
REMARK    1  A    between atoms: S_5  and  C_2 
REMARK       I    between atoms: C_3  and  N_9 
REMARK    2  A    between atoms: C_16  and  C_3 
REMARK       I    between atoms: C_4  and  N_8 
REMARK    3  A    between atoms: C_17  and  C_4 
REMARK    4  A    between atoms: C_10  and  S_5 
REMARK    5  A    between atoms: S_11  and  C_6 
REMARK    6  A    between atoms: N_8  and  C_10 
REMARK    7  A    between atoms: N_9  and  C_12 
REMARK    8  A    between atoms: C_12  and  S_11 
ROOT
ATOM      1  N   UNL d   1      51.514  33.532  53.128  0.00  0.00    -0.214 NA
ATOM      2  C   UNL d   1      52.317  33.496  53.311  0.00  0.00     0.196 A 
ATOM      3  C   UNL d   1      51.218  34.213  52.770  0.00  0.00     0.116 A 
ATOM      4  N   UNL d   1      52.832  34.130  53.143  0.00  0.00    -0.220 NA
ATOM      5  C   UNL d   1      51.701  34.846  52.596  0.00  0.00     0.047 A 
ATOM      6  C   UNL d   1      52.505  34.812  52.779  0.00  0.00     0.103 A 
ENDROOT
BRANCH   2   7
ATOM      7  S   UNL d   1      52.667  32.827  53.674  0.00  0.00    -0.027 SA
BRANCH   7   8
ATOM      8  C   UNL d   1      52.791  32.143  53.257  0.00  0.00     0.141 C 
BRANCH   8   9
ATOM      9  N   UNL d   1      53.013  31.455  53.706  0.00  0.00    -0.199 NA
ATOM     10  C   UNL d   1      53.021  30.703  53.318  0.00  0.00     0.280 C 
ATOM     11  O   UNL d   1      52.815  30.650  52.521  0.00  0.00    -0.265 OA
BRANCH  10  12
ATOM     12  C   UNL d   1      53.229  30.013  53.716  0.00  0.00     0.058 A 
ATOM     13  C   UNL d   1      52.686  29.607  54.186  0.00  0.00     0.005 A 
ATOM     14  C   UNL d   1      52.920  28.915  54.577  0.00  0.00     0.000 A 
ATOM     15  C   UNL d   1      53.687  28.633  54.499  0.00  0.00     0.000 A 
ATOM     16  C   UNL d   1      54.223  29.029  54.038  0.00  0.00     0.000 A 
ATOM     17  C   UNL d   1      53.992  29.730  53.640  0.00  0.00     0.005 A 
ENDBRANCH  10  12
ENDBRANCH   8   9
ENDBRANCH   7   8
ENDBRANCH   2   7
BRANCH   3  18
ATOM     18  S   UNL d   1      50.410  34.256  52.582  0.00  0.00    -0.047 SA
BRANCH  18  19
ATOM     19  C   UNL d   1      49.938  34.830  52.942  0.00  0.00     0.139 C 
BRANCH  19  20
ATOM     20  N   UNL d   1      49.205  35.017  52.624  0.00  0.00    -0.199 NA
ATOM     21  C   UNL d   1      48.731  35.578  52.992  0.00  0.00     0.280 C 
ATOM     22  O   UNL d   1      48.999  35.953  53.686  0.00  0.00    -0.265 OA
BRANCH  21  23
ATOM     23  C   UNL d   1      47.994  35.767  52.674  0.00  0.00     0.058 A 
ATOM     24  C   UNL d   1      47.437  36.168  53.128  0.00  0.00     0.005 A 
ATOM     25  C   UNL d   1      46.695  36.368  52.834  0.00  0.00     0.000 A 
ATOM     26  C   UNL d   1      46.492  36.163  52.058  0.00  0.00     0.000 A 
ATOM     27  C   UNL d   1      47.042  35.752  51.571  0.00  0.00     0.000 A 
ATOM     28  C   UNL d   1      47.789  35.561  51.894  0.00  0.00     0.005 A 
ENDBRANCH  21  23
ENDBRANCH  19  20
ENDBRANCH  18  19
ENDBRANCH   3  18
TORSDOF 8
ENDMDL
MODEL 6
REMARK VINA RESULT:      -7.0      2.589      7.056
REMARK  8 active torsions:
REMARK  status: ('A' for Active; 'I' for Inactive)
REMARK    1  A    between atoms: S_5  and  C_2 
REMARK       I    between atoms: C_3  and  N_9 
REMARK    2  A    between atoms: C_16  and  C_3 
REMARK       I    between atoms: C_4  and  N_8 
REMARK    3  A    between atoms: C_17  and  C_4 
REMARK    4  A    between atoms: C_10  and  S_5 
REMARK    5  A    between atoms: S_11  and  C_6 
REMARK    6  A    between atoms: N_8  and  C_10 
REMARK    7  A    between atoms: N_9  and  C_12 
REMARK    8  A    between atoms: C_12  and  S_11 
ROOT
ATOM      1  N   UNL d   1      53.172  33.661  53.538  0.00  0.00    -0.214 NA
ATOM      2  C   UNL d   1      52.823  34.394  53.682  0.00  0.00     0.196 A 
ATOM      3  C   UNL d   1      53.789  33.413  54.026  0.00  0.00     0.116 A 
ATOM      4  N   UNL d   1      53.078  34.885  54.305  0.00  0.00    -0.220 NA
ATOM      5  C   UNL d   1      54.056  33.876  54.642  0.00  0.00     0.047 A 
ATOM      6  C   UNL d   1      53.707  34.608  54.786  0.00  0.00     0.103 A 
ENDROOT
BRANCH   2   7
ATOM      7  S   UNL d   1      52.193  34.692  53.216  0.00  0.00    -0.027 SA
BRANCH   7   8
ATOM      8  C   UNL d   1      51.484  34.300  53.174  0.00  0.00     0.141 C 
BRANCH   8   9
ATOM      9  N   UNL d   1      50.841  34.711  52.796  0.00  0.00    -0.199 NA
ATOM     10  C   UNL d   1      50.097  34.315  52.719  0.00  0.00     0.280 C 
ATOM     11  O   UNL d   1      50.008  33.548  53.009  0.00  0.00    -0.265 OA
BRANCH  10  12
ATOM     12  C   UNL d   1      49.451  34.677  52.360  0.00  0.00     0.058 A 
ATOM     13  C   UNL d   1      48.981  35.220  52.767  0.00  0.00     0.005 A 
ATOM     14  C   UNL d   1      48.336  35.570  52.383  0.00  0.00     0.000 A 
ATOM     15  C   UNL d   1      48.162  35.380  51.604  0.00  0.00     0.000 A 
ATOM     16  C   UNL d   1      48.620  34.847  51.202  0.00  0.00     0.000 A 
ATOM     17  C   UNL d   1      49.275  34.489  51.585  0.00  0.00     0.005 A 
ENDBRANCH  10  12
ENDBRANCH   8   9
ENDBRANCH   7   8
ENDBRANCH   2   7
BRANCH   3  18
ATOM     18  S   UNL d   1      54.147  32.676  53.887  0.00  0.00    -0.047 SA
BRANCH  18  19
ATOM     19  C   UNL d   1      53.687  32.044  53.622  0.00  0.00     0.139 C 
BRANCH  19  20
ATOM     20  N   UNL d   1      53.723  31.320  54.008  0.00  0.00    -0.199 NA
ATOM     21  C   UNL d   1      53.337  30.669  53.690  0.00  0.00     0.280 C 
ATOM     22  O   UNL d   1      52.913  30.748  52.977  0.00  0.00    -0.265 OA
BRANCH  21  23
ATOM     23  C   UNL d   1      53.371  29.941  54.076  0.00  0.00     0.058 A 
ATOM     24  C   UNL d   1      53.714  29.291  53.706  0.00  0.00     0.005 A 
ATOM     25  C   UNL d   1      53.759  28.554  54.071  0.00  0.00     0.000 A 
ATOM     26  C   UNL d   1      53.453  28.454  54.833  0.00  0.00     0.000 A 
ATOM     27  C   UNL d   1      53.097  29.101  55.236  0.00  0.00     0.000 A 
ATOM     28  C   UNL d   1      53.063  29.839  54.842  0.00  0.00     0.005 A 
ENDBRANCH  21  23
ENDBRANCH  19  20
ENDBRANCH  18  19
ENDBRANCH   3  18
TORSDOF 8
ENDMDL
MODEL 7
REMARK VINA RESULT:      -6.9      0.996      6.972
REMARK  8 active torsions:
REMARK  status: ('A' for Active; 'I' for Inactive)
REMARK    1  A    between atoms: S_5  and  C_2 
REMARK       I    between atoms: C_3  and  N_9 
REMARK    2  A    between atoms: C_16  and  C_3 
REMARK       I    between atoms: C_4  and  N_8 
REMARK    3  A    between atoms: C_17  and  C_4 
REMARK    4  A    between atoms: C_10  and  S_5 
REMARK    5  A    between atoms: S_11  and  C_6 
REMARK    6  A    between atoms: N_8  and  C_10 
REMARK    7  A    between atoms: N_9  and  C_12 
REMARK    8  A    between atoms: C_12  and  S_11 
ROOT
ATOM      1  N   UNL d   1      50.302  34.827  52.910  0.00  0.00    -0.214 NA
ATOM      2  C   UNL d   1      49.515  34.823  52.663  0.00  0.00     0.196 A 
ATOM      3  C   UNL d   1      50.871  34.473  52.430  0.00  0.00     0.116 A 
ATOM      4  N   UNL d   1      49.285  34.470  51.945  0.00  0.00    -0.220 NA
ATOM      5  C   UNL d   1      50.670  34.121  51.722  0.00  0.00     0.047 A 
ATOM      6  C   UNL d   1      49.884  34.116  51.475  0.00  0.00     0.103 A 
ENDROOT
BRANCH   2   7
ATOM      7  S   UNL d   1      48.900  35.169  53.114  0.00  0.00    -0.027 SA
BRANCH   7   8
ATOM      8  C   UNL d   1      48.322  35.614  52.759  0.00  0.00     0.141 C 
BRANCH   8   9
ATOM      9  N   UNL d   1      47.567  35.645  53.151  0.00  0.00    -0.199 NA
ATOM     10  C   UNL d   1      46.993  36.205  52.881  0.00  0.00     0.280 C 
ATOM     11  O   UNL d   1      47.173  36.706  52.250  0.00  0.00    -0.265 OA
BRANCH  10  12
ATOM     12  C   UNL d   1      46.251  36.267  53.232  0.00  0.00     0.058 A 
ATOM     13  C   UNL d   1      45.576  35.968  52.865  0.00  0.00     0.005 A 
ATOM     14  C   UNL d   1      44.840  36.043  53.239  0.00  0.00     0.000 A 
ATOM     15  C   UNL d   1      44.780  36.412  53.970  0.00  0.00     0.000 A 
ATOM     16  C   UNL d   1      45.442  36.707  54.332  0.00  0.00     0.000 A 
ATOM     17  C   UNL d   1      46.189  36.634  53.959  0.00  0.00     0.005 A 
ENDBRANCH  10  12
ENDBRANCH   8   9
ENDBRANCH   7   8
ENDBRANCH   2   7
BRANCH   3  18
ATOM     18  S   UNL d   1      51.666  34.473  52.672  0.00  0.00    -0.047 SA
BRANCH  18  19
ATOM     19  C   UNL d   1      51.973  33.815  53.063  0.00  0.00     0.139 C 
BRANCH  19  20
ATOM     20  N   UNL d   1      52.674  33.878  53.485  0.00  0.00    -0.199 NA
ATOM     21  C   UNL d   1      53.034  33.203  53.783  0.00  0.00     0.280 C 
ATOM     22  O   UNL d   1      52.683  32.458  53.654  0.00  0.00    -0.265 OA
BRANCH  21  23
ATOM     23  C   UNL d   1      53.738  33.264  54.207  0.00  0.00     0.058 A 
ATOM     24  C   UNL d   1      53.723  33.356  55.025  0.00  0.00     0.005 A 
ATOM     25  C   UNL d   1      54.412  33.420  55.470  0.00  0.00     0.000 A 
ATOM     26  C   UNL d   1      55.149  33.391  55.093  0.00  0.00     0.000 A 
ATOM     27  C   UNL d   1      55.195  33.298  54.258  0.00  0.00     0.000 A 
ATOM     28  C   UNL d   1      54.479  33.236  53.829  0.00  0.00     0.005 A 
ENDBRANCH  21  23
ENDBRANCH  19  20
ENDBRANCH  18  19
ENDBRANCH   3  18
TORSDOF 8
ENDMDL
MODEL 8
REMARK VINA RESULT:      -5.5     10.948     12.290
REMARK  8 active torsions:
REMARK  status: ('A' for Active; 'I' for Inactive)
REMARK    1  A    between atoms: S_5  and  C_2 
REMARK       I    between atoms: C_3  and  N_9 
REMARK    2  A    between atoms: C_16  and  C_3 
REMARK       I    between atoms: C_4  and  N_8 
REMARK    3  A    between atoms: C_17  and  C_4 
REMARK    4  A    between atoms: C_10  and  S_5 
REMARK    5  A    between atoms: S_11  and  C_6 
REMARK    6  A    between atoms: N_8  and  C_10 
REMARK    7  A    between atoms: N_9  and  C_12 
REMARK    8  A    between atoms: C_12  and  S_11 
ROOT
ATOM      1  N   UNL d   1      44.327  24.893  55.331  0.00  0.00    -0.214 NA
ATOM      2  C   UNL d   1      44.454  25.286  56.045  0.00  0.00     0.196 A 
ATOM      3  C   UNL d   1      44.480  24.083  55.290  0.00  0.00     0.116 A 
ATOM      4  N   UNL d   1      44.730  24.884  56.721  0.00  0.00    -0.220 NA
ATOM      5  C   UNL d   1      44.751  23.669  55.938  0.00  0.00     0.047 A 
ATOM      6  C   UNL d   1      44.878  24.061  56.652  0.00  0.00     0.103 A 
ENDROOT
BRANCH   2   7
ATOM      7  S   UNL d   1      44.315  26.107  56.138  0.00  0.00    -0.027 SA
BRANCH   7   8
ATOM      8  C   UNL d   1      44.801  26.562  56.601  0.00  0.00     0.141 C 
BRANCH   8   9
ATOM      9  N   UNL d   1      44.629  27.396  56.631  0.00  0.00    -0.199 NA
ATOM     10  C   UNL d   1      45.148  27.900  57.071  0.00  0.00     0.280 C 
ATOM     11  O   UNL d   1      45.801  27.579  57.460  0.00  0.00    -0.265 OA
BRANCH  10  12
ATOM     12  C   UNL d   1      45.019  28.711  57.126  0.00  0.00     0.058 A 
ATOM     13  C   UNL d   1      44.883  29.170  56.454  0.00  0.00     0.005 A 
ATOM     14  C   UNL d   1      44.755  29.985  56.534  0.00  0.00     0.000 A 
ATOM     15  C   UNL d   1      44.764  30.336  57.276  0.00  0.00     0.000 A 
ATOM     16  C   UNL d   1      44.897  29.888  57.937  0.00  0.00     0.000 A 
ATOM     17  C   UNL d   1      45.026  29.062  57.863  0.00  0.00     0.005 A 
ENDBRANCH  10  12
ENDBRANCH   8   9
ENDBRANCH   7   8
ENDBRANCH   2   7
BRANCH   3  18
ATOM     18  S   UNL d   1      44.355  23.681  54.575  0.00  0.00    -0.047 SA
BRANCH  18  19
ATOM     19  C   UNL d   1      44.968  23.241  54.242  0.00  0.00     0.139 C 
BRANCH  19  20
ATOM     20  N   UNL d   1      44.983  23.103  53.433  0.00  0.00    -0.199 NA
ATOM     21  C   UNL d   1      45.463  22.510  53.129  0.00  0.00     0.280 C 
ATOM     22  O   UNL d   1      45.932  22.053  53.644  0.00  0.00    -0.265 OA
BRANCH  21  23
ATOM     23  C   UNL d   1      45.479  22.370  52.316  0.00  0.00     0.058 A 
ATOM     24  C   UNL d   1      44.927  21.867  51.971  0.00  0.00     0.005 A 
ATOM     25  C   UNL d   1      44.922  21.710  51.163  0.00  0.00     0.000 A 
ATOM     26  C   UNL d   1      45.487  22.066  50.673  0.00  0.00     0.000 A 
ATOM     27  C   UNL d   1      46.064  22.585  50.999  0.00  0.00     0.000 A 
ATOM     28  C   UNL d   1      46.046  22.726  51.823  0.00  0.00     0.005 A 
ENDBRANCH  21  23
ENDBRANCH  19  20
ENDBRANCH  18  19
ENDBRANCH   3  18
TORSDOF 8
ENDMDL
