MODEL 1
REMARK VINA RESULT:      85.9      0.000      0.000
REMARK  5 active torsions:
REMARK  status: ('A' for Active; 'I' for Inactive)
REMARK    1  A    between atoms: C_11  and  C_4 
REMARK    2  A    between atoms: N_10  and  C_6 
REMARK    3  A    between atoms: C_13  and  C_9 
REMARK    4  A    between atoms: C_14  and  N_10 
REMARK    5  A    between atoms: C_15  and  C_14 
ROOT
ATOM      1  C   UNL d   1     -48.408  30.458  34.424  0.00  0.00     0.167 A 
ATOM      2  N   UNL d   1     -48.900  29.876  34.122  0.00  0.00    -0.195 N 
ATOM      3  N   UNL d   1     -49.530  30.832  33.306  0.00  0.00    -0.163 NA
ATOM      4  C   UNL d   1     -48.479  31.212  34.168  0.00  0.00     0.055 A 
ATOM      5  N   UNL d   1     -47.853  30.261  34.979  0.00  0.00    -0.227 NA
ATOM      6  C   UNL d   1     -48.821  29.117  34.386  0.00  0.00     0.167 A 
ATOM      7  C   UNL d   1     -49.037  31.414  33.608  0.00  0.00     0.104 A 
ATOM      8  C   UNL d   1     -48.245  28.923  34.960  0.00  0.00     0.058 A 
ATOM      9  C   UNL d   1     -47.779  29.505  35.237  0.00  0.00     0.086 A 
ATOM     10  C   UNL d   1     -49.107  32.165  33.354  0.00  0.00     0.023 C 
ENDROOT
BRANCH   6  11
ATOM     11  N   UNL d   1     -49.325  28.516  34.079  0.00  0.00    -0.224 NA
BRANCH  11  12
ATOM     12  C   UNL d   1     -49.579  28.174  33.353  0.00  0.00     0.120 C 
BRANCH  12  13
ATOM     13  C   UNL d   1     -50.150  27.561  33.350  0.00  0.00     0.101 A 
ATOM     14  N   UNL d   1     -50.969  27.749  33.312  0.00  0.00    -0.242 NA
ATOM     15  C   UNL d   1     -51.541  27.136  33.308  0.00  0.00     0.099 A 
ATOM     16  C   UNL d   1     -51.290  26.331  33.342  0.00  0.00     0.021 A 
ATOM     17  C   UNL d   1     -50.468  26.140  33.380  0.00  0.00     0.003 A 
ATOM     18  C   UNL d   1     -49.902  26.760  33.384  0.00  0.00     0.021 A 
ENDBRANCH  12  13
ENDBRANCH  11  12
ENDBRANCH   6  11
BRANCH   9  19
ATOM     19  C   UNL d   1     -47.193  29.302  35.823  0.00  0.00     0.018 C 
ATOM     20  C   UNL d   1     -47.357  29.456  36.648  0.00  0.00     0.002 C 
ATOM     21  C   UNL d   1     -46.457  28.953  35.587  0.00  0.00     0.002 C 
ENDBRANCH   9  19
BRANCH   4  22
ATOM     22  C   UNL d   1     -47.981  31.800  34.473  0.00  0.00     0.004 A 
ATOM     23  C   UNL d   1     -47.396  32.111  34.011  0.00  0.00     0.000 A 
ATOM     24  C   UNL d   1     -46.905  32.691  34.312  0.00  0.00     0.000 A 
ATOM     25  C   UNL d   1     -47.010  32.947  35.068  0.00  0.00     0.000 A 
ATOM     26  C   UNL d   1     -47.602  32.630  35.532  0.00  0.00     0.000 A 
ATOM     27  C   UNL d   1     -48.081  32.060  35.228  0.00  0.00     0.000 A 
ENDBRANCH   4  22
TORSDOF 5
ENDMDL
