MODEL 1
REMARK VINA RESULT:      -1.3      0.000      0.000
REMARK  5 active torsions:
REMARK  status: ('A' for Active; 'I' for Inactive)
REMARK    1  A    between atoms: C_6  and  N_1 
REMARK    2  A    between atoms: C_5  and  C_3 
REMARK    3  A    between atoms: C_11  and  C_4 
REMARK    4  A    between atoms: N_13  and  C_6 
REMARK    5  A    between atoms: O_23  and  C_19 
ROOT
ATOM      1  N   UNL d   1      58.148  -0.959  30.329  0.00  0.00    -0.203 N 
ATOM      2  N   UNL d   1      57.546  -0.955  30.915  0.00  0.00    -0.163 NA
ATOM      3  C   UNL d   1      58.546  -0.253  30.336  0.00  0.00     0.088 A 
ATOM      4  C   UNL d   1      57.592  -0.225  31.278  0.00  0.00     0.103 A 
ATOM      5  C   UNL d   1      58.197   0.205  30.930  0.00  0.00     0.040 A 
ENDROOT
BRANCH   3   6
ATOM      6  C   UNL d   1      59.158  -0.021  29.872  0.00  0.00     0.029 A 
ATOM      7  C   UNL d   1      59.018   0.452  29.209  0.00  0.00     0.060 A 
ATOM      8  C   UNL d   1      59.636   0.682  28.746  0.00  0.00     0.023 A 
ATOM      9 CL   UNL d   1      58.240   0.681  29.033  0.00  0.00    -0.082 Cl
ATOM     10  C   UNL d   1      60.411   0.450  28.927  0.00  0.00     0.059 A 
ATOM     11  C   UNL d   1      60.546  -0.002  29.560  0.00  0.00     0.011 A 
ATOM     12 CL   UNL d   1      61.048   0.681  28.458  0.00  0.00    -0.082 Cl
ATOM     13  C   UNL d   1      59.917  -0.246  30.045  0.00  0.00     0.003 A 
ENDBRANCH   3   6
BRANCH   1  14
ATOM     14  C   UNL d   1      58.297  -1.613  29.819  0.00  0.00     0.222 C 
ATOM     15  S   UNL d   1      58.014  -1.601  29.033  0.00  0.00    -0.037 SA
BRANCH  14  16
ATOM     16  N   UNL d   1      58.718  -2.256  30.101  0.00  0.00    -0.214 NA
ATOM     17  C   UNL d   1      58.926  -2.883  29.596  0.00  0.00     0.122 C 
ENDBRANCH  14  16
ENDBRANCH   1  14
BRANCH   4  18
ATOM     18  C   UNL d   1      57.101  -0.004  31.877  0.00  0.00     0.019 A 
ATOM     19  C   UNL d   1      57.385   0.021  32.652  0.00  0.00     0.004 A 
ATOM     20  C   UNL d   1      56.900   0.243  33.276  0.00  0.00     0.024 A 
ATOM     21  C   UNL d   1      56.098   0.448  33.115  0.00  0.00     0.094 A 
ATOM     22  C   UNL d   1      55.815   0.423  32.341  0.00  0.00     0.024 A 
ATOM     23  C   UNL d   1      56.315   0.197  31.719  0.00  0.00     0.004 A 
BRANCH  21  24
ATOM     24  O   UNL d   1      55.589   0.678  33.745  0.00  0.00    -0.328 OA
ATOM     25  C   UNL d   1      55.640   0.304  34.478  0.00  0.00     0.181 C 
ENDBRANCH  21  24
ENDBRANCH   4  18
TORSDOF 5
ENDMDL
MODEL 2
REMARK VINA RESULT:       0.5      2.666      4.985
REMARK  5 active torsions:
REMARK  status: ('A' for Active; 'I' for Inactive)
REMARK    1  A    between atoms: C_6  and  N_1 
REMARK    2  A    between atoms: C_5  and  C_3 
REMARK    3  A    between atoms: C_11  and  C_4 
REMARK    4  A    between atoms: N_13  and  C_6 
REMARK    5  A    between atoms: O_23  and  C_19 
ROOT
ATOM      1  N   UNL d   1      57.493   0.350  32.760  0.00  0.00    -0.203 N 
ATOM      2  N   UNL d   1      58.057   0.371  32.139  0.00  0.00    -0.163 NA
ATOM      3  C   UNL d   1      56.774   0.110  32.474  0.00  0.00     0.088 A 
ATOM      4  C   UNL d   1      57.658   0.136  31.466  0.00  0.00     0.103 A 
ATOM      5  C   UNL d   1      56.879  -0.024  31.664  0.00  0.00     0.040 A 
ENDROOT
BRANCH   3   6
ATOM      6  C   UNL d   1      56.085   0.014  32.873  0.00  0.00     0.029 A 
ATOM      7  C   UNL d   1      55.826  -0.745  33.074  0.00  0.00     0.060 A 
ATOM      8  C   UNL d   1      55.134  -0.836  33.475  0.00  0.00     0.023 A 
ATOM      9 CL   UNL d   1      56.287  -1.400  32.857  0.00  0.00    -0.082 Cl
ATOM     10  C   UNL d   1      54.678  -0.178  33.690  0.00  0.00     0.059 A 
ATOM     11  C   UNL d   1      54.924   0.548  33.499  0.00  0.00     0.011 A 
ATOM     12 CL   UNL d   1      53.968  -0.264  34.100  0.00  0.00    -0.082 Cl
ATOM     13  C   UNL d   1      55.636   0.654  33.085  0.00  0.00     0.003 A 
ENDBRANCH   3   6
BRANCH   1  14
ATOM     14  C   UNL d   1      57.672   0.554  33.558  0.00  0.00     0.222 C 
ATOM     15  S   UNL d   1      57.052   0.682  34.104  0.00  0.00    -0.037 SA
BRANCH  14  16
ATOM     16  N   UNL d   1      58.454   0.624  33.790  0.00  0.00    -0.214 NA
ATOM     17  C   UNL d   1      58.657   0.659  34.596  0.00  0.00     0.122 C 
ENDBRANCH  14  16
ENDBRANCH   1  14
BRANCH   4  18
ATOM     18  C   UNL d   1      58.013   0.083  30.744  0.00  0.00     0.019 A 
ATOM     19  C   UNL d   1      58.483  -0.571  30.565  0.00  0.00     0.004 A 
ATOM     20  C   UNL d   1      58.853  -0.643  29.835  0.00  0.00     0.024 A 
ATOM     21  C   UNL d   1      58.745  -0.033  29.264  0.00  0.00     0.094 A 
ATOM     22  C   UNL d   1      58.275   0.621  29.443  0.00  0.00     0.024 A 
ATOM     23  C   UNL d   1      57.908   0.681  30.184  0.00  0.00     0.004 A 
BRANCH  21  24
ATOM     24  O   UNL d   1      59.118  -0.093  28.511  0.00  0.00    -0.328 OA
ATOM     25  C   UNL d   1      59.941  -0.118  28.456  0.00  0.00     0.181 C 
ENDBRANCH  21  24
ENDBRANCH   4  18
TORSDOF 5
ENDMDL
MODEL 3
REMARK VINA RESULT:       0.9      1.636      2.161
REMARK  5 active torsions:
REMARK  status: ('A' for Active; 'I' for Inactive)
REMARK    1  A    between atoms: C_6  and  N_1 
REMARK    2  A    between atoms: C_5  and  C_3 
REMARK    3  A    between atoms: C_11  and  C_4 
REMARK    4  A    between atoms: N_13  and  C_6 
REMARK    5  A    between atoms: O_23  and  C_19 
ROOT
ATOM      1  N   UNL d   1      58.220   0.165  31.639  0.00  0.00    -0.203 N 
ATOM      2  N   UNL d   1      57.723   0.396  32.275  0.00  0.00    -0.163 NA
ATOM      3  C   UNL d   1      57.833  -0.362  31.161  0.00  0.00     0.088 A 
ATOM      4  C   UNL d   1      57.021  -0.008  32.168  0.00  0.00     0.103 A 
ATOM      5  C   UNL d   1      57.083  -0.469  31.494  0.00  0.00     0.040 A 
ENDROOT
BRANCH   3   6
ATOM      6  C   UNL d   1      58.100  -0.722  30.496  0.00  0.00     0.029 A 
ATOM      7  C   UNL d   1      57.923  -0.404  29.754  0.00  0.00     0.060 A 
ATOM      8  C   UNL d   1      58.193  -0.769  29.090  0.00  0.00     0.023 A 
ATOM      9 CL   UNL d   1      57.467   0.288  29.709  0.00  0.00    -0.082 Cl
ATOM     10  C   UNL d   1      58.648  -1.460  29.140  0.00  0.00     0.059 A 
ATOM     11  C   UNL d   1      58.818  -1.766  29.848  0.00  0.00     0.011 A 
ATOM     12 CL   UNL d   1      58.928  -1.839  28.464  0.00  0.00    -0.082 Cl
ATOM     13  C   UNL d   1      58.544  -1.397  30.541  0.00  0.00     0.003 A 
ENDBRANCH   3   6
BRANCH   1  14
ATOM     14  C   UNL d   1      59.005   0.454  31.534  0.00  0.00     0.222 C 
ATOM     15  S   UNL d   1      59.266   0.682  30.773  0.00  0.00    -0.037 SA
BRANCH  14  16
ATOM     16  N   UNL d   1      59.505   0.507  32.180  0.00  0.00    -0.214 NA
ATOM     17  C   UNL d   1      60.317   0.654  32.079  0.00  0.00     0.122 C 
ENDBRANCH  14  16
ENDBRANCH   1  14
BRANCH   4  18
ATOM     18  C   UNL d   1      56.395   0.066  32.670  0.00  0.00     0.019 A 
ATOM     19  C   UNL d   1      55.785   0.593  32.490  0.00  0.00     0.004 A 
ATOM     20  C   UNL d   1      55.139   0.682  32.989  0.00  0.00     0.024 A 
ATOM     21  C   UNL d   1      55.104   0.223  33.695  0.00  0.00     0.094 A 
ATOM     22  C   UNL d   1      55.714  -0.303  33.874  0.00  0.00     0.024 A 
ATOM     23  C   UNL d   1      56.361  -0.383  33.363  0.00  0.00     0.004 A 
BRANCH  21  24
ATOM     24  O   UNL d   1      54.448   0.304  34.216  0.00  0.00    -0.328 OA
ATOM     25  C   UNL d   1      54.541   0.670  34.950  0.00  0.00     0.181 C 
ENDBRANCH  21  24
ENDBRANCH   4  18
TORSDOF 5
ENDMDL
