MODEL 1
REMARK VINA RESULT:     109.8      0.000      0.000
REMARK  5 active torsions:
REMARK  status: ('A' for Active; 'I' for Inactive)
REMARK    1  A    between atoms: C_3  and  C_1 
REMARK    2  A    between atoms: C_5  and  C_3 
REMARK    3  A    between atoms: N_8  and  C_5 
REMARK    4  A    between atoms: C_19  and  N_11 
REMARK    5  A    between atoms: C_18  and  C_19 
ROOT
ATOM      1  C   UNL d   1      60.532  48.503  50.650  0.00  0.00     0.110 C 
ATOM      2  C   UNL d   1      61.086  48.879  50.170  0.00  0.00     0.105 C 
ATOM      3  N   UNL d   1      61.628  49.258  49.691  0.00  0.00    -0.191 NA
ENDROOT
BRANCH   1   4
ATOM      4  C   UNL d   1      59.756  48.783  50.684  0.00  0.00     0.122 A 
ATOM      5  N   UNL d   1      59.324  48.941  51.369  0.00  0.00    -0.238 NA
ATOM      6  C   UNL d   1      58.574  49.211  51.147  0.00  0.00     0.088 A 
ATOM      7  C   UNL d   1      57.921  49.448  51.588  0.00  0.00     0.020 A 
ATOM      8  C   UNL d   1      58.542  49.221  50.322  0.00  0.00     0.049 A 
ATOM      9  C   UNL d   1      57.235  49.695  51.196  0.00  0.00     0.002 A 
ATOM     10  C   UNL d   1      57.203  49.705  50.372  0.00  0.00     0.001 A 
ATOM     11  C   UNL d   1      57.857  49.468  49.931  0.00  0.00     0.008 A 
ATOM     12  S   UNL d   1      59.273  48.957  50.033  0.00  0.00    -0.066 SA
ENDBRANCH   1   4
BRANCH   1  13
ATOM     13  C   UNL d   1      60.754  47.848  51.096  0.00  0.00     0.093 C 
BRANCH  13  14
ATOM     14  N   UNL d   1      60.995  47.154  50.721  0.00  0.00    -0.299 N 
ATOM     15  C   UNL d   1      60.432  46.616  50.457  0.00  0.00     0.100 A 
ATOM     16  C   UNL d   1      60.675  45.919  50.080  0.00  0.00     0.100 A 
ATOM     17  N   UNL d   1      61.485  45.768  49.971  0.00  0.00    -0.300 N 
ATOM     18  C   UNL d   1      62.043  46.314  50.238  0.00  0.00     0.100 A 
ATOM     19  C   UNL d   1      61.803  47.004  50.612  0.00  0.00     0.100 A 
BRANCH  17  20
ATOM     20  C   UNL d   1      61.730  45.076  49.596  0.00  0.00     0.080 C 
BRANCH  20  21
ATOM     21  C   UNL d   1      61.945  44.420  50.042  0.00  0.00     0.020 A 
ATOM     22  C   UNL d   1      61.548  44.254  50.737  0.00  0.00     0.028 A 
ATOM     23  C   UNL d   1      61.762  43.599  51.186  0.00  0.00     0.119 A 
ATOM     24  O   UNL d   1      61.461  43.302  51.900  0.00  0.00    -0.300 OA
ATOM     25  C   UNL d   1      62.376  43.111  50.935  0.00  0.00     0.119 A 
ATOM     26  C   UNL d   1      61.898  42.623  52.089  0.00  0.00     0.304 A 
ATOM     27  O   UNL d   1      62.460  42.506  51.495  0.00  0.00    -0.300 OA
ATOM     28  C   UNL d   1      62.777  43.279  50.234  0.00  0.00     0.026 A 
ATOM     29  C   UNL d   1      62.561  43.938  49.783  0.00  0.00     0.004 A 
ENDBRANCH  20  21
ENDBRANCH  17  20
ENDBRANCH  13  14
ENDBRANCH   1  13
TORSDOF 5
ENDMDL
MODEL 2
REMARK VINA RESULT:     110.8      2.439      5.732
REMARK  5 active torsions:
REMARK  status: ('A' for Active; 'I' for Inactive)
REMARK    1  A    between atoms: C_3  and  C_1 
REMARK    2  A    between atoms: C_5  and  C_3 
REMARK    3  A    between atoms: N_8  and  C_5 
REMARK    4  A    between atoms: C_19  and  N_11 
REMARK    5  A    between atoms: C_18  and  C_19 
ROOT
ATOM      1  C   UNL d   1      61.634  44.950  49.764  0.00  0.00     0.110 C 
ATOM      2  C   UNL d   1      60.865  45.008  49.472  0.00  0.00     0.105 C 
ATOM      3  N   UNL d   1      60.101  45.056  49.188  0.00  0.00    -0.191 NA
ENDROOT
BRANCH   1   4
ATOM      4  C   UNL d   1      61.867  44.280  50.185  0.00  0.00     0.122 A 
ATOM      5  N   UNL d   1      61.525  44.000  50.882  0.00  0.00    -0.238 NA
ATOM      6  C   UNL d   1      61.930  43.316  51.113  0.00  0.00     0.088 A 
ATOM      7  C   UNL d   1      61.834  42.809  51.755  0.00  0.00     0.020 A 
ATOM      8  C   UNL d   1      62.524  43.174  50.559  0.00  0.00     0.049 A 
ATOM      9  C   UNL d   1      62.338  42.157  51.836  0.00  0.00     0.002 A 
ATOM     10  C   UNL d   1      62.932  42.015  51.281  0.00  0.00     0.001 A 
ATOM     11  C   UNL d   1      63.027  42.523  50.640  0.00  0.00     0.008 A 
ATOM     12  S   UNL d   1      62.487  43.769  49.983  0.00  0.00    -0.066 SA
ENDBRANCH   1   4
BRANCH   1  13
ATOM     13  C   UNL d   1      62.168  45.562  49.633  0.00  0.00     0.093 C 
BRANCH  13  14
ATOM     14  N   UNL d   1      61.928  46.347  49.718  0.00  0.00    -0.299 N 
ATOM     15  C   UNL d   1      62.269  46.931  49.251  0.00  0.00     0.100 A 
ATOM     16  C   UNL d   1      62.027  47.719  49.336  0.00  0.00     0.100 A 
ATOM     17  N   UNL d   1      61.442  47.914  49.893  0.00  0.00    -0.300 N 
ATOM     18  C   UNL d   1      61.104  47.322  50.357  0.00  0.00     0.100 A 
ATOM     19  C   UNL d   1      61.343  46.541  50.273  0.00  0.00     0.100 A 
BRANCH  17  20
ATOM     20  C   UNL d   1      61.199  48.697  49.980  0.00  0.00     0.080 C 
BRANCH  20  21
ATOM     21  C   UNL d   1      60.880  48.952  50.693  0.00  0.00     0.020 A 
ATOM     22  C   UNL d   1      61.367  49.057  51.341  0.00  0.00     0.028 A 
ATOM     23  C   UNL d   1      61.052  49.312  52.056  0.00  0.00     0.119 A 
ATOM     24  O   UNL d   1      61.409  49.462  52.790  0.00  0.00    -0.300 OA
ATOM     25  C   UNL d   1      60.245  49.462  52.120  0.00  0.00     0.119 A 
ATOM     26  C   UNL d   1      60.811  49.708  53.310  0.00  0.00     0.304 A 
ATOM     27  O   UNL d   1      60.096  49.707  52.896  0.00  0.00    -0.300 OA
ATOM     28  C   UNL d   1      59.753  49.357  51.466  0.00  0.00     0.026 A 
ATOM     29  C   UNL d   1      60.072  49.100  50.746  0.00  0.00     0.004 A 
ENDBRANCH  20  21
ENDBRANCH  17  20
ENDBRANCH  13  14
ENDBRANCH   1  13
TORSDOF 5
ENDMDL
