MODEL 1
REMARK VINA RESULT:      13.7      0.000      0.000
REMARK  3 active torsions:
REMARK  status: ('A' for Active; 'I' for Inactive)
REMARK    1  A    between atoms: C_3  and  C_1 
REMARK       I    between atoms: N_7  and  C_3 
REMARK    2  A    between atoms: C_11  and  N_7 
REMARK    3  A    between atoms: O_17  and  C_12 
ROOT
ATOM      1  C   UNL d   1      46.243 -17.957  43.663  0.00  0.00     0.121 A 
ATOM      2  C   UNL d   1      46.305 -18.607  44.135  0.00  0.00     0.305 A 
ATOM      3  C   UNL d   1      46.296 -18.041  42.838  0.00  0.00     0.012 A 
ATOM      4  O   UNL d   1      46.421 -19.351  43.789  0.00  0.00    -0.273 OA
ATOM      5  C   UNL d   1      46.412 -18.783  42.504  0.00  0.00     0.023 A 
ATOM      6  C   UNL d   1      46.474 -19.432  42.975  0.00  0.00     0.103 A 
ATOM      7  O   UNL d   1      46.251 -18.522  44.953  0.00  0.00    -0.259 OA
ATOM      8  C   UNL d   1      46.465 -18.864  41.682  0.00  0.00     0.002 A 
ATOM      9  C   UNL d   1      46.590 -20.174  42.633  0.00  0.00     0.025 A 
ATOM     10  C   UNL d   1      46.644 -20.261  41.811  0.00  0.00     0.002 A 
ATOM     11  C   UNL d   1      46.582 -19.612  41.340  0.00  0.00     0.000 A 
ENDROOT
BRANCH   1  12
ATOM     12  C   UNL d   1      46.127 -17.212  44.002  0.00  0.00     0.284 C 
ATOM     13  N   UNL d   1      45.872 -16.571  43.550  0.00  0.00    -0.208 NA
ATOM     14  O   UNL d   1      46.259 -17.075  44.805  0.00  0.00    -0.265 OA
BRANCH  13  15
ATOM     15  C   UNL d   1      45.766 -15.860  43.898  0.00  0.00     0.085 A 
ATOM     16  C   UNL d   1      45.203 -15.749  44.497  0.00  0.00     0.021 A 
ATOM     17  C   UNL d   1      45.088 -15.030  44.857  0.00  0.00     0.026 A 
ATOM     18  C   UNL d   1      45.565 -14.371  44.605  0.00  0.00     0.094 A 
ATOM     19  C   UNL d   1      46.139 -14.484  43.994  0.00  0.00     0.026 A 
ATOM     20  C   UNL d   1      46.220 -15.222  43.663  0.00  0.00     0.021 A 
BRANCH  18  21
ATOM     21  O   UNL d   1      45.467 -13.629  44.955  0.00  0.00    -0.328 OA
ATOM     22  C   UNL d   1      46.005 -13.029  44.779  0.00  0.00     0.181 C 
ENDBRANCH  18  21
ENDBRANCH  13  15
ENDBRANCH   1  12
TORSDOF 3
ENDMDL
