MODEL 1
REMARK VINA RESULT:      -5.1      0.000      0.000
REMARK  3 active torsions:
REMARK  status: ('A' for Active; 'I' for Inactive)
REMARK    1  A    between atoms: S_15  and  C_4 
REMARK    2  A    between atoms: C_9  and  C_16 
REMARK    3  A    between atoms: C_16  and  S_15 
ROOT
ATOM      1  C   UNL d   1     -41.978-123.028 -49.623  0.00  0.00     0.141 A 
ATOM      2  C   UNL d   1     -42.555-122.866 -49.055  0.00  0.00     0.110 A 
ATOM      3  O   UNL d   1     -41.349-123.406 -49.248  0.00  0.00    -0.303 OA
ATOM      4  C   UNL d   1     -42.101-122.810 -50.409  0.00  0.00     0.137 A 
ATOM      5  N   UNL d   1     -42.801-122.431 -50.628  0.00  0.00    -0.218 NA
ATOM      6  C   UNL d   1     -42.280-123.144 -48.327  0.00  0.00     0.043 A 
ATOM      7  N   UNL d   1     -43.253-122.486 -49.274  0.00  0.00    -0.225 NA
ATOM      8  C   UNL d   1     -41.536-123.478 -48.446  0.00  0.00     0.102 A 
ATOM      9  C   UNL d   1     -43.377-122.269 -50.059  0.00  0.00     0.163 A 
ATOM     10  C   UNL d   1     -42.613-123.136 -47.573  0.00  0.00     0.004 A 
ATOM     11  C   UNL d   1     -41.124-123.803 -47.810  0.00  0.00     0.025 A 
ATOM     12  C   UNL d   1     -44.075-121.889 -50.278  0.00  0.00     0.042 C 
ATOM     13  C   UNL d   1     -42.202-123.462 -46.937  0.00  0.00     0.000 A 
ATOM     14  C   UNL d   1     -41.457-123.795 -47.056  0.00  0.00     0.002 A 
ENDROOT
BRANCH   4  15
ATOM     15  S   UNL d   1     -41.525-122.972 -50.978  0.00  0.00    -0.062 SA
BRANCH  15  16
ATOM     16  C   UNL d   1     -41.302-122.388 -51.516  0.00  0.00     0.076 C 
BRANCH  16  17
ATOM     17  C   UNL d   1     -41.328-122.542 -52.326  0.00  0.00     0.169 A 
ATOM     18  N   UNL d   1     -41.558-122.009 -52.913  0.00  0.00    -0.225 NA
ATOM     19  C   UNL d   1     -41.501-122.392 -53.641  0.00  0.00     0.101 A 
ATOM     20  C   UNL d   1     -41.656-122.142 -54.412  0.00  0.00     0.021 A 
ATOM     21  C   UNL d   1     -41.237-123.163 -53.505  0.00  0.00     0.101 A 
ATOM     22  C   UNL d   1     -41.547-122.659 -55.045  0.00  0.00     0.002 A 
ATOM     23  C   UNL d   1     -41.283-123.428 -54.908  0.00  0.00     0.002 A 
ATOM     24  C   UNL d   1     -41.127-123.681 -54.138  0.00  0.00     0.021 A 
ATOM     25  N   UNL d   1     -41.130-123.254 -52.692  0.00  0.00    -0.225 NA
ENDBRANCH  16  17
ENDBRANCH  15  16
ENDBRANCH   4  15
TORSDOF 3
ENDMDL
