MODEL 1
REMARK VINA RESULT:      31.3      0.000      0.000
REMARK  7 active torsions:
REMARK  status: ('A' for Active; 'I' for Inactive)
REMARK    1  A    between atoms: C_2  and  S_1 
REMARK    2  A    between atoms: N_7  and  S_1 
REMARK    3  A    between atoms: C_5  and  C_6 
REMARK    4  A    between atoms: C_6  and  C_8 
REMARK    5  A    between atoms: C_15  and  N_7 
REMARK    6  A    between atoms: C_8  and  C_12 
REMARK    7  A    between atoms: C_18  and  C_15 
ROOT
ATOM      1  C   UNL d   1     -51.713  25.941  33.491  0.00  0.00     0.105 A 
ATOM      2  C   UNL d   1     -52.305  26.489  33.371  0.00  0.00     0.012 A 
ATOM      3  C   UNL d   1     -50.914  26.196  33.557  0.00  0.00     0.013 A 
ATOM      4  C   UNL d   1     -50.737  26.998  33.501  0.00  0.00     0.001 A 
ATOM      5  C   UNL d   1     -52.128  27.292  33.315  0.00  0.00     0.001 A 
ATOM      6  C   UNL d   1     -51.357  27.552  33.377  0.00  0.00     0.000 A 
ATOM      7  C   UNL d   1     -53.107  26.220  33.306  0.00  0.00     0.001 C 
ENDROOT
BRANCH   1   8
ATOM      8  S   UNL d   1     -51.889  25.141  33.548  0.00  0.00     0.285 S 
ATOM      9  O   UNL d   1     -51.116  24.954  33.313  0.00  0.00    -0.198 OA
ATOM     10  O   UNL d   1     -52.672  25.331  33.785  0.00  0.00    -0.198 OA
BRANCH   8  11
ATOM     11  N   UNL d   1     -52.069  24.323  33.606  0.00  0.00    -0.153 NA
BRANCH  11  12
ATOM     12  C   UNL d   1     -52.831  24.053  33.428  0.00  0.00     0.157 C 
BRANCH  12  13
ATOM     13  C   UNL d   1     -53.125  23.376  33.796  0.00  0.00     0.256 C 
ATOM     14  O   UNL d   1     -53.933  23.197  33.751  0.00  0.00    -0.281 OA
ENDBRANCH  12  13
ENDBRANCH  11  12
ENDBRANCH   8  11
ENDBRANCH   1   8
BRANCH   4  15
ATOM     15  C   UNL d   1     -49.934  27.252  33.567  0.00  0.00     0.006 C 
BRANCH  15  16
ATOM     16  C   UNL d   1     -49.734  27.779  34.165  0.00  0.00     0.070 C 
BRANCH  16  17
ATOM     17  C   UNL d   1     -48.961  27.785  34.476  0.00  0.00     0.211 C 
ATOM     18  O   UNL d   1     -48.320  27.809  33.956  0.00  0.00    -0.644 OA
ATOM     19  O   UNL d   1     -48.840  27.767  35.286  0.00  0.00    -0.644 OA
ENDBRANCH  16  17
ENDBRANCH  15  16
ENDBRANCH   4  15
TORSDOF 7
ENDMDL
