MODEL 1
REMARK VINA RESULT:      21.6      0.000      0.000
REMARK  5 active torsions:
REMARK  status: ('A' for Active; 'I' for Inactive)
REMARK    1  A    between atoms: C_8  and  C_1 
REMARK    2  A    between atoms: C_7  and  O_11 
REMARK    3  A    between atoms: C_9  and  C_7 
REMARK    4  A    between atoms: O_11  and  C_15 
REMARK    5  A    between atoms: O_23  and  C_18 
ROOT
ATOM      1  C   UNL d   1      46.000 -17.993  43.123  0.00  0.00     0.064 A 
ATOM      2  C   UNL d   1      46.196 -17.670  43.859  0.00  0.00     0.199 A 
ATOM      3  C   UNL d   1      45.594 -17.537  42.568  0.00  0.00     0.103 A 
ATOM      4  C   UNL d   1      45.986 -16.894  44.037  0.00  0.00     0.062 A 
ATOM      5  C   UNL d   1      45.581 -16.438  43.482  0.00  0.00     0.105 A 
ATOM      6  O   UNL d   1      45.385 -16.758  42.750  0.00  0.00    -0.307 OA
ATOM      7  C   UNL d   1      45.371 -15.662  43.661  0.00  0.00     0.050 A 
ATOM      8  C   UNL d   1      46.183 -16.574  44.770  0.00  0.00     0.007 A 
ATOM      9  O   UNL d   1      46.602 -18.126  44.414  0.00  0.00    -0.286 OA
ATOM     10  C   UNL d   1      45.571 -15.340  44.403  0.00  0.00     0.105 A 
ATOM     11  C   UNL d   1      45.973 -15.792  44.953  0.00  0.00     0.025 A 
ATOM     12  C   UNL d   1      45.398 -17.857  41.836  0.00  0.00     0.027 C 
ENDROOT
BRANCH   1  13
ATOM     13  C   UNL d   1      46.214 -18.774  42.951  0.00  0.00     0.027 A 
ATOM     14  C   UNL d   1      46.311 -19.326  43.556  0.00  0.00     0.094 A 
ATOM     15  C   UNL d   1      46.524 -20.100  43.377  0.00  0.00     0.024 A 
ATOM     16  C   UNL d   1      46.641 -20.330  42.588  0.00  0.00     0.002 A 
ATOM     17  C   UNL d   1      46.543 -19.772  41.977  0.00  0.00     0.000 A 
ATOM     18  C   UNL d   1      46.331 -18.997  42.155  0.00  0.00     0.002 A 
BRANCH  14  19
ATOM     19  O   UNL d   1      46.194 -19.097  44.334  0.00  0.00    -0.328 OA
ATOM     20  C   UNL d   1      46.210 -19.665  44.932  0.00  0.00     0.181 C 
ENDBRANCH  14  19
ENDBRANCH   1  13
BRANCH  10  21
ATOM     21  O   UNL d   1      45.357 -14.557  44.579  0.00  0.00    -0.271 OA
BRANCH  21  22
ATOM     22  C   UNL d   1      45.833 -13.938  44.304  0.00  0.00     0.323 C 
ATOM     23  O   UNL d   1      46.646 -13.938  44.451  0.00  0.00    -0.257 OA
BRANCH  22  24
ATOM     24  C   UNL d   1      45.491 -13.314  43.878  0.00  0.00     0.163 A 
ATOM     25  O   UNL d   1      45.291 -13.330  43.079  0.00  0.00    -0.300 OA
ATOM     26  C   UNL d   1      44.967 -12.594  42.888  0.00  0.00     0.123 A 
ATOM     27  C   UNL d   1      44.966 -12.127  43.564  0.00  0.00     0.029 A 
ATOM     28  C   UNL d   1      45.292 -12.573  44.182  0.00  0.00     0.032 A 
ENDBRANCH  22  24
ENDBRANCH  21  22
ENDBRANCH  10  21
TORSDOF 5
ENDMDL
