MODEL 1
REMARK VINA RESULT:      -9.0      0.000      0.000
REMARK  6 active torsions:
REMARK  status: ('A' for Active; 'I' for Inactive)
REMARK    1  A    between atoms: C_6  and  N_2 
REMARK    2  A    between atoms: C_7  and  C_3 
REMARK    3  A    between atoms: C_10  and  C_6 
REMARK    4  A    between atoms: C_15  and  C_7 
REMARK    5  A    between atoms: O_8  and  C_10 
REMARK    6  A    between atoms: C_9  and  O_8 
ROOT
ATOM      1  N   UNL d   1      54.069  31.325  54.427  0.00  0.00    -0.227 NA
ATOM      2  N   UNL d   1      53.383  32.187  53.669  0.00  0.00    -0.287 N 
ATOM      3  C   UNL d   1      53.931  32.141  54.300  0.00  0.00     0.148 A 
ATOM      4  C   UNL d   1      53.196  31.427  53.424  0.00  0.00     0.083 A 
ATOM      5  C   UNL d   1      53.638  30.872  53.912  0.00  0.00     0.099 A 
ATOM      6  C   UNL d   1      52.697  31.164  52.837  0.00  0.00     0.019 A 
ATOM      7  C   UNL d   1      53.516  30.065  53.740  0.00  0.00     0.021 A 
ATOM      8  C   UNL d   1      52.630  30.365  52.728  0.00  0.00     0.002 A 
ATOM      9  C   UNL d   1      53.044  29.844  53.186  0.00  0.00     0.002 A 
ENDROOT
BRANCH   2  10
ATOM     10  C   UNL d   1      53.184  32.934  53.468  0.00  0.00     0.108 C 
BRANCH  10  11
ATOM     11  C   UNL d   1      52.446  33.127  53.169  0.00  0.00     0.142 C 
BRANCH  11  12
ATOM     12  O   UNL d   1      52.244  33.882  52.931  0.00  0.00    -0.304 OA
BRANCH  12  13
ATOM     13  C   UNL d   1      51.486  34.092  52.684  0.00  0.00     0.100 A 
ATOM     14  C   UNL d   1      50.867  34.262  53.201  0.00  0.00     0.025 A 
ATOM     15  C   UNL d   1      50.111  34.471  52.954  0.00  0.00     0.002 A 
ATOM     16  C   UNL d   1      49.963  34.515  52.135  0.00  0.00     0.000 A 
ATOM     17  C   UNL d   1      50.575  34.348  51.589  0.00  0.00     0.002 A 
ATOM     18  C   UNL d   1      51.338  34.136  51.865  0.00  0.00     0.025 A 
ENDBRANCH  12  13
ENDBRANCH  11  12
ENDBRANCH  10  11
ENDBRANCH   2  10
BRANCH   3  19
ATOM     19  C   UNL d   1      54.001  32.937  54.412  0.00  0.00     0.037 C 
BRANCH  19  20
ATOM     20  C   UNL d   1      54.391  33.225  55.095  0.00  0.00     0.003 C 
ATOM     21  C   UNL d   1      54.994  33.797  55.031  0.00  0.00     0.000 C 
ENDBRANCH  19  20
ENDBRANCH   3  19
TORSDOF 6
ENDMDL
MODEL 2
REMARK VINA RESULT:      -8.9      1.156      3.761
REMARK  6 active torsions:
REMARK  status: ('A' for Active; 'I' for Inactive)
REMARK    1  A    between atoms: C_6  and  N_2 
REMARK    2  A    between atoms: C_7  and  C_3 
REMARK    3  A    between atoms: C_10  and  C_6 
REMARK    4  A    between atoms: C_15  and  C_7 
REMARK    5  A    between atoms: O_8  and  C_10 
REMARK    6  A    between atoms: C_9  and  O_8 
ROOT
ATOM      1  N   UNL d   1      53.077  34.635  54.200  0.00  0.00    -0.227 NA
ATOM      2  N   UNL d   1      53.280  33.394  53.746  0.00  0.00    -0.287 N 
ATOM      3  C   UNL d   1      53.584  33.974  54.269  0.00  0.00     0.148 A 
ATOM      4  C   UNL d   1      52.614  33.696  53.375  0.00  0.00     0.083 A 
ATOM      5  C   UNL d   1      52.483  34.496  53.668  0.00  0.00     0.099 A 
ATOM      6  C   UNL d   1      52.115  33.365  52.823  0.00  0.00     0.019 A 
ATOM      7  C   UNL d   1      51.823  34.893  53.349  0.00  0.00     0.021 A 
ATOM      8  C   UNL d   1      51.493  33.812  52.559  0.00  0.00     0.002 A 
ATOM      9  C   UNL d   1      51.371  34.562  52.834  0.00  0.00     0.002 A 
ENDROOT
BRANCH   2  10
ATOM     10  C   UNL d   1      53.699  32.714  53.737  0.00  0.00     0.108 C 
BRANCH  10  11
ATOM     11  C   UNL d   1      53.351  31.985  53.608  0.00  0.00     0.142 C 
BRANCH  11  12
ATOM     12  O   UNL d   1      53.779  31.297  53.504  0.00  0.00    -0.304 OA
BRANCH  12  13
ATOM     13  C   UNL d   1      53.446  30.544  53.550  0.00  0.00     0.100 A 
ATOM     14  C   UNL d   1      52.940  30.232  52.978  0.00  0.00     0.025 A 
ATOM     15  C   UNL d   1      52.609  29.481  53.025  0.00  0.00     0.002 A 
ATOM     16  C   UNL d   1      52.795  29.008  53.685  0.00  0.00     0.000 A 
ATOM     17  C   UNL d   1      53.307  29.302  54.280  0.00  0.00     0.002 A 
ATOM     18  C   UNL d   1      53.632  30.072  54.210  0.00  0.00     0.025 A 
ENDBRANCH  12  13
ENDBRANCH  11  12
ENDBRANCH  10  11
ENDBRANCH   2  10
BRANCH   3  19
ATOM     19  C   UNL d   1      54.205  33.532  54.535  0.00  0.00     0.037 C 
BRANCH  19  20
ATOM     20  C   UNL d   1      54.637  33.788  55.205  0.00  0.00     0.003 C 
ATOM     21  C   UNL d   1      55.470  33.832  55.182  0.00  0.00     0.000 C 
ENDBRANCH  19  20
ENDBRANCH   3  19
TORSDOF 6
ENDMDL
MODEL 3
REMARK VINA RESULT:      -8.4      1.333      4.174
REMARK  6 active torsions:
REMARK  status: ('A' for Active; 'I' for Inactive)
REMARK    1  A    between atoms: C_6  and  N_2 
REMARK    2  A    between atoms: C_7  and  C_3 
REMARK    3  A    between atoms: C_10  and  C_6 
REMARK    4  A    between atoms: C_15  and  C_7 
REMARK    5  A    between atoms: O_8  and  C_10 
REMARK    6  A    between atoms: C_9  and  O_8 
ROOT
ATOM      1  N   UNL d   1      52.139  35.045  53.595  0.00  0.00    -0.227 NA
ATOM      2  N   UNL d   1      52.487  33.779  53.341  0.00  0.00    -0.287 N 
ATOM      3  C   UNL d   1      51.961  34.388  53.108  0.00  0.00     0.148 A 
ATOM      4  C   UNL d   1      52.964  34.058  53.946  0.00  0.00     0.083 A 
ATOM      5  C   UNL d   1      52.740  34.874  54.110  0.00  0.00     0.099 A 
ATOM      6  C   UNL d   1      53.561  33.696  54.365  0.00  0.00     0.019 A 
ATOM      7  C   UNL d   1      53.171  35.252  54.715  0.00  0.00     0.021 A 
ATOM      8  C   UNL d   1      53.935  34.126  54.940  0.00  0.00     0.002 A 
ATOM      9  C   UNL d   1      53.725  34.891  55.093  0.00  0.00     0.002 A 
ENDROOT
BRANCH   2  10
ATOM     10  C   UNL d   1      52.397  33.099  52.931  0.00  0.00     0.108 C 
BRANCH  10  11
ATOM     11  C   UNL d   1      52.723  32.390  53.178  0.00  0.00     0.142 C 
BRANCH  11  12
ATOM     12  O   UNL d   1      52.674  31.700  52.744  0.00  0.00    -0.304 OA
BRANCH  12  13
ATOM     13  C   UNL d   1      52.883  30.960  53.042  0.00  0.00     0.100 A 
ATOM     14  C   UNL d   1      53.656  30.746  53.234  0.00  0.00     0.025 A 
ATOM     15  C   UNL d   1      53.863  30.008  53.531  0.00  0.00     0.002 A 
ATOM     16  C   UNL d   1      53.260  29.445  53.644  0.00  0.00     0.000 A 
ATOM     17  C   UNL d   1      52.467  29.638  53.457  0.00  0.00     0.002 A 
ATOM     18  C   UNL d   1      52.279  30.398  53.155  0.00  0.00     0.025 A 
ENDBRANCH  12  13
ENDBRANCH  11  12
ENDBRANCH  10  11
ENDBRANCH   2  10
BRANCH   3  19
ATOM     19  C   UNL d   1      51.585  33.962  52.534  0.00  0.00     0.037 C 
BRANCH  19  20
ATOM     20  C   UNL d   1      51.091  34.356  51.985  0.00  0.00     0.003 C 
ATOM     21  C   UNL d   1      50.312  34.092  51.849  0.00  0.00     0.000 C 
ENDBRANCH  19  20
ENDBRANCH   3  19
TORSDOF 6
ENDMDL
MODEL 4
REMARK VINA RESULT:      -8.2      0.595      2.387
REMARK  6 active torsions:
REMARK  status: ('A' for Active; 'I' for Inactive)
REMARK    1  A    between atoms: C_6  and  N_2 
REMARK    2  A    between atoms: C_7  and  C_3 
REMARK    3  A    between atoms: C_10  and  C_6 
REMARK    4  A    between atoms: C_15  and  C_7 
REMARK    5  A    between atoms: O_8  and  C_10 
REMARK    6  A    between atoms: C_9  and  O_8 
ROOT
ATOM      1  N   UNL d   1      54.031  31.917  54.377  0.00  0.00    -0.227 NA
ATOM      2  N   UNL d   1      53.242  32.695  53.629  0.00  0.00    -0.287 N 
ATOM      3  C   UNL d   1      53.478  31.900  53.750  0.00  0.00     0.148 A 
ATOM      4  C   UNL d   1      53.637  33.173  54.164  0.00  0.00     0.083 A 
ATOM      5  C   UNL d   1      54.147  32.672  54.647  0.00  0.00     0.099 A 
ATOM      6  C   UNL d   1      53.610  33.978  54.281  0.00  0.00     0.019 A 
ATOM      7  C   UNL d   1      54.596  33.068  55.227  0.00  0.00     0.021 A 
ATOM      8  C   UNL d   1      54.075  34.292  54.865  0.00  0.00     0.002 A 
ATOM      9  C   UNL d   1      54.553  33.823  55.317  0.00  0.00     0.002 A 
ENDROOT
BRANCH   2  10
ATOM     10  C   UNL d   1      52.707  32.787  53.043  0.00  0.00     0.108 C 
BRANCH  10  11
ATOM     11  C   UNL d   1      52.126  33.363  53.065  0.00  0.00     0.142 C 
BRANCH  11  12
ATOM     12  O   UNL d   1      51.776  33.671  52.394  0.00  0.00    -0.304 OA
BRANCH  12  13
ATOM     13  C   UNL d   1      51.027  34.015  52.390  0.00  0.00     0.100 A 
ATOM     14  C   UNL d   1      50.662  34.326  53.061  0.00  0.00     0.025 A 
ATOM     15  C   UNL d   1      49.914  34.668  53.055  0.00  0.00     0.002 A 
ATOM     16  C   UNL d   1      49.502  34.703  52.332  0.00  0.00     0.000 A 
ATOM     17  C   UNL d   1      49.850  34.394  51.636  0.00  0.00     0.002 A 
ATOM     18  C   UNL d   1      50.615  34.050  51.666  0.00  0.00     0.025 A 
ENDBRANCH  12  13
ENDBRANCH  11  12
ENDBRANCH  10  11
ENDBRANCH   2  10
BRANCH   3  19
ATOM     19  C   UNL d   1      53.015  31.583  53.169  0.00  0.00     0.037 C 
BRANCH  19  20
ATOM     20  C   UNL d   1      53.175  30.810  52.890  0.00  0.00     0.003 C 
ATOM     21  C   UNL d   1      52.583  30.223  52.902  0.00  0.00     0.000 C 
ENDBRANCH  19  20
ENDBRANCH   3  19
TORSDOF 6
ENDMDL
MODEL 5
REMARK VINA RESULT:      -6.8      1.098      3.962
REMARK  6 active torsions:
REMARK  status: ('A' for Active; 'I' for Inactive)
REMARK    1  A    between atoms: C_6  and  N_2 
REMARK    2  A    between atoms: C_7  and  C_3 
REMARK    3  A    between atoms: C_10  and  C_6 
REMARK    4  A    between atoms: C_15  and  C_7 
REMARK    5  A    between atoms: O_8  and  C_10 
REMARK    6  A    between atoms: C_9  and  O_8 
ROOT
ATOM      1  N   UNL d   1      51.162  32.071  52.920  0.00  0.00    -0.227 NA
ATOM      2  N   UNL d   1      52.409  32.543  53.025  0.00  0.00    -0.287 N 
ATOM      3  C   UNL d   1      51.961  31.835  52.998  0.00  0.00     0.148 A 
ATOM      4  C   UNL d   1      51.899  33.181  52.964  0.00  0.00     0.083 A 
ATOM      5  C   UNL d   1      51.095  32.877  52.896  0.00  0.00     0.099 A 
ATOM      6  C   UNL d   1      52.045  33.982  52.961  0.00  0.00     0.019 A 
ATOM      7  C   UNL d   1      50.496  33.453  52.829  0.00  0.00     0.021 A 
ATOM      8  C   UNL d   1      51.412  34.482  52.892  0.00  0.00     0.002 A 
ATOM      9  C   UNL d   1      50.659  34.197  52.828  0.00  0.00     0.002 A 
ENDROOT
BRANCH   2  10
ATOM     10  C   UNL d   1      53.196  32.425  53.100  0.00  0.00     0.108 C 
BRANCH  10  11
ATOM     11  C   UNL d   1      53.685  32.958  53.484  0.00  0.00     0.142 C 
BRANCH  11  12
ATOM     12  O   UNL d   1      54.406  32.750  53.805  0.00  0.00    -0.304 OA
BRANCH  12  13
ATOM     13  C   UNL d   1      54.778  33.181  54.402  0.00  0.00     0.100 A 
ATOM     14  C   UNL d   1      54.554  33.150  55.195  0.00  0.00     0.025 A 
ATOM     15  C   UNL d   1      54.926  33.580  55.790  0.00  0.00     0.002 A 
ATOM     16  C   UNL d   1      55.563  34.074  55.580  0.00  0.00     0.000 A 
ATOM     17  C   UNL d   1      55.810  34.123  54.782  0.00  0.00     0.002 A 
ATOM     18  C   UNL d   1      55.415  33.674  54.192  0.00  0.00     0.025 A 
ENDBRANCH  12  13
ENDBRANCH  11  12
ENDBRANCH  10  11
ENDBRANCH   2  10
BRANCH   3  19
ATOM     19  C   UNL d   1      52.590  31.333  53.067  0.00  0.00     0.037 C 
BRANCH  19  20
ATOM     20  C   UNL d   1      52.485  30.517  52.911  0.00  0.00     0.003 C 
ATOM     21  C   UNL d   1      52.898  29.943  53.354  0.00  0.00     0.000 C 
ENDBRANCH  19  20
ENDBRANCH   3  19
TORSDOF 6
ENDMDL
