MODEL 1
REMARK VINA RESULT:      -8.2      0.000      0.000
REMARK  2 active torsions:
REMARK  status: ('A' for Active; 'I' for Inactive)
REMARK    1  A    between atoms: C_13  and  N_8 
REMARK    2  A    between atoms: C_14  and  C_13 
ROOT
ATOM      1  C   UNL d   1      53.599  32.998  54.239  0.00  0.00     0.093 A 
ATOM      2  N   UNL d   1      53.782  34.229  54.938  0.00  0.00    -0.179 NA
ATOM      3  C   UNL d   1      53.970  33.428  54.838  0.00  0.00     0.284 A 
ATOM      4  C   UNL d   1      53.047  33.366  53.746  0.00  0.00     0.091 A 
ATOM      5  C   UNL d   1      53.231  34.597  54.445  0.00  0.00     0.223 A 
ATOM      6  N   UNL d   1      52.866  34.163  53.851  0.00  0.00    -0.217 NA
ATOM      7  C   UNL d   1      53.781  32.200  54.133  0.00  0.00     0.087 A 
ATOM      8  N   UNL d   1      53.412  31.778  53.539  0.00  0.00    -0.302 N 
ATOM      9  C   UNL d   1      52.677  32.936  53.147  0.00  0.00     0.038 A 
ATOM     10  S   UNL d   1      53.046  35.397  54.548  0.00  0.00    -0.037 SA
ATOM     11  O   UNL d   1      54.523  33.067  55.336  0.00  0.00    -0.265 OA
ATOM     12  C   UNL d   1      52.859  32.146  53.046  0.00  0.00     0.082 A 
ENDROOT
BRANCH   8  13
ATOM     13  C   UNL d   1      53.592  30.972  53.429  0.00  0.00     0.080 C 
BRANCH  13  14
ATOM     14  C   UNL d   1      52.982  30.414  53.411  0.00  0.00     0.019 C 
ATOM     15  C   UNL d   1      53.165  29.612  53.464  0.00  0.00     0.002 C 
ENDBRANCH  13  14
ENDBRANCH   8  13
TORSDOF 2
ENDMDL
MODEL 2
REMARK VINA RESULT:      -7.9      1.859      3.502
REMARK  2 active torsions:
REMARK  status: ('A' for Active; 'I' for Inactive)
REMARK    1  A    between atoms: C_13  and  N_8 
REMARK    2  A    between atoms: C_14  and  C_13 
ROOT
ATOM      1  C   UNL d   1      53.147  32.396  53.415  0.00  0.00     0.093 A 
ATOM      2  N   UNL d   1      52.758  31.148  52.840  0.00  0.00    -0.179 NA
ATOM      3  C   UNL d   1      52.727  31.977  52.842  0.00  0.00     0.284 A 
ATOM      4  C   UNL d   1      53.593  31.990  53.980  0.00  0.00     0.091 A 
ATOM      5  C   UNL d   1      53.203  30.743  53.405  0.00  0.00     0.223 A 
ATOM      6  N   UNL d   1      53.619  31.166  53.972  0.00  0.00    -0.217 NA
ATOM      7  C   UNL d   1      53.121  33.220  53.423  0.00  0.00     0.087 A 
ATOM      8  N   UNL d   1      53.538  33.632  53.992  0.00  0.00    -0.302 N 
ATOM      9  C   UNL d   1      54.013  32.409  54.553  0.00  0.00     0.038 A 
ATOM     10  S   UNL d   1      53.232  29.916  53.400  0.00  0.00    -0.037 SA
ATOM     11  O   UNL d   1      52.278  32.375  52.272  0.00  0.00    -0.265 OA
ATOM     12  C   UNL d   1      53.985  33.226  54.558  0.00  0.00     0.082 A 
ENDROOT
BRANCH   8  13
ATOM     13  C   UNL d   1      53.515  34.464  54.004  0.00  0.00     0.080 C 
BRANCH  13  14
ATOM     14  C   UNL d   1      53.105  34.854  54.607  0.00  0.00     0.019 C 
ATOM     15  C   UNL d   1      53.008  35.672  54.567  0.00  0.00     0.002 C 
ENDBRANCH  13  14
ENDBRANCH   8  13
TORSDOF 2
ENDMDL
MODEL 3
REMARK VINA RESULT:      -7.7      1.802      2.811
REMARK  2 active torsions:
REMARK  status: ('A' for Active; 'I' for Inactive)
REMARK    1  A    between atoms: C_13  and  N_8 
REMARK    2  A    between atoms: C_14  and  C_13 
ROOT
ATOM      1  C   UNL d   1      52.875  34.306  53.948  0.00  0.00     0.093 A 
ATOM      2  N   UNL d   1      53.900  34.546  54.913  0.00  0.00    -0.179 NA
ATOM      3  C   UNL d   1      53.269  34.825  54.453  0.00  0.00     0.284 A 
ATOM      4  C   UNL d   1      53.109  33.514  53.904  0.00  0.00     0.091 A 
ATOM      5  C   UNL d   1      54.134  33.755  54.868  0.00  0.00     0.223 A 
ATOM      6  N   UNL d   1      53.737  33.242  54.364  0.00  0.00    -0.217 NA
ATOM      7  C   UNL d   1      52.246  34.577  53.488  0.00  0.00     0.087 A 
ATOM      8  N   UNL d   1      51.858  34.059  52.990  0.00  0.00    -0.302 N 
ATOM      9  C   UNL d   1      52.714  32.994  53.399  0.00  0.00     0.038 A 
ATOM     10  S   UNL d   1      54.764  33.479  55.328  0.00  0.00    -0.037 SA
ATOM     11  O   UNL d   1      53.041  35.619  54.503  0.00  0.00    -0.265 OA
ATOM     12  C   UNL d   1      52.092  33.267  52.945  0.00  0.00     0.082 A 
ENDROOT
BRANCH   8  13
ATOM     13  C   UNL d   1      51.223  34.328  52.523  0.00  0.00     0.080 C 
BRANCH  13  14
ATOM     14  C   UNL d   1      50.446  34.167  52.756  0.00  0.00     0.019 C 
ATOM     15  C   UNL d   1      49.820  34.495  52.331  0.00  0.00     0.002 C 
ENDBRANCH  13  14
ENDBRANCH   8  13
TORSDOF 2
ENDMDL
MODEL 4
REMARK VINA RESULT:      -7.5      1.673      2.819
REMARK  2 active torsions:
REMARK  status: ('A' for Active; 'I' for Inactive)
REMARK    1  A    between atoms: C_13  and  N_8 
REMARK    2  A    between atoms: C_14  and  C_13 
ROOT
ATOM      1  C   UNL d   1      53.000  33.442  53.694  0.00  0.00     0.093 A 
ATOM      2  N   UNL d   1      54.052  32.777  54.395  0.00  0.00    -0.179 NA
ATOM      3  C   UNL d   1      53.415  32.750  53.864  0.00  0.00     0.284 A 
ATOM      4  C   UNL d   1      53.220  34.155  54.052  0.00  0.00     0.091 A 
ATOM      5  C   UNL d   1      54.271  33.488  54.752  0.00  0.00     0.223 A 
ATOM      6  N   UNL d   1      53.854  34.174  54.579  0.00  0.00    -0.217 NA
ATOM      7  C   UNL d   1      52.366  33.423  53.167  0.00  0.00     0.087 A 
ATOM      8  N   UNL d   1      51.958  34.111  53.001  0.00  0.00    -0.302 N 
ATOM      9  C   UNL d   1      52.805  34.847  53.882  0.00  0.00     0.038 A 
ATOM     10  S   UNL d   1      54.906  33.512  55.282  0.00  0.00    -0.037 SA
ATOM     11  O   UNL d   1      53.203  32.033  53.510  0.00  0.00    -0.265 OA
ATOM     12  C   UNL d   1      52.177  34.823  53.359  0.00  0.00     0.082 A 
ENDROOT
BRANCH   8  13
ATOM     13  C   UNL d   1      51.317  34.096  52.470  0.00  0.00     0.080 C 
BRANCH  13  14
ATOM     14  C   UNL d   1      50.565  34.320  52.728  0.00  0.00     0.019 C 
ATOM     15  C   UNL d   1      49.936  34.316  52.195  0.00  0.00     0.002 C 
ENDBRANCH  13  14
ENDBRANCH   8  13
TORSDOF 2
ENDMDL
MODEL 5
REMARK VINA RESULT:      -7.0      1.866      2.670
REMARK  2 active torsions:
REMARK  status: ('A' for Active; 'I' for Inactive)
REMARK    1  A    between atoms: C_13  and  N_8 
REMARK    2  A    between atoms: C_14  and  C_13 
ROOT
ATOM      1  C   UNL d   1      52.518  34.066  53.508  0.00  0.00     0.093 A 
ATOM      2  N   UNL d   1      51.357  34.823  53.165  0.00  0.00    -0.179 NA
ATOM      3  C   UNL d   1      52.114  34.785  53.503  0.00  0.00     0.284 A 
ATOM      4  C   UNL d   1      52.170  33.393  53.178  0.00  0.00     0.091 A 
ATOM      5  C   UNL d   1      51.009  34.151  52.836  0.00  0.00     0.223 A 
ATOM      6  N   UNL d   1      51.417  33.438  52.844  0.00  0.00    -0.217 NA
ATOM      7  C   UNL d   1      53.271  34.020  53.842  0.00  0.00     0.087 A 
ATOM      8  N   UNL d   1      53.669  33.306  53.845  0.00  0.00    -0.302 N 
ATOM      9  C   UNL d   1      52.575  32.674  53.183  0.00  0.00     0.038 A 
ATOM     10  S   UNL d   1      50.254  34.192  52.499  0.00  0.00    -0.037 SA
ATOM     11  O   UNL d   1      52.455  35.463  53.831  0.00  0.00    -0.265 OA
ATOM     12  C   UNL d   1      53.320  32.633  53.515  0.00  0.00     0.082 A 
ENDROOT
BRANCH   8  13
ATOM     13  C   UNL d   1      54.429  33.256  54.181  0.00  0.00     0.080 C 
BRANCH  13  14
ATOM     14  C   UNL d   1      54.513  33.240  55.004  0.00  0.00     0.019 C 
ATOM     15  C   UNL d   1      55.192  33.555  55.347  0.00  0.00     0.002 C 
ENDBRANCH  13  14
ENDBRANCH   8  13
TORSDOF 2
ENDMDL
