MODEL 1
REMARK VINA RESULT:      -3.0      0.000      0.000
REMARK  3 active torsions:
REMARK  status: ('A' for Active; 'I' for Inactive)
REMARK    1  A    between atoms: N_2  and  S_1 
REMARK    2  A    between atoms: C_3  and  S_1 
REMARK    3  A    between atoms: C_5  and  N_4 
ROOT
ATOM      1  N   UNL d   1      32.781  20.374 -22.226  0.00  0.00    -0.226 N 
ATOM      2  N   UNL d   1      32.666  21.682 -21.227  0.00  0.00    -0.301 N 
ATOM      3  C   UNL d   1      33.241  21.051 -22.378  0.00  0.00     0.111 A 
ATOM      4  C   UNL d   1      32.272  20.359 -21.583  0.00  0.00     0.111 A 
ATOM      5  C   UNL d   1      32.215  21.013 -21.083  0.00  0.00     0.100 A 
ATOM      6  C   UNL d   1      33.184  21.705 -21.878  0.00  0.00     0.100 A 
ENDROOT
BRANCH   1   7
ATOM      7  S   UNL d   1      32.838  19.720 -22.726  0.00  0.00     0.271 S 
ATOM      8  O   UNL d   1      32.848  19.221 -22.071  0.00  0.00    -0.200 OA
ATOM      9  O   UNL d   1      32.828  20.221 -23.383  0.00  0.00    -0.200 OA
BRANCH   7  10
ATOM     10  C   UNL d   1      32.895  19.066 -23.226  0.00  0.00     0.104 A 
ATOM     11  C   UNL d   1      32.735  18.314 -22.940  0.00  0.00     0.015 A 
ATOM     12  C   UNL d   1      32.793  17.661 -23.439  0.00  0.00     0.028 A 
ATOM     13  C   UNL d   1      32.630  16.905 -23.148  0.00  0.00     0.002 C 
ATOM     14  C   UNL d   1      33.010  17.760 -24.224  0.00  0.00     0.140 A 
ATOM     15  C   UNL d   1      33.174  18.520 -24.520  0.00  0.00     0.030 A 
ATOM     16  F   UNL d   1      33.067  17.106 -24.723  0.00  0.00    -0.204 F 
ATOM     17  C   UNL d   1      33.116  19.173 -24.021  0.00  0.00     0.015 A 
ENDBRANCH   7  10
ENDBRANCH   1   7
BRANCH   2  18
ATOM     18  C   UNL d   1      32.609  22.333 -20.730  0.00  0.00     0.064 A 
ATOM     19  C   UNL d   1      32.893  22.292 -19.962  0.00  0.00     0.016 A 
ATOM     20  C   UNL d   1      32.836  22.946 -19.462  0.00  0.00     0.001 A 
ATOM     21  C   UNL d   1      33.239  21.592 -19.687  0.00  0.00     0.002 C 
ATOM     22  C   UNL d   1      32.494  23.640 -19.732  0.00  0.00     0.000 A 
ATOM     23  C   UNL d   1      32.203  23.690 -20.509  0.00  0.00     0.001 A 
ATOM     24  C   UNL d   1      32.261  23.036 -21.009  0.00  0.00     0.016 A 
ATOM     25  C   UNL d   1      31.976  23.078 -21.778  0.00  0.00     0.002 C 
ENDBRANCH   2  18
TORSDOF 3
ENDMDL
MODEL 2
REMARK VINA RESULT:      -2.9      0.258      1.172
REMARK  3 active torsions:
REMARK  status: ('A' for Active; 'I' for Inactive)
REMARK    1  A    between atoms: N_2  and  S_1 
REMARK    2  A    between atoms: C_3  and  S_1 
REMARK    3  A    between atoms: C_5  and  N_4 
ROOT
ATOM      1  N   UNL d   1      32.839  20.342 -22.381  0.00  0.00    -0.226 N 
ATOM      2  N   UNL d   1      32.713  21.675 -21.418  0.00  0.00    -0.301 N 
ATOM      3  C   UNL d   1      32.366  20.314 -21.697  0.00  0.00     0.111 A 
ATOM      4  C   UNL d   1      33.241  21.030 -22.575  0.00  0.00     0.111 A 
ATOM      5  C   UNL d   1      33.178  21.697 -22.094  0.00  0.00     0.100 A 
ATOM      6  C   UNL d   1      32.303  20.980 -21.215  0.00  0.00     0.100 A 
ENDROOT
BRANCH   1   7
ATOM      7  S   UNL d   1      32.902  19.675 -22.863  0.00  0.00     0.271 S 
ATOM      8  O   UNL d   1      32.589  19.209 -22.259  0.00  0.00    -0.200 OA
ATOM      9  O   UNL d   1      33.215  20.141 -23.468  0.00  0.00    -0.200 OA
BRANCH   7  10
ATOM     10  C   UNL d   1      32.965  19.008 -23.345  0.00  0.00     0.104 A 
ATOM     11  C   UNL d   1      33.060  18.265 -23.010  0.00  0.00     0.015 A 
ATOM     12  C   UNL d   1      33.123  17.599 -23.491  0.00  0.00     0.028 A 
ATOM     13  C   UNL d   1      33.219  16.852 -23.150  0.00  0.00     0.002 C 
ATOM     14  C   UNL d   1      33.090  17.676 -24.307  0.00  0.00     0.140 A 
ATOM     15  C   UNL d   1      32.993  18.426 -24.653  0.00  0.00     0.030 A 
ATOM     16  F   UNL d   1      33.153  17.009 -24.788  0.00  0.00    -0.204 F 
ATOM     17  C   UNL d   1      32.931  19.092 -24.172  0.00  0.00     0.015 A 
ENDBRANCH   7  10
ENDBRANCH   1   7
BRANCH   2  18
ATOM     18  C   UNL d   1      32.651  22.339 -20.939  0.00  0.00     0.064 A 
ATOM     19  C   UNL d   1      32.330  23.034 -21.235  0.00  0.00     0.016 A 
ATOM     20  C   UNL d   1      32.267  23.701 -20.754  0.00  0.00     0.001 A 
ATOM     21  C   UNL d   1      32.069  23.065 -22.020  0.00  0.00     0.002 C 
ATOM     22  C   UNL d   1      32.525  23.671 -19.977  0.00  0.00     0.000 A 
ATOM     23  C   UNL d   1      32.851  22.972 -19.668  0.00  0.00     0.001 A 
ATOM     24  C   UNL d   1      32.914  22.305 -20.150  0.00  0.00     0.016 A 
ATOM     25  C   UNL d   1      33.235  21.610 -19.853  0.00  0.00     0.002 C 
ENDBRANCH   2  18
TORSDOF 3
ENDMDL
MODEL 3
REMARK VINA RESULT:      -2.4      1.815      5.286
REMARK  3 active torsions:
REMARK  status: ('A' for Active; 'I' for Inactive)
REMARK    1  A    between atoms: N_2  and  S_1 
REMARK    2  A    between atoms: C_3  and  S_1 
REMARK    3  A    between atoms: C_5  and  N_4 
ROOT
ATOM      1  N   UNL d   1      32.718  19.200 -22.921  0.00  0.00    -0.226 N 
ATOM      2  N   UNL d   1      32.520  17.729 -23.642  0.00  0.00    -0.301 N 
ATOM      3  C   UNL d   1      32.110  19.092 -23.480  0.00  0.00     0.111 A 
ATOM      4  C   UNL d   1      33.216  18.577 -22.731  0.00  0.00     0.111 A 
ATOM      5  C   UNL d   1      33.117  17.841 -23.091  0.00  0.00     0.100 A 
ATOM      6  C   UNL d   1      32.011  18.357 -23.840  0.00  0.00     0.100 A 
ENDROOT
BRANCH   1   7
ATOM      7  S   UNL d   1      32.817  19.936 -22.561  0.00  0.00     0.271 S 
ATOM      8  O   UNL d   1      33.199  20.215 -23.236  0.00  0.00    -0.200 OA
ATOM      9  O   UNL d   1      32.434  19.656 -21.885  0.00  0.00    -0.200 OA
BRANCH   7  10
ATOM     10  C   UNL d   1      32.916  20.671 -22.201  0.00  0.00     0.104 A 
ATOM     11  C   UNL d   1      32.822  20.749 -21.390  0.00  0.00     0.015 A 
ATOM     12  C   UNL d   1      32.921  21.484 -21.031  0.00  0.00     0.028 A 
ATOM     13  C   UNL d   1      32.825  21.559 -20.213  0.00  0.00     0.002 C 
ATOM     14  C   UNL d   1      33.114  22.141 -21.482  0.00  0.00     0.140 A 
ATOM     15  C   UNL d   1      33.211  22.069 -22.305  0.00  0.00     0.030 A 
ATOM     16  F   UNL d   1      33.213  22.877 -21.122  0.00  0.00    -0.204 F 
ATOM     17  C   UNL d   1      33.112  21.334 -22.665  0.00  0.00     0.015 A 
ENDBRANCH   7  10
ENDBRANCH   1   7
BRANCH   2  18
ATOM     18  C   UNL d   1      32.422  16.997 -24.000  0.00  0.00     0.064 A 
ATOM     19  C   UNL d   1      31.968  16.417 -23.638  0.00  0.00     0.016 A 
ATOM     20  C   UNL d   1      31.869  15.682 -23.998  0.00  0.00     0.001 A 
ATOM     21  C   UNL d   1      31.608  16.572 -22.909  0.00  0.00     0.002 C 
ATOM     22  C   UNL d   1      32.224  15.527 -24.719  0.00  0.00     0.000 A 
ATOM     23  C   UNL d   1      32.685  16.108 -25.094  0.00  0.00     0.001 A 
ATOM     24  C   UNL d   1      32.785  16.844 -24.734  0.00  0.00     0.016 A 
ATOM     25  C   UNL d   1      33.239  17.424 -25.097  0.00  0.00     0.002 C 
ENDBRANCH   2  18
TORSDOF 3
ENDMDL
MODEL 4
REMARK VINA RESULT:      -2.3      0.751      1.452
REMARK  3 active torsions:
REMARK  status: ('A' for Active; 'I' for Inactive)
REMARK    1  A    between atoms: N_2  and  S_1 
REMARK    2  A    between atoms: C_3  and  S_1 
REMARK    3  A    between atoms: C_5  and  N_4 
ROOT
ATOM      1  N   UNL d   1      32.833  19.968 -22.419  0.00  0.00    -0.226 N 
ATOM      2  N   UNL d   1      32.916  21.460 -21.720  0.00  0.00    -0.301 N 
ATOM      3  C   UNL d   1      33.199  20.595 -22.826  0.00  0.00     0.111 A 
ATOM      4  C   UNL d   1      32.516  20.093 -21.672  0.00  0.00     0.111 A 
ATOM      5  C   UNL d   1      32.557  20.839 -21.323  0.00  0.00     0.100 A 
ATOM      6  C   UNL d   1      33.240  21.341 -22.477  0.00  0.00     0.100 A 
ENDROOT
BRANCH   1   7
ATOM      7  S   UNL d   1      32.792  19.222 -22.768  0.00  0.00     0.271 S 
ATOM      8  O   UNL d   1      32.580  19.569 -23.485  0.00  0.00    -0.200 OA
ATOM      9  O   UNL d   1      33.004  18.873 -22.050  0.00  0.00    -0.200 OA
BRANCH   7  10
ATOM     10  C   UNL d   1      32.750  18.475 -23.118  0.00  0.00     0.104 A 
ATOM     11  C   UNL d   1      32.228  18.338 -23.734  0.00  0.00     0.015 A 
ATOM     12  C   UNL d   1      32.186  17.593 -24.084  0.00  0.00     0.028 A 
ATOM     13  C   UNL d   1      31.658  17.458 -24.705  0.00  0.00     0.002 C 
ATOM     14  C   UNL d   1      32.667  16.985 -23.816  0.00  0.00     0.140 A 
ATOM     15  C   UNL d   1      33.199  17.118 -23.190  0.00  0.00     0.030 A 
ATOM     16  F   UNL d   1      32.625  16.239 -24.165  0.00  0.00    -0.204 F 
ATOM     17  C   UNL d   1      33.241  17.863 -22.841  0.00  0.00     0.015 A 
ENDBRANCH   7  10
ENDBRANCH   1   7
BRANCH   2  18
ATOM     18  C   UNL d   1      32.958  22.203 -21.372  0.00  0.00     0.064 A 
ATOM     19  C   UNL d   1      32.839  22.877 -21.824  0.00  0.00     0.016 A 
ATOM     20  C   UNL d   1      32.881  23.624 -21.474  0.00  0.00     0.001 A 
ATOM     21  C   UNL d   1      32.678  22.808 -22.632  0.00  0.00     0.002 C 
ATOM     22  C   UNL d   1      33.041  23.693 -20.674  0.00  0.00     0.000 A 
ATOM     23  C   UNL d   1      33.162  23.015 -20.209  0.00  0.00     0.001 A 
ATOM     24  C   UNL d   1      33.120  22.269 -20.558  0.00  0.00     0.016 A 
ATOM     25  C   UNL d   1      33.239  21.594 -20.106  0.00  0.00     0.002 C 
ENDBRANCH   2  18
TORSDOF 3
ENDMDL
