MODEL 1
REMARK VINA RESULT:     -10.4      0.000      0.000
REMARK  3 active torsions:
REMARK  status: ('A' for Active; 'I' for Inactive)
REMARK    1  A    between atoms: O_9  and  C_1 
REMARK    2  A    between atoms: C_13  and  O_9 
REMARK    3  A    between atoms: C_16  and  C_11 
ROOT
ATOM      1  C   UNL d   1      53.356  32.827  53.179  0.00  0.00     0.161 A 
ATOM      2  C   UNL d   1      53.313  31.421  53.426  0.00  0.00     0.064 A 
ATOM      3  C   UNL d   1      53.692  32.138  53.514  0.00  0.00     0.222 A 
ATOM      4  C   UNL d   1      52.604  31.362  53.014  0.00  0.00     0.106 A 
ATOM      5  C   UNL d   1      52.634  32.767  52.759  0.00  0.00     0.126 A 
ATOM      6  O   UNL d   1      52.274  32.019  52.689  0.00  0.00    -0.305 OA
ATOM      7  C   UNL d   1      53.662  30.755  53.764  0.00  0.00     0.008 A 
ATOM      8  C   UNL d   1      52.244  30.635  52.940  0.00  0.00     0.067 A 
ATOM      9  C   UNL d   1      52.574  29.964  53.267  0.00  0.00     0.198 A 
ATOM     10  C   UNL d   1      53.297  30.025  53.687  0.00  0.00     0.039 A 
ATOM     11  O   UNL d   1      54.402  32.197  53.926  0.00  0.00    -0.284 OA
ATOM     12  O   UNL d   1      52.178  29.228  53.173  0.00  0.00    -0.286 OA
ATOM     13  C   UNL d   1      52.268  33.439  52.410  0.00  0.00     0.029 C 
ENDROOT
BRANCH   1  14
ATOM     14  O   UNL d   1      53.753  33.564  53.273  0.00  0.00    -0.302 OA
BRANCH  14  15
ATOM     15  C   UNL d   1      53.516  34.085  53.879  0.00  0.00     0.100 A 
ATOM     16  C   UNL d   1      53.738  33.934  54.658  0.00  0.00     0.025 A 
ATOM     17  C   UNL d   1      53.504  34.446  55.245  0.00  0.00     0.002 A 
ATOM     18  C   UNL d   1      53.039  35.125  55.065  0.00  0.00     0.000 A 
ATOM     19  C   UNL d   1      52.825  35.261  54.281  0.00  0.00     0.002 A 
ATOM     20  C   UNL d   1      53.065  34.738  53.685  0.00  0.00     0.025 A 
ENDBRANCH  14  15
ENDBRANCH   1  14
BRANCH  10  21
ATOM     21  C   UNL d   1      53.663  29.352  54.036  0.00  0.00     0.003 C 
ATOM     22  C   UNL d   1      53.467  29.121  54.818  0.00  0.00     0.000 C 
ENDBRANCH  10  21
TORSDOF 3
ENDMDL
MODEL 2
REMARK VINA RESULT:     -10.3      1.152      4.053
REMARK  3 active torsions:
REMARK  status: ('A' for Active; 'I' for Inactive)
REMARK    1  A    between atoms: O_9  and  C_1 
REMARK    2  A    between atoms: C_13  and  O_9 
REMARK    3  A    between atoms: C_16  and  C_11 
ROOT
ATOM      1  C   UNL d   1      53.504  32.250  53.370  0.00  0.00     0.161 A 
ATOM      2  C   UNL d   1      52.518  33.261  53.160  0.00  0.00     0.064 A 
ATOM      3  C   UNL d   1      52.850  32.549  52.942  0.00  0.00     0.222 A 
ATOM      4  C   UNL d   1      52.813  33.693  53.793  0.00  0.00     0.106 A 
ATOM      5  C   UNL d   1      53.805  32.691  54.016  0.00  0.00     0.126 A 
ATOM      6  O   UNL d   1      53.440  33.414  54.211  0.00  0.00    -0.305 OA
ATOM      7  C   UNL d   1      51.873  33.536  52.723  0.00  0.00     0.008 A 
ATOM      8  C   UNL d   1      52.463  34.402  53.991  0.00  0.00     0.067 A 
ATOM      9  C   UNL d   1      51.825  34.691  53.572  0.00  0.00     0.198 A 
ATOM     10  C   UNL d   1      51.525  34.250  52.926  0.00  0.00     0.039 A 
ATOM     11  O   UNL d   1      52.555  32.116  52.308  0.00  0.00    -0.284 OA
ATOM     12  O   UNL d   1      51.486  35.426  53.801  0.00  0.00    -0.286 OA
ATOM     13  C   UNL d   1      54.460  32.420  54.469  0.00  0.00     0.029 C 
ENDROOT
BRANCH   1  14
ATOM     14  O   UNL d   1      53.843  31.514  53.141  0.00  0.00    -0.302 OA
BRANCH  14  15
ATOM     15  C   UNL d   1      53.506  30.803  53.414  0.00  0.00     0.100 A 
ATOM     16  C   UNL d   1      53.659  30.546  54.181  0.00  0.00     0.025 A 
ATOM     17  C   UNL d   1      53.328  29.851  54.442  0.00  0.00     0.002 A 
ATOM     18  C   UNL d   1      52.832  29.393  53.937  0.00  0.00     0.000 A 
ATOM     19  C   UNL d   1      52.689  29.664  53.173  0.00  0.00     0.002 A 
ATOM     20  C   UNL d   1      53.028  30.373  52.910  0.00  0.00     0.025 A 
ENDBRANCH  14  15
ENDBRANCH   1  14
BRANCH  10  21
ATOM     21  C   UNL d   1      50.869  34.521  52.473  0.00  0.00     0.003 C 
ATOM     22  C   UNL d   1      50.123  34.143  52.540  0.00  0.00     0.000 C 
ENDBRANCH  10  21
TORSDOF 3
ENDMDL
MODEL 3
REMARK VINA RESULT:     -10.0      1.049      3.863
REMARK  3 active torsions:
REMARK  status: ('A' for Active; 'I' for Inactive)
REMARK    1  A    between atoms: O_9  and  C_1 
REMARK    2  A    between atoms: C_13  and  O_9 
REMARK    3  A    between atoms: C_16  and  C_11 
ROOT
ATOM      1  C   UNL d   1      52.978  32.183  53.115  0.00  0.00     0.161 A 
ATOM      2  C   UNL d   1      53.561  33.143  53.996  0.00  0.00     0.064 A 
ATOM      3  C   UNL d   1      53.633  32.462  53.554  0.00  0.00     0.222 A 
ATOM      4  C   UNL d   1      52.855  33.564  54.020  0.00  0.00     0.106 A 
ATOM      5  C   UNL d   1      52.258  32.611  53.139  0.00  0.00     0.126 A 
ATOM      6  O   UNL d   1      52.220  33.303  53.601  0.00  0.00    -0.305 OA
ATOM      7  C   UNL d   1      54.221  33.400  54.421  0.00  0.00     0.008 A 
ATOM      8  C   UNL d   1      52.808  34.241  54.468  0.00  0.00     0.067 A 
ATOM      9  C   UNL d   1      53.449  34.511  54.896  0.00  0.00     0.198 A 
ATOM     10  C   UNL d   1      54.169  34.083  54.872  0.00  0.00     0.039 A 
ATOM     11  O   UNL d   1      54.340  32.041  53.530  0.00  0.00    -0.284 OA
ATOM     12  O   UNL d   1      53.369  35.215  55.350  0.00  0.00    -0.286 OA
ATOM     13  C   UNL d   1      51.579  32.360  52.710  0.00  0.00     0.029 C 
ENDROOT
BRANCH   1  14
ATOM     14  O   UNL d   1      53.058  31.479  52.660  0.00  0.00    -0.302 OA
BRANCH  14  15
ATOM     15  C   UNL d   1      52.968  30.737  53.030  0.00  0.00     0.100 A 
ATOM     16  C   UNL d   1      52.214  30.433  53.158  0.00  0.00     0.025 A 
ATOM     17  C   UNL d   1      52.132  29.710  53.519  0.00  0.00     0.002 A 
ATOM     18  C   UNL d   1      52.809  29.270  53.762  0.00  0.00     0.000 A 
ATOM     19  C   UNL d   1      53.556  29.588  53.626  0.00  0.00     0.002 A 
ATOM     20  C   UNL d   1      53.636  30.326  53.258  0.00  0.00     0.025 A 
ENDBRANCH  14  15
ENDBRANCH   1  14
BRANCH  10  21
ATOM     21  C   UNL d   1      54.848  34.334  55.300  0.00  0.00     0.003 C 
ATOM     22  C   UNL d   1      55.541  33.864  55.311  0.00  0.00     0.000 C 
ENDBRANCH  10  21
TORSDOF 3
ENDMDL
MODEL 4
REMARK VINA RESULT:      -9.2      1.385      2.501
REMARK  3 active torsions:
REMARK  status: ('A' for Active; 'I' for Inactive)
REMARK    1  A    between atoms: O_9  and  C_1 
REMARK    2  A    between atoms: C_13  and  O_9 
REMARK    3  A    between atoms: C_16  and  C_11 
ROOT
ATOM      1  C   UNL d   1      52.535  33.831  53.051  0.00  0.00     0.161 A 
ATOM      2  C   UNL d   1      52.956  32.494  53.322  0.00  0.00     0.064 A 
ATOM      3  C   UNL d   1      52.591  33.027  52.825  0.00  0.00     0.222 A 
ATOM      4  C   UNL d   1      53.272  32.729  54.043  0.00  0.00     0.106 A 
ATOM      5  C   UNL d   1      52.857  34.071  53.786  0.00  0.00     0.126 A 
ATOM      6  O   UNL d   1      53.223  33.499  54.269  0.00  0.00    -0.305 OA
ATOM      7  C   UNL d   1      53.000  31.706  53.078  0.00  0.00     0.008 A 
ATOM      8  C   UNL d   1      53.632  32.178  54.521  0.00  0.00     0.067 A 
ATOM      9  C   UNL d   1      53.686  31.394  54.298  0.00  0.00     0.198 A 
ATOM     10  C   UNL d   1      53.364  31.154  53.563  0.00  0.00     0.039 A 
ATOM     11  O   UNL d   1      52.275  32.791  52.103  0.00  0.00    -0.284 OA
ATOM     12  O   UNL d   1      54.064  30.848  54.815  0.00  0.00    -0.286 OA
ATOM     13  C   UNL d   1      52.818  34.871  54.045  0.00  0.00     0.029 C 
ENDROOT
BRANCH   1  14
ATOM     14  O   UNL d   1      52.157  34.377  52.534  0.00  0.00    -0.302 OA
BRANCH  14  15
ATOM     15  C   UNL d   1      51.325  34.412  52.509  0.00  0.00     0.100 A 
ATOM     16  C   UNL d   1      50.903  34.621  53.184  0.00  0.00     0.025 A 
ATOM     17  C   UNL d   1      50.091  34.653  53.154  0.00  0.00     0.002 A 
ATOM     18  C   UNL d   1      49.679  34.475  52.440  0.00  0.00     0.000 A 
ATOM     19  C   UNL d   1      50.116  34.267  51.773  0.00  0.00     0.002 A 
ATOM     20  C   UNL d   1      50.943  34.235  51.808  0.00  0.00     0.025 A 
ENDBRANCH  14  15
ENDBRANCH   1  14
BRANCH  10  21
ATOM     21  C   UNL d   1      53.402  30.354  53.304  0.00  0.00     0.003 C 
ATOM     22  C   UNL d   1      52.704  29.895  53.241  0.00  0.00     0.000 C 
ENDBRANCH  10  21
TORSDOF 3
ENDMDL
MODEL 5
REMARK VINA RESULT:      -8.7      1.676      3.442
REMARK  3 active torsions:
REMARK  status: ('A' for Active; 'I' for Inactive)
REMARK    1  A    between atoms: O_9  and  C_1 
REMARK    2  A    between atoms: C_13  and  O_9 
REMARK    3  A    between atoms: C_16  and  C_11 
ROOT
ATOM      1  C   UNL d   1      52.944  32.736  53.849  0.00  0.00     0.161 A 
ATOM      2  C   UNL d   1      51.910  33.563  53.313  0.00  0.00     0.064 A 
ATOM      3  C   UNL d   1      52.402  33.368  53.933  0.00  0.00     0.222 A 
ATOM      4  C   UNL d   1      51.935  33.150  52.603  0.00  0.00     0.106 A 
ATOM      5  C   UNL d   1      52.969  32.315  53.125  0.00  0.00     0.126 A 
ATOM      6  O   UNL d   1      52.452  32.541  52.512  0.00  0.00    -0.305 OA
ATOM      7  C   UNL d   1      51.384  34.190  53.420  0.00  0.00     0.008 A 
ATOM      8  C   UNL d   1      51.433  33.363  51.999  0.00  0.00     0.067 A 
ATOM      9  C   UNL d   1      50.905  33.980  52.084  0.00  0.00     0.198 A 
ATOM     10  C   UNL d   1      50.880  34.402  52.808  0.00  0.00     0.039 A 
ATOM     11  O   UNL d   1      52.378  33.781  54.644  0.00  0.00    -0.284 OA
ATOM     12  O   UNL d   1      50.400  34.177  51.441  0.00  0.00    -0.286 OA
ATOM     13  C   UNL d   1      53.501  31.674  53.004  0.00  0.00     0.029 C 
ENDROOT
BRANCH   1  14
ATOM     14  O   UNL d   1      53.449  32.539  54.492  0.00  0.00    -0.302 OA
BRANCH  14  15
ATOM     15  C   UNL d   1      54.153  32.970  54.609  0.00  0.00     0.100 A 
ATOM     16  C   UNL d   1      54.707  33.022  54.002  0.00  0.00     0.025 A 
ATOM     17  C   UNL d   1      55.392  33.443  54.122  0.00  0.00     0.002 A 
ATOM     18  C   UNL d   1      55.540  33.825  54.859  0.00  0.00     0.000 A 
ATOM     19  C   UNL d   1      54.975  33.763  55.456  0.00  0.00     0.002 A 
ATOM     20  C   UNL d   1      54.279  33.333  55.330  0.00  0.00     0.025 A 
ENDBRANCH  14  15
ENDBRANCH   1  14
BRANCH  10  21
ATOM     21  C   UNL d   1      50.348  35.042  52.928  0.00  0.00     0.003 C 
ATOM     22  C   UNL d   1      49.607  34.914  53.298  0.00  0.00     0.000 C 
ENDBRANCH  10  21
TORSDOF 3
ENDMDL
MODEL 6
REMARK VINA RESULT:      -7.9      1.762      3.215
REMARK  3 active torsions:
REMARK  status: ('A' for Active; 'I' for Inactive)
REMARK    1  A    between atoms: O_9  and  C_1 
REMARK    2  A    between atoms: C_13  and  O_9 
REMARK    3  A    between atoms: C_16  and  C_11 
ROOT
ATOM      1  C   UNL d   1      52.341  33.472  52.865  0.00  0.00     0.161 A 
ATOM      2  C   UNL d   1      53.296  33.482  53.927  0.00  0.00     0.064 A 
ATOM      3  C   UNL d   1      52.901  33.879  53.334  0.00  0.00     0.222 A 
ATOM      4  C   UNL d   1      53.155  32.686  54.074  0.00  0.00     0.106 A 
ATOM      5  C   UNL d   1      52.197  32.660  53.015  0.00  0.00     0.126 A 
ATOM      6  O   UNL d   1      52.619  32.286  53.629  0.00  0.00    -0.305 OA
ATOM      7  C   UNL d   1      53.845  33.905  54.377  0.00  0.00     0.008 A 
ATOM      8  C   UNL d   1      53.562  32.311  54.671  0.00  0.00     0.067 A 
ATOM      9  C   UNL d   1      54.108  32.711  55.128  0.00  0.00     0.198 A 
ATOM     10  C   UNL d   1      54.252  33.523  54.978  0.00  0.00     0.039 A 
ATOM     11  O   UNL d   1      53.043  34.676  53.187  0.00  0.00    -0.284 OA
ATOM     12  O   UNL d   1      54.512  32.296  55.738  0.00  0.00    -0.286 OA
ATOM     13  C   UNL d   1      51.641  32.219  52.564  0.00  0.00     0.029 C 
ENDROOT
BRANCH   1  14
ATOM     14  O   UNL d   1      51.937  33.887  52.255  0.00  0.00    -0.302 OA
BRANCH  14  15
ATOM     15  C   UNL d   1      51.162  34.162  52.388  0.00  0.00     0.100 A 
ATOM     16  C   UNL d   1      50.969  34.510  53.109  0.00  0.00     0.025 A 
ATOM     17  C   UNL d   1      50.211  34.776  53.233  0.00  0.00     0.002 A 
ATOM     18  C   UNL d   1      49.623  34.700  52.633  0.00  0.00     0.000 A 
ATOM     19  C   UNL d   1      49.833  34.350  51.918  0.00  0.00     0.002 A 
ATOM     20  C   UNL d   1      50.606  34.080  51.794  0.00  0.00     0.025 A 
ENDBRANCH  14  15
ENDBRANCH   1  14
BRANCH  10  21
ATOM     21  C   UNL d   1      54.808  33.964  55.429  0.00  0.00     0.003 C 
ATOM     22  C   UNL d   1      55.550  34.174  55.101  0.00  0.00     0.000 C 
ENDBRANCH  10  21
TORSDOF 3
ENDMDL
