MODEL 1
REMARK VINA RESULT:      -4.2      0.000      0.000
REMARK  5 active torsions:
REMARK  status: ('A' for Active; 'I' for Inactive)
REMARK    1  A    between atoms: C_3  and  C_1 
REMARK    2  A    between atoms: C_7  and  C_3 
REMARK       I    between atoms: C_6  and  N_5 
REMARK    3  A    between atoms: O_18  and  C_6 
REMARK    4  A    between atoms: N_10  and  C_7 
REMARK    5  A    between atoms: C_21  and  O_18 
ROOT
ATOM      1  C   UNL d   1      57.268   0.549  32.082  0.00  0.00     0.110 C 
ATOM      2  C   UNL d   1      58.070   0.616  32.289  0.00  0.00     0.105 C 
ATOM      3  N   UNL d   1      58.860   0.682  32.494  0.00  0.00    -0.191 NA
ENDROOT
BRANCH   1   4
ATOM      4  C   UNL d   1      56.691   0.578  32.671  0.00  0.00     0.122 A 
ATOM      5  N   UNL d   1      55.877   0.594  32.555  0.00  0.00    -0.238 NA
ATOM      6  C   UNL d   1      55.512   0.622  33.294  0.00  0.00     0.088 A 
ATOM      7  C   UNL d   1      54.716   0.646  33.516  0.00  0.00     0.020 A 
ATOM      8  C   UNL d   1      56.101   0.623  33.872  0.00  0.00     0.049 A 
ATOM      9  C   UNL d   1      54.511   0.672  34.312  0.00  0.00     0.002 A 
ATOM     10  C   UNL d   1      55.103   0.673  34.893  0.00  0.00     0.001 A 
ATOM     11  C   UNL d   1      55.896   0.649  34.675  0.00  0.00     0.008 A 
ATOM     12  S   UNL d   1      56.830   0.596  33.491  0.00  0.00    -0.066 SA
ENDBRANCH   1   4
BRANCH   1  13
ATOM     13  C   UNL d   1      57.050   0.455  31.295  0.00  0.00     0.093 C 
BRANCH  13  14
ATOM     14  N   UNL d   1      57.517  -0.001  30.788  0.00  0.00    -0.299 N 
ATOM     15  C   UNL d   1      57.476  -0.833  30.828  0.00  0.00     0.100 A 
ATOM     16  C   UNL d   1      57.938  -1.284  30.327  0.00  0.00     0.104 A 
ATOM     17  N   UNL d   1      58.443  -0.921  29.781  0.00  0.00    -0.249 N 
ATOM     18  C   UNL d   1      58.480  -0.096  29.745  0.00  0.00     0.104 A 
ATOM     19  C   UNL d   1      58.910  -1.377  29.274  0.00  0.00     0.378 C 
ATOM     20  C   UNL d   1      58.013   0.371  30.252  0.00  0.00     0.100 A 
ATOM     21  O   UNL d   1      59.413  -1.013  28.732  0.00  0.00    -0.237 OA
BRANCH  19  22
ATOM     22  O   UNL d   1      58.870  -2.194  29.314  0.00  0.00    -0.257 OA
BRANCH  22  23
ATOM     23  C   UNL d   1      59.078  -2.653  28.664  0.00  0.00     0.128 C 
ATOM     24  C   UNL d   1      59.059  -3.482  28.715  0.00  0.00     0.029 C 
ENDBRANCH  22  23
ENDBRANCH  19  22
ENDBRANCH  13  14
ENDBRANCH   1  13
TORSDOF 5
ENDMDL
MODEL 2
REMARK VINA RESULT:      -2.6      2.359      5.358
REMARK  5 active torsions:
REMARK  status: ('A' for Active; 'I' for Inactive)
REMARK    1  A    between atoms: C_3  and  C_1 
REMARK    2  A    between atoms: C_7  and  C_3 
REMARK       I    between atoms: C_6  and  N_5 
REMARK    3  A    between atoms: O_18  and  C_6 
REMARK    4  A    between atoms: N_10  and  C_7 
REMARK    5  A    between atoms: C_21  and  O_18 
ROOT
ATOM      1  C   UNL d   1      57.540  -0.138  30.907  0.00  0.00     0.110 C 
ATOM      2  C   UNL d   1      57.167  -0.847  31.123  0.00  0.00     0.105 C 
ATOM      3  N   UNL d   1      56.799  -1.548  31.336  0.00  0.00    -0.191 NA
ENDROOT
BRANCH   1   4
ATOM      4  C   UNL d   1      58.153  -0.150  30.356  0.00  0.00     0.122 A 
ATOM      5  N   UNL d   1      58.442  -0.811  29.961  0.00  0.00    -0.238 NA
ATOM      6  C   UNL d   1      59.053  -0.567  29.465  0.00  0.00     0.088 A 
ATOM      7  C   UNL d   1      59.541  -0.985  28.943  0.00  0.00     0.020 A 
ATOM      8  C   UNL d   1      59.145   0.248  29.549  0.00  0.00     0.049 A 
ATOM      9  C   UNL d   1      60.116  -0.588  28.509  0.00  0.00     0.002 A 
ATOM     10  C   UNL d   1      60.209   0.232  28.595  0.00  0.00     0.001 A 
ATOM     11  C   UNL d   1      59.725   0.650  29.113  0.00  0.00     0.008 A 
ATOM     12  S   UNL d   1      58.591   0.511  30.099  0.00  0.00    -0.066 SA
ENDBRANCH   1   4
BRANCH   1  13
ATOM     13  C   UNL d   1      57.299   0.575  31.241  0.00  0.00     0.093 C 
BRANCH  13  14
ATOM     14  N   UNL d   1      56.985   0.589  32.004  0.00  0.00    -0.299 N 
ATOM     15  C   UNL d   1      56.159   0.640  32.109  0.00  0.00     0.100 A 
ATOM     16  C   UNL d   1      55.849   0.654  32.865  0.00  0.00     0.104 A 
ATOM     17  N   UNL d   1      56.347   0.617  33.525  0.00  0.00    -0.249 N 
ATOM     18  C   UNL d   1      57.164   0.566  33.416  0.00  0.00     0.104 A 
ATOM     19  C   UNL d   1      56.032   0.631  34.288  0.00  0.00     0.378 C 
ATOM     20  C   UNL d   1      57.489   0.552  32.649  0.00  0.00     0.100 A 
ATOM     21  O   UNL d   1      56.531   0.594  34.944  0.00  0.00    -0.237 OA
BRANCH  19  22
ATOM     22  O   UNL d   1      55.221   0.682  34.390  0.00  0.00    -0.257 OA
BRANCH  22  23
ATOM     23  C   UNL d   1      54.893   0.634  35.144  0.00  0.00     0.128 C 
ATOM     24  C   UNL d   1      54.078   0.497  35.236  0.00  0.00     0.029 C 
ENDBRANCH  22  23
ENDBRANCH  19  22
ENDBRANCH  13  14
ENDBRANCH   1  13
TORSDOF 5
ENDMDL
