MODEL 1
REMARK VINA RESULT:      52.4      0.000      0.000
REMARK  3 active torsions:
REMARK  status: ('A' for Active; 'I' for Inactive)
REMARK    1  A    between atoms: N_2  and  S_1 
REMARK    2  A    between atoms: C_3  and  S_1 
REMARK    3  A    between atoms: C_5  and  N_4 
ROOT
ATOM      1  N   UNL d   1     -54.994-102.040 -40.792  0.00  0.00    -0.226 N 
ATOM      2  N   UNL d   1     -55.015-102.103 -39.152  0.00  0.00    -0.301 N 
ATOM      3  C   UNL d   1     -54.718-102.710 -40.402  0.00  0.00     0.111 A 
ATOM      4  C   UNL d   1     -55.281-101.402 -40.359  0.00  0.00     0.111 A 
ATOM      5  C   UNL d   1     -54.728-102.741 -39.578  0.00  0.00     0.100 A 
ATOM      6  C   UNL d   1     -55.292-101.434 -39.535  0.00  0.00     0.100 A 
ENDROOT
BRANCH   1   7
ATOM      7  S   UNL d   1     -54.984-102.009 -41.616  0.00  0.00     0.271 S 
ATOM      8  O   UNL d   1     -54.923-102.831 -41.647  0.00  0.00    -0.200 OA
ATOM      9  O   UNL d   1     -55.045-101.187 -41.586  0.00  0.00    -0.200 OA
BRANCH   7  10
ATOM     10  C   UNL d   1     -54.974-101.977 -42.441  0.00  0.00     0.104 A 
ATOM     11  C   UNL d   1     -55.210-101.292 -42.831  0.00  0.00     0.015 A 
ATOM     12  C   UNL d   1     -55.199-101.260 -43.655  0.00  0.00     0.028 A 
ATOM     13  C   UNL d   1     -55.437-100.571 -44.044  0.00  0.00     0.002 C 
ATOM     14  C   UNL d   1     -54.953-101.914 -44.089  0.00  0.00     0.140 A 
ATOM     15  C   UNL d   1     -54.716-102.599 -43.700  0.00  0.00     0.030 A 
ATOM     16  F   UNL d   1     -54.942-101.883 -44.914  0.00  0.00    -0.204 F 
ATOM     17  C   UNL d   1     -54.727-102.631 -42.876  0.00  0.00     0.015 A 
ENDBRANCH   7  10
ENDBRANCH   1   7
BRANCH   2  18
ATOM     18  C   UNL d   1     -55.026-102.134 -38.328  0.00  0.00     0.064 A 
ATOM     19  C   UNL d   1     -54.875-101.456 -37.887  0.00  0.00     0.016 A 
ATOM     20  C   UNL d   1     -54.885-101.488 -37.063  0.00  0.00     0.001 A 
ATOM     21  C   UNL d   1     -54.712-100.741 -38.271  0.00  0.00     0.002 C 
ATOM     22  C   UNL d   1     -55.047-102.198 -36.678  0.00  0.00     0.000 A 
ATOM     23  C   UNL d   1     -55.197-102.876 -37.120  0.00  0.00     0.002 A 
ATOM     24  C   UNL d   1     -55.057-102.229 -35.855  0.00  0.00     0.000 C 
ATOM     25  C   UNL d   1     -55.187-102.844 -37.944  0.00  0.00     0.018 A 
ENDBRANCH   2  18
TORSDOF 3
ENDMDL
