MODEL 1
REMARK VINA RESULT:      -9.1      0.000      0.000
REMARK  5 active torsions:
REMARK  status: ('A' for Active; 'I' for Inactive)
REMARK    1  A    between atoms: C_6  and  C_1 
REMARK    2  A    between atoms: C_7  and  C_6 
REMARK    3  A    between atoms: C_9  and  C_19 
REMARK       I    between atoms: N_17  and  C_9 
REMARK    4  A    between atoms: O_20  and  C_18 
REMARK    5  A    between atoms: C_19  and  O_20 
ROOT
ATOM      1  C   UNL d   1      53.221  32.199  53.219  0.00  0.00     0.141 A 
ATOM      2  C   UNL d   1      52.720  33.432  53.295  0.00  0.00     0.064 A 
ATOM      3  C   UNL d   1      53.415  32.986  53.365  0.00  0.00     0.220 A 
ATOM      4  C   UNL d   1      52.101  32.913  53.106  0.00  0.00     0.105 A 
ATOM      5  O   UNL d   1      52.414  32.147  53.060  0.00  0.00    -0.304 OA
ATOM      6  C   UNL d   1      51.339  33.211  53.003  0.00  0.00     0.050 A 
ATOM      7  C   UNL d   1      52.571  34.244  53.379  0.00  0.00     0.007 A 
ATOM      8  O   UNL d   1      54.162  33.280  53.547  0.00  0.00    -0.284 OA
ATOM      9  C   UNL d   1      51.193  34.019  53.087  0.00  0.00     0.102 A 
ATOM     10  C   UNL d   1      51.805  34.532  53.274  0.00  0.00     0.025 A 
ENDROOT
BRANCH   1  11
ATOM     11  C   UNL d   1      53.752  31.561  53.232  0.00  0.00     0.053 C 
BRANCH  11  12
ATOM     12  C   UNL d   1      53.484  30.802  53.428  0.00  0.00     0.102 A 
ATOM     13  O   UNL d   1      53.541  30.451  54.173  0.00  0.00    -0.307 OA
ATOM     14  C   UNL d   1      53.207  29.702  54.117  0.00  0.00     0.100 A 
ATOM     15  C   UNL d   1      53.144  29.151  54.734  0.00  0.00     0.027 C 
ATOM     16  C   UNL d   1      52.944  29.585  53.344  0.00  0.00     0.027 A 
ATOM     17  C   UNL d   1      53.120  30.277  52.917  0.00  0.00     0.027 A 
ENDBRANCH  11  12
ENDBRANCH   1  11
BRANCH   9  18
ATOM     18  O   UNL d   1      50.424  34.311  52.982  0.00  0.00    -0.300 OA
BRANCH  18  19
ATOM     19  C   UNL d   1      50.124  34.416  52.231  0.00  0.00     0.187 C 
BRANCH  19  20
ATOM     20  C   UNL d   1      49.367  34.729  52.129  0.00  0.00     0.323 C 
ATOM     21  O   UNL d   1      48.992  35.112  52.749  0.00  0.00    -0.261 OA
ATOM     22  N   UNL d   1      48.987  34.655  51.396  0.00  0.00    -0.083 NA
ATOM     23  N   UNL d   1      48.226  34.969  51.290  0.00  0.00    -0.019 N 
ENDBRANCH  19  20
ENDBRANCH  18  19
ENDBRANCH   9  18
TORSDOF 5
ENDMDL
MODEL 2
REMARK VINA RESULT:      -8.5      2.617      4.926
REMARK  5 active torsions:
REMARK  status: ('A' for Active; 'I' for Inactive)
REMARK    1  A    between atoms: C_6  and  C_1 
REMARK    2  A    between atoms: C_7  and  C_6 
REMARK    3  A    between atoms: C_9  and  C_19 
REMARK       I    between atoms: N_17  and  C_9 
REMARK    4  A    between atoms: O_20  and  C_18 
REMARK    5  A    between atoms: C_19  and  O_20 
ROOT
ATOM      1  C   UNL d   1      52.404  33.821  52.971  0.00  0.00     0.141 A 
ATOM      2  C   UNL d   1      53.304  33.019  53.542  0.00  0.00     0.064 A 
ATOM      3  C   UNL d   1      53.090  33.811  53.427  0.00  0.00     0.220 A 
ATOM      4  C   UNL d   1      52.744  32.544  53.154  0.00  0.00     0.105 A 
ATOM      5  O   UNL d   1      52.186  33.044  52.800  0.00  0.00    -0.304 OA
ATOM      6  C   UNL d   1      52.822  31.724  53.178  0.00  0.00     0.050 A 
ATOM      7  C   UNL d   1      53.935  32.667  53.949  0.00  0.00     0.007 A 
ATOM      8  O   UNL d   1      53.494  34.467  53.717  0.00  0.00    -0.284 OA
ATOM      9  C   UNL d   1      53.450  31.376  53.584  0.00  0.00     0.102 A 
ATOM     10  C   UNL d   1      54.003  31.845  53.967  0.00  0.00     0.025 A 
ENDROOT
BRANCH   1  11
ATOM     11  C   UNL d   1      51.998  34.501  52.725  0.00  0.00     0.053 C 
BRANCH  11  12
ATOM     12  C   UNL d   1      51.190  34.460  52.543  0.00  0.00     0.102 A 
ATOM     13  O   UNL d   1      50.873  34.365  51.787  0.00  0.00    -0.307 OA
ATOM     14  C   UNL d   1      50.055  34.353  51.864  0.00  0.00     0.100 A 
ATOM     15  C   UNL d   1      49.510  34.267  51.245  0.00  0.00     0.027 C 
ATOM     16  C   UNL d   1      49.862  34.439  52.661  0.00  0.00     0.027 A 
ATOM     17  C   UNL d   1      50.577  34.506  53.082  0.00  0.00     0.027 A 
ENDBRANCH  11  12
ENDBRANCH   1  11
BRANCH   9  18
ATOM     18  O   UNL d   1      53.521  30.550  53.603  0.00  0.00    -0.300 OA
BRANCH  18  19
ATOM     19  C   UNL d   1      53.037  30.108  54.088  0.00  0.00     0.187 C 
BRANCH  19  20
ATOM     20  C   UNL d   1      53.140  29.291  54.140  0.00  0.00     0.323 C 
ATOM     21  O   UNL d   1      52.972  28.812  53.497  0.00  0.00    -0.261 OA
ATOM     22  N   UNL d   1      53.415  28.956  54.847  0.00  0.00    -0.083 NA
ATOM     23  N   UNL d   1      53.520  28.134  54.903  0.00  0.00    -0.019 N 
ENDBRANCH  19  20
ENDBRANCH  18  19
ENDBRANCH   9  18
TORSDOF 5
ENDMDL
MODEL 3
REMARK VINA RESULT:      -8.5      1.596      2.375
REMARK  5 active torsions:
REMARK  status: ('A' for Active; 'I' for Inactive)
REMARK    1  A    between atoms: C_6  and  C_1 
REMARK    2  A    between atoms: C_7  and  C_6 
REMARK    3  A    between atoms: C_9  and  C_19 
REMARK       I    between atoms: N_17  and  C_9 
REMARK    4  A    between atoms: O_20  and  C_18 
REMARK    5  A    between atoms: C_19  and  O_20 
ROOT
ATOM      1  C   UNL d   1      52.730  32.896  53.630  0.00  0.00     0.141 A 
ATOM      2  C   UNL d   1      51.794  33.346  52.794  0.00  0.00     0.064 A 
ATOM      3  C   UNL d   1      52.407  32.795  52.879  0.00  0.00     0.220 A 
ATOM      4  C   UNL d   1      51.744  33.784  53.497  0.00  0.00     0.105 A 
ATOM      5  O   UNL d   1      52.327  33.504  54.015  0.00  0.00    -0.304 OA
ATOM      6  C   UNL d   1      51.176  34.377  53.566  0.00  0.00     0.050 A 
ATOM      7  C   UNL d   1      51.274  33.505  52.168  0.00  0.00     0.007 A 
ATOM      8  O   UNL d   1      52.647  32.247  52.313  0.00  0.00    -0.284 OA
ATOM      9  C   UNL d   1      50.659  34.534  52.942  0.00  0.00     0.102 A 
ATOM     10  C   UNL d   1      50.708  34.101  52.247  0.00  0.00     0.025 A 
ENDROOT
BRANCH   1  11
ATOM     11  C   UNL d   1      53.360  32.459  53.947  0.00  0.00     0.053 C 
BRANCH  11  12
ATOM     12  C   UNL d   1      53.906  32.824  54.454  0.00  0.00     0.102 A 
ATOM     13  O   UNL d   1      54.530  33.308  54.217  0.00  0.00    -0.307 OA
ATOM     14  C   UNL d   1      54.926  33.547  54.896  0.00  0.00     0.100 A 
ATOM     15  C   UNL d   1      55.592  34.041  54.923  0.00  0.00     0.027 C 
ATOM     16  C   UNL d   1      54.552  33.216  55.553  0.00  0.00     0.027 A 
ATOM     17  C   UNL d   1      53.913  32.763  55.269  0.00  0.00     0.027 A 
ENDBRANCH  11  12
ENDBRANCH   1  11
BRANCH   9  18
ATOM     18  O   UNL d   1      50.090  35.132  53.019  0.00  0.00    -0.300 OA
BRANCH  18  19
ATOM     19  C   UNL d   1      49.300  34.963  52.909  0.00  0.00     0.187 C 
BRANCH  19  20
ATOM     20  C   UNL d   1      48.735  35.558  52.990  0.00  0.00     0.323 C 
ATOM     21  O   UNL d   1      48.771  36.078  53.624  0.00  0.00    -0.261 OA
ATOM     22  N   UNL d   1      48.129  35.630  52.429  0.00  0.00    -0.083 NA
ATOM     23  N   UNL d   1      47.559  36.229  52.509  0.00  0.00    -0.019 N 
ENDBRANCH  19  20
ENDBRANCH  18  19
ENDBRANCH   9  18
TORSDOF 5
ENDMDL
MODEL 4
REMARK VINA RESULT:      -6.7      3.109      5.559
REMARK  5 active torsions:
REMARK  status: ('A' for Active; 'I' for Inactive)
REMARK    1  A    between atoms: C_6  and  C_1 
REMARK    2  A    between atoms: C_7  and  C_6 
REMARK    3  A    between atoms: C_9  and  C_19 
REMARK       I    between atoms: N_17  and  C_9 
REMARK    4  A    between atoms: O_20  and  C_18 
REMARK    5  A    between atoms: C_19  and  O_20 
ROOT
ATOM      1  C   UNL d   1      49.530  34.756  52.585  0.00  0.00     0.141 A 
ATOM      2  C   UNL d   1      50.786  34.361  52.380  0.00  0.00     0.064 A 
ATOM      3  C   UNL d   1      50.032  34.396  52.041  0.00  0.00     0.220 A 
ATOM      4  C   UNL d   1      50.743  34.703  53.136  0.00  0.00     0.105 A 
ATOM      5  O   UNL d   1      49.961  34.947  53.261  0.00  0.00    -0.304 OA
ATOM      6  C   UNL d   1      51.421  34.742  53.602  0.00  0.00     0.050 A 
ATOM      7  C   UNL d   1      51.508  34.064  52.100  0.00  0.00     0.007 A 
ATOM      8  O   UNL d   1      49.824  34.119  51.294  0.00  0.00    -0.284 OA
ATOM      9  C   UNL d   1      52.138  34.445  53.321  0.00  0.00     0.102 A 
ATOM     10  C   UNL d   1      52.181  34.108  52.575  0.00  0.00     0.025 A 
ENDROOT
BRANCH   1  11
ATOM     11  C   UNL d   1      48.721  34.903  52.472  0.00  0.00     0.053 C 
BRANCH  11  12
ATOM     12  C   UNL d   1      48.357  35.542  52.856  0.00  0.00     0.102 A 
ATOM     13  O   UNL d   1      48.226  35.601  53.668  0.00  0.00    -0.307 OA
ATOM     14  C   UNL d   1      47.854  36.321  53.805  0.00  0.00     0.100 A 
ATOM     15  C   UNL d   1      47.616  36.614  54.544  0.00  0.00     0.027 C 
ATOM     16  C   UNL d   1      47.753  36.709  53.084  0.00  0.00     0.027 A 
ATOM     17  C   UNL d   1      48.071  36.216  52.493  0.00  0.00     0.027 A 
ENDBRANCH  11  12
ENDBRANCH   1  11
BRANCH   9  18
ATOM     18  O   UNL d   1      52.816  34.489  53.797  0.00  0.00    -0.300 OA
BRANCH  18  19
ATOM     19  C   UNL d   1      53.031  33.856  54.264  0.00  0.00     0.187 C 
BRANCH  19  20
ATOM     20  C   UNL d   1      53.706  33.902  54.736  0.00  0.00     0.323 C 
ATOM     21  O   UNL d   1      53.941  34.621  55.052  0.00  0.00    -0.261 OA
ATOM     22  N   UNL d   1      54.147  33.217  54.891  0.00  0.00    -0.083 NA
ATOM     23  N   UNL d   1      54.827  33.260  55.366  0.00  0.00    -0.019 N 
ENDBRANCH  19  20
ENDBRANCH  18  19
ENDBRANCH   9  18
TORSDOF 5
ENDMDL
MODEL 5
REMARK VINA RESULT:      -6.7      2.455      2.989
REMARK  5 active torsions:
REMARK  status: ('A' for Active; 'I' for Inactive)
REMARK    1  A    between atoms: C_6  and  C_1 
REMARK    2  A    between atoms: C_7  and  C_6 
REMARK    3  A    between atoms: C_9  and  C_19 
REMARK       I    between atoms: N_17  and  C_9 
REMARK    4  A    between atoms: O_20  and  C_18 
REMARK    5  A    between atoms: C_19  and  O_20 
ROOT
ATOM      1  C   UNL d   1      53.180  30.623  53.363  0.00  0.00     0.141 A 
ATOM      2  C   UNL d   1      52.926  31.901  53.080  0.00  0.00     0.064 A 
ATOM      3  C   UNL d   1      52.817  31.123  52.818  0.00  0.00     0.220 A 
ATOM      4  C   UNL d   1      53.358  31.874  53.788  0.00  0.00     0.105 A 
ATOM      5  O   UNL d   1      53.515  31.079  53.962  0.00  0.00    -0.304 OA
ATOM      6  C   UNL d   1      53.548  32.578  54.174  0.00  0.00     0.050 A 
ATOM      7  C   UNL d   1      52.689  32.631  52.766  0.00  0.00     0.007 A 
ATOM      8  O   UNL d   1      52.417  30.894  52.136  0.00  0.00    -0.284 OA
ATOM      9  C   UNL d   1      53.310  33.303  53.860  0.00  0.00     0.102 A 
ATOM     10  C   UNL d   1      52.884  33.329  53.160  0.00  0.00     0.025 A 
ENDROOT
BRANCH   1  11
ATOM     11  C   UNL d   1      53.205  29.795  53.316  0.00  0.00     0.053 C 
BRANCH  11  12
ATOM     12  C   UNL d   1      53.350  29.345  53.997  0.00  0.00     0.102 A 
ATOM     13  O   UNL d   1      52.863  29.310  54.662  0.00  0.00    -0.307 OA
ATOM     14  C   UNL d   1      53.218  28.801  55.200  0.00  0.00     0.100 A 
ATOM     15  C   UNL d   1      52.922  28.600  55.949  0.00  0.00     0.027 C 
ATOM     16  C   UNL d   1      53.922  28.519  54.875  0.00  0.00     0.027 A 
ATOM     17  C   UNL d   1      54.000  28.864  54.121  0.00  0.00     0.027 A 
ENDBRANCH  11  12
ENDBRANCH   1  11
BRANCH   9  18
ATOM     18  O   UNL d   1      53.505  34.006  54.254  0.00  0.00    -0.300 OA
BRANCH  18  19
ATOM     19  C   UNL d   1      52.949  34.597  54.338  0.00  0.00     0.187 C 
BRANCH  19  20
ATOM     20  C   UNL d   1      53.119  35.261  54.797  0.00  0.00     0.323 C 
ATOM     21  O   UNL d   1      53.340  35.175  55.581  0.00  0.00    -0.261 OA
ATOM     22  N   UNL d   1      53.064  36.018  54.462  0.00  0.00    -0.083 NA
ATOM     23  N   UNL d   1      53.234  36.688  54.921  0.00  0.00    -0.019 N 
ENDBRANCH  19  20
ENDBRANCH  18  19
ENDBRANCH   9  18
TORSDOF 5
ENDMDL
