MODEL 1
REMARK VINA RESULT:      95.5      0.000      0.000
REMARK  6 active torsions:
REMARK  status: ('A' for Active; 'I' for Inactive)
REMARK    1  A    between atoms: C_6  and  C_1 
REMARK    2  A    between atoms: N_4  and  C_2 
REMARK       I    between atoms: C_8  and  N_4 
REMARK    3  A    between atoms: C_11  and  C_8 
REMARK    4  A    between atoms: O_22  and  C_10 
REMARK    5  A    between atoms: O_24  and  C_12 
REMARK    6  A    between atoms: O_23  and  C_13 
ROOT
ATOM      1  C   UNL d   1     -49.707  27.282  34.863  0.00  0.00     0.080 A 
ATOM      2  C   UNL d   1     -49.782  27.395  35.676  0.00  0.00     0.188 A 
ATOM      3  C   UNL d   1     -49.145  27.713  34.437  0.00  0.00     0.201 A 
ATOM      4  O   UNL d   1     -49.294  27.938  36.065  0.00  0.00    -0.289 OA
ATOM      5  C   UNL d   1     -48.660  28.254  34.824  0.00  0.00     0.062 A 
ATOM      6  C   UNL d   1     -48.734  28.366  35.638  0.00  0.00     0.105 A 
ATOM      7  O   UNL d   1     -49.071  27.600  33.623  0.00  0.00    -0.286 OA
ATOM      8  C   UNL d   1     -48.100  28.682  34.398  0.00  0.00     0.005 A 
ATOM      9  C   UNL d   1     -48.249  28.907  36.026  0.00  0.00     0.025 A 
ATOM     10  C   UNL d   1     -47.609  29.227  34.785  0.00  0.00     0.000 A 
ATOM     11  C   UNL d   1     -47.684  29.340  35.599  0.00  0.00     0.002 A 
ENDROOT
BRANCH   1  12
ATOM     12  C   UNL d   1     -50.193  26.742  34.475  0.00  0.00     0.011 A 
ATOM     13  C   UNL d   1     -49.911  25.988  34.302  0.00  0.00     0.027 A 
ATOM     14  C   UNL d   1     -50.398  25.440  33.911  0.00  0.00     0.118 A 
ATOM     15  C   UNL d   1     -51.170  25.655  33.697  0.00  0.00     0.138 A 
ATOM     16  C   UNL d   1     -51.450  26.416  33.874  0.00  0.00     0.118 A 
ATOM     17  C   UNL d   1     -50.965  26.956  34.261  0.00  0.00     0.027 A 
BRANCH  14  18
ATOM     18  O   UNL d   1     -50.109  24.680  33.738  0.00  0.00    -0.326 OA
ATOM     19  C   UNL d   1     -49.378  24.586  33.357  0.00  0.00     0.181 C 
ENDBRANCH  14  18
BRANCH  15  20
ATOM     20  O   UNL d   1     -51.664  25.113  33.306  0.00  0.00    -0.324 OA
ATOM     21  C   UNL d   1     -52.199  24.646  33.736  0.00  0.00     0.182 C 
ENDBRANCH  15  20
BRANCH  16  22
ATOM     22  O   UNL d   1     -52.218  26.630  33.661  0.00  0.00    -0.326 OA
ATOM     23  C   UNL d   1     -52.361  27.360  33.306  0.00  0.00     0.181 C 
ENDBRANCH  16  22
ENDBRANCH   1  12
BRANCH   2  24
ATOM     24  N   UNL d   1     -50.348  26.963  36.111  0.00  0.00    -0.182 NA
ATOM     25  C   UNL d   1     -50.430  27.094  36.926  0.00  0.00     0.304 C 
ATOM     26  O   UNL d   1     -49.957  27.648  37.311  0.00  0.00    -0.263 OA
BRANCH  25  27
ATOM     27  C   UNL d   1     -50.995  26.661  37.353  0.00  0.00     0.158 A 
ATOM     28  O   UNL d   1     -51.389  25.960  37.190  0.00  0.00    -0.300 OA
ATOM     29  C   UNL d   1     -51.891  25.795  37.823  0.00  0.00     0.123 A 
ATOM     30  C   UNL d   1     -51.804  26.402  38.381  0.00  0.00     0.029 A 
ATOM     31  C   UNL d   1     -51.251  26.934  38.088  0.00  0.00     0.032 A 
ENDBRANCH  25  27
ENDBRANCH   2  24
TORSDOF 6
ENDMDL
MODEL 2
REMARK VINA RESULT:      95.8      0.259      1.368
REMARK  6 active torsions:
REMARK  status: ('A' for Active; 'I' for Inactive)
REMARK    1  A    between atoms: C_6  and  C_1 
REMARK    2  A    between atoms: N_4  and  C_2 
REMARK       I    between atoms: C_8  and  N_4 
REMARK    3  A    between atoms: C_11  and  C_8 
REMARK    4  A    between atoms: O_22  and  C_10 
REMARK    5  A    between atoms: O_24  and  C_12 
REMARK    6  A    between atoms: O_23  and  C_13 
ROOT
ATOM      1  C   UNL d   1     -49.832  27.205  34.949  0.00  0.00     0.080 A 
ATOM      2  C   UNL d   1     -49.922  27.301  35.764  0.00  0.00     0.188 A 
ATOM      3  C   UNL d   1     -49.258  27.640  34.544  0.00  0.00     0.201 A 
ATOM      4  O   UNL d   1     -49.438  27.832  36.173  0.00  0.00    -0.289 OA
ATOM      5  C   UNL d   1     -48.777  28.169  34.952  0.00  0.00     0.062 A 
ATOM      6  C   UNL d   1     -48.867  28.265  35.766  0.00  0.00     0.105 A 
ATOM      7  O   UNL d   1     -49.169  27.544  33.729  0.00  0.00    -0.286 OA
ATOM      8  C   UNL d   1     -48.206  28.602  34.547  0.00  0.00     0.005 A 
ATOM      9  C   UNL d   1     -48.385  28.794  36.175  0.00  0.00     0.025 A 
ATOM     10  C   UNL d   1     -47.719  29.136  34.955  0.00  0.00     0.000 A 
ATOM     11  C   UNL d   1     -47.809  29.232  35.769  0.00  0.00     0.002 A 
ENDROOT
BRANCH   1  12
ATOM     12  C   UNL d   1     -50.313  26.676  34.541  0.00  0.00     0.011 A 
ATOM     13  C   UNL d   1     -51.118  26.829  34.465  0.00  0.00     0.027 A 
ATOM     14  C   UNL d   1     -51.607  26.298  34.054  0.00  0.00     0.118 A 
ATOM     15  C   UNL d   1     -51.281  25.612  33.720  0.00  0.00     0.138 A 
ATOM     16  C   UNL d   1     -50.468  25.462  33.800  0.00  0.00     0.118 A 
ATOM     17  C   UNL d   1     -49.987  25.990  34.207  0.00  0.00     0.027 A 
BRANCH  14  18
ATOM     18  O   UNL d   1     -52.419  26.456  33.979  0.00  0.00    -0.326 OA
ATOM     19  C   UNL d   1     -52.708  26.864  33.317  0.00  0.00     0.181 C 
ENDBRANCH  14  18
BRANCH  15  20
ATOM     20  O   UNL d   1     -51.763  25.075  33.308  0.00  0.00    -0.324 OA
ATOM     21  C   UNL d   1     -52.073  24.409  33.693  0.00  0.00     0.182 C 
ENDBRANCH  15  20
BRANCH  16  22
ATOM     22  O   UNL d   1     -50.143  24.780  33.468  0.00  0.00    -0.326 OA
ATOM     23  C   UNL d   1     -49.334  24.738  33.317  0.00  0.00     0.181 C 
ENDBRANCH  16  22
ENDBRANCH   1  12
BRANCH   2  24
ATOM     24  N   UNL d   1     -50.500  26.864  36.178  0.00  0.00    -0.182 NA
ATOM     25  C   UNL d   1     -50.590  26.972  36.995  0.00  0.00     0.304 C 
ATOM     26  O   UNL d   1     -50.114  27.507  37.403  0.00  0.00    -0.263 OA
BRANCH  25  27
ATOM     27  C   UNL d   1     -51.166  26.534  37.401  0.00  0.00     0.158 A 
ATOM     28  O   UNL d   1     -51.764  26.037  37.141  0.00  0.00    -0.300 OA
ATOM     29  C   UNL d   1     -52.169  25.754  37.802  0.00  0.00     0.123 A 
ATOM     30  C   UNL d   1     -51.815  26.082  38.476  0.00  0.00     0.029 A 
ATOM     31  C   UNL d   1     -51.198  26.562  38.225  0.00  0.00     0.032 A 
ENDBRANCH  25  27
ENDBRANCH   2  24
TORSDOF 6
ENDMDL
