MODEL 1
REMARK VINA RESULT:      67.1      0.000      0.000
REMARK  4 active torsions:
REMARK  status: ('A' for Active; 'I' for Inactive)
REMARK    1  A    between atoms: N_5  and  C_9 
REMARK    2  A    between atoms: O_11  and  C_8 
REMARK    3  A    between atoms: C_20  and  O_11 
REMARK    4  A    between atoms: C_21  and  C_20 
ROOT
ATOM      1  C   UNL d   1      58.102  49.705  50.299  0.00  0.00     0.009 A 
ATOM      2  C   UNL d   1      58.514  49.704  51.009  0.00  0.00     0.046 A 
ATOM      3  C   UNL d   1      57.284  49.706  50.290  0.00  0.00     0.064 A 
ATOM      4  C   UNL d   1      56.869  49.706  51.001  0.00  0.00     0.300 A 
ATOM      5  C   UNL d   1      58.110  49.704  51.726  0.00  0.00     0.105 A 
ATOM      6  O   UNL d   1      57.273  49.705  51.717  0.00  0.00    -0.273 OA
ATOM      7  C   UNL d   1      59.345  49.703  51.011  0.00  0.00     0.102 A 
ATOM      8  C   UNL d   1      58.510  49.704  52.440  0.00  0.00     0.025 A 
ATOM      9  C   UNL d   1      59.759  49.702  51.737  0.00  0.00     0.025 A 
ATOM     10  O   UNL d   1      56.033  49.707  51.006  0.00  0.00    -0.259 OA
ATOM     11  C   UNL d   1      59.336  49.703  52.443  0.00  0.00     0.004 A 
ATOM     12  C   UNL d   1      58.519  49.705  49.585  0.00  0.00     0.000 A 
ATOM     13  C   UNL d   1      56.868  49.707  49.578  0.00  0.00     0.005 A 
ATOM     14  C   UNL d   1      59.751  49.702  53.165  0.00  0.00     0.000 C 
ATOM     15  C   UNL d   1      58.119  49.706  48.862  0.00  0.00     0.000 A 
ATOM     16  C   UNL d   1      57.285  49.707  48.864  0.00  0.00     0.000 A 
ENDROOT
BRANCH   7  17
ATOM     17  O   UNL d   1      59.753  49.703  50.306  0.00  0.00    -0.305 OA
BRANCH  17  18
ATOM     18  C   UNL d   1      60.585  49.678  50.304  0.00  0.00     0.122 C 
BRANCH  18  19
ATOM     19  C   UNL d   1      60.968  48.957  50.203  0.00  0.00     0.025 A 
ATOM     20  C   UNL d   1      61.008  48.424  50.831  0.00  0.00     0.004 A 
ATOM     21  C   UNL d   1      61.386  47.703  50.741  0.00  0.00     0.024 A 
ATOM     22  C   UNL d   1      61.729  47.509  50.019  0.00  0.00     0.127 A 
ATOM     23  C   UNL d   1      61.696  48.033  49.383  0.00  0.00     0.024 A 
ATOM     24  C   UNL d   1      61.309  48.768  49.478  0.00  0.00     0.004 A 
BRANCH  22  25
ATOM     25  N   UNL d   1      62.113  46.785  49.918  0.00  0.00    -0.114 N 
ATOM     26  O   UNL d   1      61.799  46.099  50.234  0.00  0.00    -0.532 OA
ATOM     27  O   UNL d   1      62.820  46.761  49.493  0.00  0.00    -0.532 OA
ENDBRANCH  22  25
ENDBRANCH  18  19
ENDBRANCH  17  18
ENDBRANCH   7  17
TORSDOF 4
ENDMDL
