MODEL 1
REMARK VINA RESULT:      -8.5      0.000      0.000
REMARK  6 active torsions:
REMARK  status: ('A' for Active; 'I' for Inactive)
REMARK    1  A    between atoms: S_9  and  C_3 
REMARK    2  A    between atoms: C_4  and  C_17 
REMARK       I    between atoms: N_8  and  C_4 
REMARK    3  A    between atoms: C_5  and  C_16 
REMARK    4  A    between atoms: C_14  and  C_6 
REMARK    5  A    between atoms: C_16  and  N_8 
REMARK    6  A    between atoms: C_17  and  S_9 
ROOT
ATOM      1  N   UNL d   1      52.167  33.099  53.676  0.00  0.00    -0.148 NA
ATOM      2  N   UNL d   1      51.456  33.250  53.287  0.00  0.00    -0.141 NA
ATOM      3  C   UNL d   1      51.344  33.958  52.883  0.00  0.00     0.133 A 
ATOM      4  C   UNL d   1      52.769  33.670  53.655  0.00  0.00     0.103 A 
ATOM      5  C   UNL d   1      52.662  34.373  53.256  0.00  0.00     0.023 A 
ATOM      6  C   UNL d   1      51.956  34.527  52.868  0.00  0.00     0.029 A 
ENDROOT
BRANCH   3   7
ATOM      7  S   UNL d   1      50.633  34.101  52.498  0.00  0.00    -0.061 SA
BRANCH   7   8
ATOM      8  C   UNL d   1      50.064  34.579  52.852  0.00  0.00     0.099 C 
BRANCH   8   9
ATOM      9  C   UNL d   1      49.385  34.796  52.436  0.00  0.00     0.286 C 
ATOM     10  N   UNL d   1      48.846  35.316  52.769  0.00  0.00    -0.204 NA
ATOM     11  O   UNL d   1      49.251  34.490  51.686  0.00  0.00    -0.265 OA
BRANCH  10  12
ATOM     12  C   UNL d   1      48.175  35.532  52.360  0.00  0.00     0.127 C 
BRANCH  12  13
ATOM     13  C   UNL d   1      47.599  35.988  52.727  0.00  0.00     0.119 A 
ATOM     14  O   UNL d   1      47.627  36.288  53.491  0.00  0.00    -0.304 OA
ATOM     15  C   UNL d   1      46.939  36.709  53.629  0.00  0.00     0.123 A 
ATOM     16  C   UNL d   1      46.481  36.671  52.950  0.00  0.00     0.029 A 
ATOM     17  C   UNL d   1      46.880  36.228  52.387  0.00  0.00     0.028 A 
ENDBRANCH  12  13
ENDBRANCH  10  12
ENDBRANCH   8   9
ENDBRANCH   7   8
ENDBRANCH   3   7
BRANCH   4  18
ATOM     18  C   UNL d   1      53.485  33.521  54.045  0.00  0.00     0.019 A 
ATOM     19  C   UNL d   1      53.609  33.791  54.827  0.00  0.00     0.002 A 
ATOM     20  C   UNL d   1      54.325  33.639  55.208  0.00  0.00     0.000 A 
ATOM     21  C   UNL d   1      54.918  33.225  54.826  0.00  0.00     0.000 A 
ATOM     22  C   UNL d   1      54.805  32.953  54.050  0.00  0.00     0.000 A 
ATOM     23  C   UNL d   1      54.091  33.102  53.665  0.00  0.00     0.002 A 
ENDBRANCH   4  18
TORSDOF 6
ENDMDL
MODEL 2
REMARK VINA RESULT:      -7.5      1.366      1.769
REMARK  6 active torsions:
REMARK  status: ('A' for Active; 'I' for Inactive)
REMARK    1  A    between atoms: S_9  and  C_3 
REMARK    2  A    between atoms: C_4  and  C_17 
REMARK       I    between atoms: N_8  and  C_4 
REMARK    3  A    between atoms: C_5  and  C_16 
REMARK    4  A    between atoms: C_14  and  C_6 
REMARK    5  A    between atoms: C_16  and  N_8 
REMARK    6  A    between atoms: C_17  and  S_9 
ROOT
ATOM      1  N   UNL d   1      51.272  32.969  53.583  0.00  0.00    -0.148 NA
ATOM      2  N   UNL d   1      50.727  33.583  53.506  0.00  0.00    -0.141 NA
ATOM      3  C   UNL d   1      50.843  34.178  52.950  0.00  0.00     0.133 A 
ATOM      4  C   UNL d   1      51.941  32.959  53.092  0.00  0.00     0.103 A 
ATOM      5  C   UNL d   1      52.061  33.546  52.539  0.00  0.00     0.023 A 
ATOM      6  C   UNL d   1      51.520  34.159  52.460  0.00  0.00     0.029 A 
ENDROOT
BRANCH   3   7
ATOM      7  S   UNL d   1      50.296  34.786  52.880  0.00  0.00    -0.061 SA
BRANCH   7   8
ATOM      8  C   UNL d   1      49.529  34.620  52.634  0.00  0.00     0.099 C 
BRANCH   8   9
ATOM      9  C   UNL d   1      48.946  35.204  52.666  0.00  0.00     0.286 C 
ATOM     10  N   UNL d   1      48.310  35.180  52.150  0.00  0.00    -0.204 NA
ATOM     11  O   UNL d   1      49.005  35.809  53.217  0.00  0.00    -0.265 OA
BRANCH  10  12
ATOM     12  C   UNL d   1      47.733  35.755  52.179  0.00  0.00     0.127 C 
BRANCH  12  13
ATOM     13  C   UNL d   1      47.038  35.663  51.750  0.00  0.00     0.119 A 
ATOM     14  O   UNL d   1      46.940  35.214  51.071  0.00  0.00    -0.304 OA
ATOM     15  C   UNL d   1      46.161  35.278  50.828  0.00  0.00     0.123 A 
ATOM     16  C   UNL d   1      45.774  35.770  51.357  0.00  0.00     0.029 A 
ATOM     17  C   UNL d   1      46.307  36.012  51.931  0.00  0.00     0.028 A 
ENDBRANCH  12  13
ENDBRANCH  10  12
ENDBRANCH   8   9
ENDBRANCH   7   8
ENDBRANCH   3   7
BRANCH   4  18
ATOM     18  C   UNL d   1      52.491  32.344  53.166  0.00  0.00     0.019 A 
ATOM     19  C   UNL d   1      53.227  32.473  53.542  0.00  0.00     0.002 A 
ATOM     20  C   UNL d   1      53.769  31.855  53.611  0.00  0.00     0.000 A 
ATOM     21  C   UNL d   1      53.593  31.113  53.314  0.00  0.00     0.000 A 
ATOM     22  C   UNL d   1      52.865  30.974  52.939  0.00  0.00     0.000 A 
ATOM     23  C   UNL d   1      52.320  31.589  52.867  0.00  0.00     0.002 A 
ENDBRANCH   4  18
TORSDOF 6
ENDMDL
MODEL 3
REMARK VINA RESULT:      -7.3      1.626      5.957
REMARK  6 active torsions:
REMARK  status: ('A' for Active; 'I' for Inactive)
REMARK    1  A    between atoms: S_9  and  C_3 
REMARK    2  A    between atoms: C_4  and  C_17 
REMARK       I    between atoms: N_8  and  C_4 
REMARK    3  A    between atoms: C_5  and  C_16 
REMARK    4  A    between atoms: C_14  and  C_6 
REMARK    5  A    between atoms: C_16  and  N_8 
REMARK    6  A    between atoms: C_17  and  S_9 
ROOT
ATOM      1  N   UNL d   1      49.470  35.227  53.180  0.00  0.00    -0.148 NA
ATOM      2  N   UNL d   1      50.181  34.810  53.163  0.00  0.00    -0.141 NA
ATOM      3  C   UNL d   1      50.386  34.362  52.504  0.00  0.00     0.133 A 
ATOM      4  C   UNL d   1      48.962  35.188  52.524  0.00  0.00     0.103 A 
ATOM      5  C   UNL d   1      49.161  34.745  51.870  0.00  0.00     0.023 A 
ATOM      6  C   UNL d   1      49.868  34.329  51.849  0.00  0.00     0.029 A 
ENDROOT
BRANCH   3   7
ATOM      7  S   UNL d   1      51.096  33.949  52.494  0.00  0.00    -0.061 SA
BRANCH   7   8
ATOM      8  C   UNL d   1      51.338  33.534  53.161  0.00  0.00     0.099 C 
BRANCH   8   9
ATOM      9  C   UNL d   1      52.065  33.142  53.168  0.00  0.00     0.286 C 
ATOM     10  N   UNL d   1      52.604  33.284  53.768  0.00  0.00    -0.204 NA
ATOM     11  O   UNL d   1      52.246  32.610  52.570  0.00  0.00    -0.265 OA
BRANCH  10  12
ATOM     12  C   UNL d   1      53.322  32.899  53.777  0.00  0.00     0.127 C 
BRANCH  12  13
ATOM     13  C   UNL d   1      53.867  33.057  54.371  0.00  0.00     0.119 A 
ATOM     14  O   UNL d   1      53.846  32.771  55.140  0.00  0.00    -0.304 OA
ATOM     15  C   UNL d   1      54.494  33.066  55.544  0.00  0.00     0.123 A 
ATOM     16  C   UNL d   1      54.920  33.536  55.024  0.00  0.00     0.029 A 
ATOM     17  C   UNL d   1      54.540  33.537  54.297  0.00  0.00     0.028 A 
ENDBRANCH  12  13
ENDBRANCH  10  12
ENDBRANCH   8   9
ENDBRANCH   7   8
ENDBRANCH   3   7
BRANCH   4  18
ATOM     18  C   UNL d   1      48.246  35.606  52.538  0.00  0.00     0.019 A 
ATOM     19  C   UNL d   1      47.718  35.569  51.890  0.00  0.00     0.002 A 
ATOM     20  C   UNL d   1      47.008  35.987  51.912  0.00  0.00     0.000 A 
ATOM     21  C   UNL d   1      46.814  36.441  52.565  0.00  0.00     0.000 A 
ATOM     22  C   UNL d   1      47.331  36.485  53.213  0.00  0.00     0.000 A 
ATOM     23  C   UNL d   1      48.043  36.068  53.196  0.00  0.00     0.002 A 
ENDBRANCH   4  18
TORSDOF 6
ENDMDL
MODEL 4
REMARK VINA RESULT:      -7.1      1.951      6.040
REMARK  6 active torsions:
REMARK  status: ('A' for Active; 'I' for Inactive)
REMARK    1  A    between atoms: S_9  and  C_3 
REMARK    2  A    between atoms: C_4  and  C_17 
REMARK       I    between atoms: N_8  and  C_4 
REMARK    3  A    between atoms: C_5  and  C_16 
REMARK    4  A    between atoms: C_14  and  C_6 
REMARK    5  A    between atoms: C_16  and  N_8 
REMARK    6  A    between atoms: C_17  and  S_9 
ROOT
ATOM      1  N   UNL d   1      49.450  35.351  53.277  0.00  0.00    -0.148 NA
ATOM      2  N   UNL d   1      50.178  34.966  53.226  0.00  0.00    -0.141 NA
ATOM      3  C   UNL d   1      50.369  34.523  52.560  0.00  0.00     0.133 A 
ATOM      4  C   UNL d   1      48.913  35.285  52.647  0.00  0.00     0.103 A 
ATOM      5  C   UNL d   1      49.098  34.847  51.985  0.00  0.00     0.023 A 
ATOM      6  C   UNL d   1      49.822  34.463  51.931  0.00  0.00     0.029 A 
ENDROOT
BRANCH   3   7
ATOM      7  S   UNL d   1      51.096  34.143  52.516  0.00  0.00    -0.061 SA
BRANCH   7   8
ATOM      8  C   UNL d   1      51.339  33.652  53.129  0.00  0.00     0.099 C 
BRANCH   8   9
ATOM      9  C   UNL d   1      52.093  33.315  53.120  0.00  0.00     0.286 C 
ATOM     10  N   UNL d   1      52.180  32.500  53.129  0.00  0.00    -0.204 NA
ATOM     11  O   UNL d   1      52.755  33.799  53.101  0.00  0.00    -0.265 OA
BRANCH  10  12
ATOM     12  C   UNL d   1      52.923  32.165  53.120  0.00  0.00     0.127 C 
BRANCH  12  13
ATOM     13  C   UNL d   1      53.007  31.348  53.137  0.00  0.00     0.119 A 
ATOM     14  O   UNL d   1      52.702  30.815  52.592  0.00  0.00    -0.304 OA
ATOM     15  C   UNL d   1      52.917  30.059  52.822  0.00  0.00     0.123 A 
ATOM     16  C   UNL d   1      53.357  30.122  53.510  0.00  0.00     0.029 A 
ATOM     17  C   UNL d   1      53.418  30.915  53.713  0.00  0.00     0.028 A 
ENDBRANCH  12  13
ENDBRANCH  10  12
ENDBRANCH   8   9
ENDBRANCH   7   8
ENDBRANCH   3   7
BRANCH   4  18
ATOM     18  C   UNL d   1      48.180  35.670  52.695  0.00  0.00     0.019 A 
ATOM     19  C   UNL d   1      47.639  35.637  52.058  0.00  0.00     0.002 A 
ATOM     20  C   UNL d   1      46.912  36.023  52.113  0.00  0.00     0.000 A 
ATOM     21  C   UNL d   1      46.715  36.441  52.789  0.00  0.00     0.000 A 
ATOM     22  C   UNL d   1      47.245  36.480  53.427  0.00  0.00     0.000 A 
ATOM     23  C   UNL d   1      47.973  36.096  53.376  0.00  0.00     0.002 A 
ENDBRANCH   4  18
TORSDOF 6
ENDMDL
MODEL 5
REMARK VINA RESULT:      -5.7      2.505      3.163
REMARK  6 active torsions:
REMARK  status: ('A' for Active; 'I' for Inactive)
REMARK    1  A    between atoms: S_9  and  C_3 
REMARK    2  A    between atoms: C_4  and  C_17 
REMARK       I    between atoms: N_8  and  C_4 
REMARK    3  A    between atoms: C_5  and  C_16 
REMARK    4  A    between atoms: C_14  and  C_6 
REMARK    5  A    between atoms: C_16  and  N_8 
REMARK    6  A    between atoms: C_17  and  S_9 
ROOT
ATOM      1  N   UNL d   1      52.426  30.729  53.202  0.00  0.00    -0.148 NA
ATOM      2  N   UNL d   1      52.229  31.467  52.890  0.00  0.00    -0.141 NA
ATOM      3  C   UNL d   1      52.635  32.142  53.127  0.00  0.00     0.133 A 
ATOM      4  C   UNL d   1      53.039  30.676  53.758  0.00  0.00     0.103 A 
ATOM      5  C   UNL d   1      53.445  31.342  53.996  0.00  0.00     0.023 A 
ATOM      6  C   UNL d   1      53.252  32.078  53.688  0.00  0.00     0.029 A 
ENDROOT
BRANCH   3   7
ATOM      7  S   UNL d   1      52.434  32.873  52.812  0.00  0.00    -0.061 SA
BRANCH   7   8
ATOM      8  C   UNL d   1      51.780  33.278  53.102  0.00  0.00     0.099 C 
BRANCH   8   9
ATOM      9  C   UNL d   1      51.492  33.943  52.707  0.00  0.00     0.286 C 
ATOM     10  N   UNL d   1      50.688  34.029  52.575  0.00  0.00    -0.204 NA
ATOM     11  O   UNL d   1      52.015  34.520  52.445  0.00  0.00    -0.265 OA
BRANCH  10  12
ATOM     12  C   UNL d   1      50.401  34.684  52.185  0.00  0.00     0.127 C 
BRANCH  12  13
ATOM     13  C   UNL d   1      49.594  34.767  52.057  0.00  0.00     0.119 A 
ATOM     14  O   UNL d   1      49.048  35.086  52.580  0.00  0.00    -0.304 OA
ATOM     15  C   UNL d   1      48.308  35.061  52.229  0.00  0.00     0.123 A 
ATOM     16  C   UNL d   1      48.395  34.725  51.486  0.00  0.00     0.029 A 
ATOM     17  C   UNL d   1      49.186  34.540  51.371  0.00  0.00     0.028 A 
ENDBRANCH  12  13
ENDBRANCH  10  12
ENDBRANCH   8   9
ENDBRANCH   7   8
ENDBRANCH   3   7
BRANCH   4  18
ATOM     18  C   UNL d   1      53.240  29.936  54.074  0.00  0.00     0.019 A 
ATOM     19  C   UNL d   1      53.689  29.390  53.627  0.00  0.00     0.002 A 
ATOM     20  C   UNL d   1      53.884  28.655  53.949  0.00  0.00     0.000 A 
ATOM     21  C   UNL d   1      53.641  28.456  54.705  0.00  0.00     0.000 A 
ATOM     22  C   UNL d   1      53.195  28.992  55.156  0.00  0.00     0.000 A 
ATOM     23  C   UNL d   1      52.998  29.727  54.839  0.00  0.00     0.002 A 
ENDBRANCH   4  18
TORSDOF 6
ENDMDL
