MODEL 1
REMARK VINA RESULT:      -1.6      0.000      0.000
REMARK  3 active torsions:
REMARK  status: ('A' for Active; 'I' for Inactive)
REMARK    1  A    between atoms: C_8  and  C_1 
REMARK    2  A    between atoms: N_7  and  C_8 
REMARK    3  A    between atoms: C_13  and  C_8 
ROOT
ATOM      1  C   UNL d   1      59.211  -0.701  29.578  0.00  0.00     0.075 C 
ENDROOT
BRANCH   1   2
ATOM      2  N   UNL d   1      59.140  -1.472  29.304  0.00  0.00    -0.303 N 
ATOM      3  C   UNL d   1      59.654  -2.055  29.560  0.00  0.00     0.080 A 
ATOM      4  C   UNL d   1      59.576  -2.828  29.280  0.00  0.00     0.018 A 
ATOM      5  C   UNL d   1      60.090  -3.411  29.537  0.00  0.00     0.002 C 
ATOM      6  C   UNL d   1      58.980  -3.019  28.741  0.00  0.00     0.003 A 
ATOM      7  C   UNL d   1      58.469  -2.422  28.491  0.00  0.00     0.019 A 
ATOM      8  C   UNL d   1      58.544  -1.649  28.768  0.00  0.00     0.080 A 
ENDBRANCH   1   2
BRANCH   1   9
ATOM      9  C   UNL d   1      58.623  -0.390  30.066  0.00  0.00     0.106 A 
ATOM     10  C   UNL d   1      57.956   0.040  29.815  0.00  0.00     0.290 A 
ATOM     11  N   UNL d   1      57.517   0.243  30.481  0.00  0.00    -0.169 N 
ATOM     12  O   UNL d   1      57.770   0.228  29.032  0.00  0.00    -0.265 OA
ATOM     13  N   UNL d   1      56.843   0.627  30.741  0.00  0.00    -0.138 NA
ATOM     14  C   UNL d   1      57.908  -0.059  31.142  0.00  0.00     0.200 A 
ATOM     15  C   UNL d   1      56.810   0.569  31.561  0.00  0.00     0.222 A 
ATOM     16  N   UNL d   1      57.470   0.144  31.809  0.00  0.00    -0.197 NA
ATOM     17  S   UNL d   1      58.586  -0.447  30.889  0.00  0.00    -0.042 SA
ENDBRANCH   1   9
BRANCH   1  18
ATOM     18  C   UNL d   1      59.857  -0.242  29.372  0.00  0.00     0.017 A 
ATOM     19  C   UNL d   1      60.501  -0.203  29.865  0.00  0.00     0.002 A 
ATOM     20  C   UNL d   1      61.133   0.251  29.655  0.00  0.00     0.000 A 
ATOM     21  C   UNL d   1      61.133   0.681  28.937  0.00  0.00     0.000 A 
ATOM     22  C   UNL d   1      60.492   0.637  28.455  0.00  0.00     0.000 A 
ATOM     23  C   UNL d   1      59.839   0.175  28.660  0.00  0.00     0.002 A 
ENDBRANCH   1  18
TORSDOF 3
ENDMDL
