MODEL 1
REMARK VINA RESULT:      82.4      0.000      0.000
REMARK  4 active torsions:
REMARK  status: ('A' for Active; 'I' for Inactive)
REMARK    1  A    between atoms: N_3  and  S_1 
REMARK    2  A    between atoms: C_4  and  S_1 
REMARK    3  A    between atoms: C_2  and  N_3 
REMARK    4  A    between atoms: O_18  and  C_13 
ROOT
ATOM      1  S   UNL d   1      61.257  47.932  50.259  0.00  0.00     0.285 S 
ATOM      2  O   UNL d   1      60.435  47.847  50.496  0.00  0.00    -0.198 OA
ATOM      3  O   UNL d   1      62.070  48.006  50.024  0.00  0.00    -0.198 OA
ENDROOT
BRANCH   1   4
ATOM      4  N   UNL d   1      61.206  48.753  50.357  0.00  0.00    -0.157 NA
BRANCH   4   5
ATOM      5  C   UNL d   1      60.595  49.079  50.848  0.00  0.00     0.113 A 
ATOM      6  C   UNL d   1      60.757  49.228  51.642  0.00  0.00     0.100 A 
ATOM      7  C   UNL d   1      60.163  49.545  52.119  0.00  0.00     0.021 A 
ATOM      8  N   UNL d   1      61.489  49.071  51.968  0.00  0.00    -0.242 NA
ATOM      9  C   UNL d   1      60.312  49.698  52.911  0.00  0.00     0.003 A 
ATOM     10  C   UNL d   1      59.418  49.706  51.792  0.00  0.00     0.026 A 
ATOM     11  C   UNL d   1      61.053  49.537  53.234  0.00  0.00     0.021 A 
ATOM     12  C   UNL d   1      61.647  49.220  52.757  0.00  0.00     0.099 A 
ATOM     13  C   UNL d   1      59.265  49.553  50.995  0.00  0.00     0.096 A 
ATOM     14  C   UNL d   1      59.860  49.236  50.518  0.00  0.00     0.046 A 
BRANCH  13  15
ATOM     15  O   UNL d   1      58.528  49.705  50.643  0.00  0.00    -0.328 OA
ATOM     16  C   UNL d   1      57.879  49.207  50.800  0.00  0.00     0.181 C 
ENDBRANCH  13  15
ENDBRANCH   4   5
ENDBRANCH   1   4
BRANCH   1  17
ATOM     17  C   UNL d   1      61.321  47.088  50.155  0.00  0.00     0.105 A 
ATOM     18  C   UNL d   1      61.825  46.778  49.586  0.00  0.00     0.013 A 
ATOM     19  C   UNL d   1      61.881  45.961  49.491  0.00  0.00     0.001 A 
ATOM     20  C   UNL d   1      62.382  45.652  48.925  0.00  0.00     0.000 A 
ATOM     21  C   UNL d   1      61.434  45.451  49.964  0.00  0.00     0.000 A 
ATOM     22  C   UNL d   1      62.434  44.834  48.834  0.00  0.00     0.000 A 
ATOM     23  C   UNL d   1      61.991  44.326  49.303  0.00  0.00     0.000 A 
ATOM     24  C   UNL d   1      61.491  44.635  49.869  0.00  0.00     0.000 A 
ATOM     25  C   UNL d   1      60.915  45.771  50.551  0.00  0.00     0.001 A 
ATOM     26  C   UNL d   1      60.862  46.589  50.642  0.00  0.00     0.013 A 
ENDBRANCH   1  17
TORSDOF 4
ENDMDL
