MODEL 1
REMARK VINA RESULT:      49.9      0.000      0.000
REMARK  4 active torsions:
REMARK  status: ('A' for Active; 'I' for Inactive)
REMARK    1  A    between atoms: C_11  and  N_2 
REMARK    2  A    between atoms: N_3  and  C_14 
REMARK    3  A    between atoms: C_16  and  C_11 
REMARK    4  A    between atoms: C_14  and  C_16 
ROOT
ATOM      1  C   UNL d   1      13.266  12.220  -3.112  0.00  0.00     0.231 C 
ATOM      2  O   UNL d   1      13.795  11.780  -3.570  0.00  0.00    -0.283 OA
ENDROOT
BRANCH   1   3
ATOM      3  C   UNL d   1      12.769  12.776  -3.471  0.00  0.00     0.124 C 
BRANCH   3   4
ATOM      4  N   UNL d   1      12.975  13.099  -4.205  0.00  0.00    -0.303 N 
ATOM      5  C   UNL d   1      13.064  12.678  -4.921  0.00  0.00     0.064 A 
ATOM      6  C   UNL d   1      13.273  13.223  -5.508  0.00  0.00     0.018 A 
ATOM      7  C   UNL d   1      12.962  11.864  -5.021  0.00  0.00     0.019 C 
ATOM      8  C   UNL d   1      13.415  13.045  -6.299  0.00  0.00     0.002 C 
ATOM      9  C   UNL d   1      13.313  13.975  -5.165  0.00  0.00     0.018 A 
ATOM     10  C   UNL d   1      13.129  13.898  -4.355  0.00  0.00     0.064 A 
ATOM     11  C   UNL d   1      13.494  14.724  -5.478  0.00  0.00     0.002 A 
ATOM     12  C   UNL d   1      13.126  14.571  -3.867  0.00  0.00     0.018 A 
ATOM     13  C   UNL d   1      13.305  15.311  -4.181  0.00  0.00     0.002 A 
ATOM     14  C   UNL d   1      13.488  15.387  -4.982  0.00  0.00     0.000 A 
ENDBRANCH   3   4
ENDBRANCH   1   3
BRANCH   1  15
ATOM     15  C   UNL d   1      13.233  12.104  -2.302  0.00  0.00     0.138 C 
BRANCH  15  16
ATOM     16  N   UNL d   1      13.895  12.264  -1.828  0.00  0.00    -0.194 N 
ATOM     17  S   UNL d   1      13.885  12.600  -1.076  0.00  0.00     0.274 S 
ATOM     18  C   UNL d   1      14.665  12.656  -0.815  0.00  0.00     0.109 A 
ATOM     19  O   UNL d   1      13.064  12.630  -1.147  0.00  0.00    -0.200 OA
ATOM     20  O   UNL d   1      14.055  12.917  -0.333  0.00  0.00    -0.200 OA
ATOM     21  C   UNL d   1      15.154  12.356  -1.407  0.00  0.00     0.069 A 
ATOM     22  C   UNL d   1      14.996  12.939  -0.122  0.00  0.00     0.013 A 
ATOM     23  C   UNL d   1      15.966  12.340  -1.303  0.00  0.00     0.005 A 
ATOM     24  C   UNL d   1      14.677  12.113  -2.034  0.00  0.00     0.275 A 
ATOM     25  C   UNL d   1      16.293  12.625  -0.608  0.00  0.00     0.000 A 
ATOM     26  C   UNL d   1      15.805  12.924  -0.017  0.00  0.00     0.001 A 
ATOM     27  O   UNL d   1      14.937  11.779  -2.741  0.00  0.00    -0.266 OA
ENDBRANCH  15  16
ENDBRANCH   1  15
TORSDOF 4
ENDMDL
