MODEL 1
REMARK VINA RESULT:       4.3      0.000      0.000
REMARK  1 active torsions:
REMARK  status: ('A' for Active; 'I' for Inactive)
REMARK    1  A    between atoms: C_6  and  N_1 
ROOT
ATOM      1  C   UNL d   1      24.295  12.325  -2.406  0.00  0.00     0.086 A 
ATOM      2  C   UNL d   1      23.642  12.715  -2.101  0.00  0.00     0.023 A 
ATOM      3  C   UNL d   1      24.768  11.859  -1.915  0.00  0.00     0.023 A 
ATOM      4  C   UNL d   1      23.921  12.182  -0.811  0.00  0.00     0.196 A 
ATOM      5  C   UNL d   1      24.580  11.787  -1.114  0.00  0.00     0.044 A 
ATOM      6  C   UNL d   1      23.455  12.643  -1.301  0.00  0.00     0.044 A 
ATOM      7  O   UNL d   1      23.735  12.110  -0.014  0.00  0.00    -0.287 OA
ENDROOT
BRANCH   1   8
ATOM      8  N   UNL d   1      24.477  12.399  -3.199  0.00  0.00    -0.189 N 
ATOM      9  N   UNL d   1      24.572  13.105  -3.615  0.00  0.00    -0.038 NA
ATOM     10  N   UNL d   1      24.752  12.916  -4.397  0.00  0.00    -0.022 NA
ATOM     11  N   UNL d   1      24.768  12.106  -4.465  0.00  0.00    -0.104 NA
ATOM     12  C   UNL d   1      24.599  11.779  -3.725  0.00  0.00     0.226 A 
ENDBRANCH   1   8
TORSDOF 1
ENDMDL
