MODEL 1
REMARK VINA RESULT:      -8.4      0.000      0.000
REMARK  5 active torsions:
REMARK  status: ('A' for Active; 'I' for Inactive)
REMARK    1  A    between atoms: C_5  and  N_1 
REMARK    2  A    between atoms: C_7  and  C_5 
REMARK    3  A    between atoms: O_14  and  C_10 
REMARK    4  A    between atoms: C_18  and  O_14 
REMARK    5  A    between atoms: C_19  and  C_18 
ROOT
ATOM      1  N   UNL d   1     -48.415  12.363  23.389  0.00  0.00    -0.251 N 
ATOM      2  C   UNL d   1     -48.367  11.549  23.540  0.00  0.00     0.378 A 
ATOM      3  C   UNL d   1     -47.649  12.648  23.261  0.00  0.00     0.092 A 
ATOM      4  O   UNL d   1     -47.568  11.332  23.504  0.00  0.00    -0.258 OA
ATOM      5  C   UNL d   1     -47.126  12.012  23.331  0.00  0.00     0.121 A 
ATOM      6  O   UNL d   1     -48.997  11.044  23.698  0.00  0.00    -0.237 OA
ATOM      7  C   UNL d   1     -47.371  13.402  23.090  0.00  0.00     0.020 A 
ATOM      8  C   UNL d   1     -46.314  12.141  23.228  0.00  0.00     0.026 A 
ATOM      9  C   UNL d   1     -46.565  13.527  22.987  0.00  0.00     0.002 A 
ATOM     10  C   UNL d   1     -46.035  12.895  23.057  0.00  0.00     0.002 A 
ATOM     11  C   UNL d   1     -46.284  14.283  22.816  0.00  0.00     0.000 C 
ENDROOT
BRANCH   1  12
ATOM     12  C   UNL d   1     -49.088  12.841  23.363  0.00  0.00     0.087 C 
BRANCH  12  13
ATOM     13  C   UNL d   1     -49.581  12.833  22.698  0.00  0.00     0.041 A 
ATOM     14  C   UNL d   1     -50.183  13.374  22.629  0.00  0.00     0.102 A 
ATOM     15  C   UNL d   1     -50.670  13.364  21.970  0.00  0.00     0.025 A 
ATOM     16  C   UNL d   1     -50.551  12.806  21.377  0.00  0.00     0.002 A 
ATOM     17  C   UNL d   1     -49.938  12.257  21.448  0.00  0.00     0.000 A 
ATOM     18  C   UNL d   1     -49.451  12.272  22.114  0.00  0.00     0.004 A 
BRANCH  14  19
ATOM     19  O   UNL d   1     -50.308  13.938  23.223  0.00  0.00    -0.305 OA
BRANCH  19  20
ATOM     20  C   UNL d   1     -50.760  14.611  23.068  0.00  0.00     0.123 C 
BRANCH  20  21
ATOM     21  C   UNL d   1     -50.981  15.109  23.679  0.00  0.00     0.027 C 
ATOM     22  C   UNL d   1     -50.708  15.889  23.698  0.00  0.00     0.002 C 
ENDBRANCH  20  21
ENDBRANCH  19  20
ENDBRANCH  14  19
ENDBRANCH  12  13
ENDBRANCH   1  12
TORSDOF 5
ENDMDL
MODEL 2
REMARK VINA RESULT:      -8.2      1.233      3.868
REMARK  5 active torsions:
REMARK  status: ('A' for Active; 'I' for Inactive)
REMARK    1  A    between atoms: C_5  and  N_1 
REMARK    2  A    between atoms: C_7  and  C_5 
REMARK    3  A    between atoms: O_14  and  C_10 
REMARK    4  A    between atoms: C_18  and  O_14 
REMARK    5  A    between atoms: C_19  and  C_18 
ROOT
ATOM      1  N   UNL d   1     -49.199  13.513  22.047  0.00  0.00    -0.251 N 
ATOM      2  C   UNL d   1     -49.646  13.074  21.504  0.00  0.00     0.378 A 
ATOM      3  C   UNL d   1     -49.683  14.107  22.359  0.00  0.00     0.092 A 
ATOM      4  O   UNL d   1     -50.408  13.399  21.482  0.00  0.00    -0.258 OA
ATOM      5  C   UNL d   1     -50.429  14.037  22.011  0.00  0.00     0.121 A 
ATOM      6  O   UNL d   1     -49.385  12.430  21.063  0.00  0.00    -0.237 OA
ATOM      7  C   UNL d   1     -49.532  14.695  22.913  0.00  0.00     0.020 A 
ATOM      8  C   UNL d   1     -51.028  14.568  22.225  0.00  0.00     0.026 A 
ATOM      9  C   UNL d   1     -50.129  15.220  23.123  0.00  0.00     0.002 A 
ATOM     10  C   UNL d   1     -50.878  15.157  22.779  0.00  0.00     0.002 A 
ATOM     11  C   UNL d   1     -49.980  15.812  23.679  0.00  0.00     0.000 C 
ENDROOT
BRANCH   1  12
ATOM     12  C   UNL d   1     -48.410  13.408  22.265  0.00  0.00     0.087 C 
BRANCH  12  13
ATOM     13  C   UNL d   1     -48.190  12.770  22.746  0.00  0.00     0.041 A 
ATOM     14  C   UNL d   1     -47.406  12.629  22.904  0.00  0.00     0.102 A 
ATOM     15  C   UNL d   1     -47.190  11.998  23.380  0.00  0.00     0.025 A 
ATOM     16  C   UNL d   1     -47.768  11.505  23.698  0.00  0.00     0.002 A 
ATOM     17  C   UNL d   1     -48.564  11.649  23.536  0.00  0.00     0.000 A 
ATOM     18  C   UNL d   1     -48.776  12.287  23.056  0.00  0.00     0.004 A 
BRANCH  14  19
ATOM     19  O   UNL d   1     -46.821  13.122  22.586  0.00  0.00    -0.305 OA
BRANCH  19  20
ATOM     20  C   UNL d   1     -46.036  12.865  22.552  0.00  0.00     0.123 C 
BRANCH  20  21
ATOM     21  C   UNL d   1     -45.448  13.375  22.298  0.00  0.00     0.027 C 
ATOM     22  C   UNL d   1     -44.800  13.084  21.875  0.00  0.00     0.002 C 
ENDBRANCH  20  21
ENDBRANCH  19  20
ENDBRANCH  14  19
ENDBRANCH  12  13
ENDBRANCH   1  12
TORSDOF 5
ENDMDL
MODEL 3
REMARK VINA RESULT:      -6.4      1.472      2.665
REMARK  5 active torsions:
REMARK  status: ('A' for Active; 'I' for Inactive)
REMARK    1  A    between atoms: C_5  and  N_1 
REMARK    2  A    between atoms: C_7  and  C_5 
REMARK    3  A    between atoms: O_14  and  C_10 
REMARK    4  A    between atoms: C_18  and  O_14 
REMARK    5  A    between atoms: C_19  and  C_18 
ROOT
ATOM      1  N   UNL d   1     -47.755  14.208  22.541  0.00  0.00    -0.251 N 
ATOM      2  C   UNL d   1     -47.153  14.777  22.585  0.00  0.00     0.378 A 
ATOM      3  C   UNL d   1     -47.484  13.517  22.906  0.00  0.00     0.092 A 
ATOM      4  O   UNL d   1     -46.509  14.434  22.978  0.00  0.00    -0.258 OA
ATOM      5  C   UNL d   1     -46.715  13.656  23.176  0.00  0.00     0.121 A 
ATOM      6  O   UNL d   1     -47.185  15.546  22.293  0.00  0.00    -0.237 OA
ATOM      7  C   UNL d   1     -47.843  12.786  23.022  0.00  0.00     0.020 A 
ATOM      8  C   UNL d   1     -46.306  13.050  23.567  0.00  0.00     0.026 A 
ATOM      9  C   UNL d   1     -47.435  12.188  23.410  0.00  0.00     0.002 A 
ATOM     10  C   UNL d   1     -46.665  12.320  23.683  0.00  0.00     0.002 A 
ATOM     11  C   UNL d   1     -47.793  11.454  23.527  0.00  0.00     0.000 C 
ENDROOT
BRANCH   1  12
ATOM     12  C   UNL d   1     -48.505  14.279  22.203  0.00  0.00     0.087 C 
BRANCH  12  13
ATOM     13  C   UNL d   1     -49.100  14.705  22.592  0.00  0.00     0.041 A 
ATOM     14  C   UNL d   1     -49.881  14.578  22.406  0.00  0.00     0.102 A 
ATOM     15  C   UNL d   1     -50.468  14.999  22.791  0.00  0.00     0.025 A 
ATOM     16  C   UNL d   1     -50.269  15.552  23.367  0.00  0.00     0.002 A 
ATOM     17  C   UNL d   1     -49.475  15.680  23.555  0.00  0.00     0.000 A 
ATOM     18  C   UNL d   1     -48.887  15.253  23.163  0.00  0.00     0.004 A 
BRANCH  14  19
ATOM     19  O   UNL d   1     -50.087  14.022  21.827  0.00  0.00    -0.305 OA
BRANCH  19  20
ATOM     20  C   UNL d   1     -50.874  13.790  21.736  0.00  0.00     0.123 C 
BRANCH  20  21
ATOM     21  C   UNL d   1     -51.060  13.001  21.620  0.00  0.00     0.027 C 
ATOM     22  C   UNL d   1     -51.048  12.680  20.858  0.00  0.00     0.002 C 
ENDBRANCH  20  21
ENDBRANCH  19  20
ENDBRANCH  14  19
ENDBRANCH  12  13
ENDBRANCH   1  12
TORSDOF 5
ENDMDL
MODEL 4
REMARK VINA RESULT:      -5.7      1.571      3.705
REMARK  5 active torsions:
REMARK  status: ('A' for Active; 'I' for Inactive)
REMARK    1  A    between atoms: C_5  and  N_1 
REMARK    2  A    between atoms: C_7  and  C_5 
REMARK    3  A    between atoms: O_14  and  C_10 
REMARK    4  A    between atoms: C_18  and  O_14 
REMARK    5  A    between atoms: C_19  and  C_18 
ROOT
ATOM      1  N   UNL d   1     -49.760  13.308  22.041  0.00  0.00    -0.251 N 
ATOM      2  C   UNL d   1     -50.524  13.578  21.866  0.00  0.00     0.378 A 
ATOM      3  C   UNL d   1     -49.825  12.648  22.536  0.00  0.00     0.092 A 
ATOM      4  O   UNL d   1     -51.062  13.082  22.255  0.00  0.00    -0.258 OA
ATOM      5  C   UNL d   1     -50.630  12.509  22.669  0.00  0.00     0.121 A 
ATOM      6  O   UNL d   1     -50.718  14.222  21.392  0.00  0.00    -0.237 OA
ATOM      7  C   UNL d   1     -49.255  12.165  22.877  0.00  0.00     0.020 A 
ATOM      8  C   UNL d   1     -50.857  11.874  23.151  0.00  0.00     0.026 A 
ATOM      9  C   UNL d   1     -49.484  11.536  23.355  0.00  0.00     0.002 A 
ATOM     10  C   UNL d   1     -50.286  11.391  23.492  0.00  0.00     0.002 A 
ATOM     11  C   UNL d   1     -48.912  11.050  23.698  0.00  0.00     0.000 C 
ENDROOT
BRANCH   1  12
ATOM     12  C   UNL d   1     -49.036  13.614  21.787  0.00  0.00     0.087 C 
BRANCH  12  13
ATOM     13  C   UNL d   1     -48.753  14.328  22.098  0.00  0.00     0.041 A 
ATOM     14  C   UNL d   1     -47.955  14.438  22.207  0.00  0.00     0.102 A 
ATOM     15  C   UNL d   1     -47.676  15.144  22.513  0.00  0.00     0.025 A 
ATOM     16  C   UNL d   1     -48.203  15.745  22.712  0.00  0.00     0.002 A 
ATOM     17  C   UNL d   1     -49.013  15.632  22.601  0.00  0.00     0.000 A 
ATOM     18  C   UNL d   1     -49.289  14.917  22.291  0.00  0.00     0.004 A 
BRANCH  14  19
ATOM     19  O   UNL d   1     -47.420  13.837  22.008  0.00  0.00    -0.305 OA
BRANCH  19  20
ATOM     20  C   UNL d   1     -46.638  13.875  22.270  0.00  0.00     0.123 C 
BRANCH  20  21
ATOM     21  C   UNL d   1     -46.114  13.271  22.091  0.00  0.00     0.027 C 
ATOM     22  C   UNL d   1     -45.504  13.081  22.616  0.00  0.00     0.002 C 
ENDBRANCH  20  21
ENDBRANCH  19  20
ENDBRANCH  14  19
ENDBRANCH  12  13
ENDBRANCH   1  12
TORSDOF 5
ENDMDL
MODEL 5
REMARK VINA RESULT:      -5.7      8.127     10.187
REMARK  5 active torsions:
REMARK  status: ('A' for Active; 'I' for Inactive)
REMARK    1  A    between atoms: C_5  and  N_1 
REMARK    2  A    between atoms: C_7  and  C_5 
REMARK    3  A    between atoms: O_14  and  C_10 
REMARK    4  A    between atoms: C_18  and  O_14 
REMARK    5  A    between atoms: C_19  and  C_18 
ROOT
ATOM      1  N   UNL d   1     -40.184  14.588  17.939  0.00  0.00    -0.251 N 
ATOM      2  C   UNL d   1     -40.403  15.201  17.426  0.00  0.00     0.378 A 
ATOM      3  C   UNL d   1     -39.579  14.154  17.579  0.00  0.00     0.092 A 
ATOM      4  O   UNL d   1     -39.931  15.144  16.747  0.00  0.00    -0.258 OA
ATOM      5  C   UNL d   1     -39.422  14.497  16.843  0.00  0.00     0.121 A 
ATOM      6  O   UNL d   1     -40.985  15.767  17.562  0.00  0.00    -0.237 OA
ATOM      7  C   UNL d   1     -39.158  13.495  17.832  0.00  0.00     0.020 A 
ATOM      8  C   UNL d   1     -38.834  14.169  16.360  0.00  0.00     0.026 A 
ATOM      9  C   UNL d   1     -38.575  13.173  17.351  0.00  0.00     0.002 A 
ATOM     10  C   UNL d   1     -38.413  13.510  16.613  0.00  0.00     0.002 A 
ATOM     11  C   UNL d   1     -38.151  12.511  17.603  0.00  0.00     0.000 C 
ENDROOT
BRANCH   1  12
ATOM     12  C   UNL d   1     -40.490  14.408  18.685  0.00  0.00     0.087 C 
BRANCH  12  13
ATOM     13  C   UNL d   1     -40.285  14.868  19.343  0.00  0.00     0.041 A 
ATOM     14  C   UNL d   1     -40.637  14.732  20.062  0.00  0.00     0.102 A 
ATOM     15  C   UNL d   1     -40.433  15.187  20.712  0.00  0.00     0.025 A 
ATOM     16  C   UNL d   1     -39.870  15.784  20.637  0.00  0.00     0.002 A 
ATOM     17  C   UNL d   1     -39.513  15.921  19.906  0.00  0.00     0.000 A 
ATOM     18  C   UNL d   1     -39.723  15.459  19.254  0.00  0.00     0.004 A 
BRANCH  14  19
ATOM     19  O   UNL d   1     -41.204  14.133  20.143  0.00  0.00    -0.305 OA
BRANCH  19  20
ATOM     20  C   UNL d   1     -41.534  13.971  20.882  0.00  0.00     0.123 C 
BRANCH  20  21
ATOM     21  C   UNL d   1     -42.275  13.626  20.935  0.00  0.00     0.027 C 
ATOM     22  C   UNL d   1     -42.380  12.937  21.381  0.00  0.00     0.002 C 
ENDBRANCH  20  21
ENDBRANCH  19  20
ENDBRANCH  14  19
ENDBRANCH  12  13
ENDBRANCH   1  12
TORSDOF 5
ENDMDL
MODEL 6
REMARK VINA RESULT:      -5.5      8.911     10.877
REMARK  5 active torsions:
REMARK  status: ('A' for Active; 'I' for Inactive)
REMARK    1  A    between atoms: C_5  and  N_1 
REMARK    2  A    between atoms: C_7  and  C_5 
REMARK    3  A    between atoms: O_14  and  C_10 
REMARK    4  A    between atoms: C_18  and  O_14 
REMARK    5  A    between atoms: C_19  and  C_18 
ROOT
ATOM      1  N   UNL d   1     -38.715  14.469  18.758  0.00  0.00    -0.251 N 
ATOM      2  C   UNL d   1     -38.801  15.188  18.353  0.00  0.00     0.378 A 
ATOM      3  C   UNL d   1     -38.560  13.876  18.202  0.00  0.00     0.092 A 
ATOM      4  O   UNL d   1     -38.699  15.037  17.545  0.00  0.00    -0.258 OA
ATOM      5  C   UNL d   1     -38.550  14.227  17.453  0.00  0.00     0.121 A 
ATOM      6  O   UNL d   1     -38.959  15.922  18.690  0.00  0.00    -0.237 OA
ATOM      7  C   UNL d   1     -38.429  13.070  18.289  0.00  0.00     0.020 A 
ATOM      8  C   UNL d   1     -38.406  13.755  16.787  0.00  0.00     0.026 A 
ATOM      9  C   UNL d   1     -38.286  12.605  17.626  0.00  0.00     0.002 A 
ATOM     10  C   UNL d   1     -38.275  12.949  16.874  0.00  0.00     0.002 A 
ATOM     11  C   UNL d   1     -38.154  11.795  17.711  0.00  0.00     0.000 C 
ENDROOT
BRANCH   1  12
ATOM     12  C   UNL d   1     -38.766  14.328  19.570  0.00  0.00     0.087 C 
BRANCH  12  13
ATOM     13  C   UNL d   1     -39.502  14.346  19.951  0.00  0.00     0.041 A 
ATOM     14  C   UNL d   1     -39.558  14.158  20.740  0.00  0.00     0.102 A 
ATOM     15  C   UNL d   1     -40.285  14.176  21.115  0.00  0.00     0.025 A 
ATOM     16  C   UNL d   1     -40.962  14.384  20.695  0.00  0.00     0.002 A 
ATOM     17  C   UNL d   1     -40.903  14.574  19.893  0.00  0.00     0.000 A 
ATOM     18  C   UNL d   1     -40.167  14.555  19.520  0.00  0.00     0.004 A 
BRANCH  14  19
ATOM     19  O   UNL d   1     -38.880  13.948  21.168  0.00  0.00    -0.305 OA
BRANCH  19  20
ATOM     20  C   UNL d   1     -38.946  13.691  21.950  0.00  0.00     0.123 C 
BRANCH  20  21
ATOM     21  C   UNL d   1     -38.296  13.380  22.337  0.00  0.00     0.027 C 
ATOM     22  C   UNL d   1     -38.315  13.267  23.156  0.00  0.00     0.002 C 
ENDBRANCH  20  21
ENDBRANCH  19  20
ENDBRANCH  14  19
ENDBRANCH  12  13
ENDBRANCH   1  12
TORSDOF 5
ENDMDL
