MODEL 1
REMARK VINA RESULT:      -2.9      0.000      0.000
REMARK  5 active torsions:
REMARK  status: ('A' for Active; 'I' for Inactive)
REMARK    1  A    between atoms: C_8  and  C_1 
REMARK    2  A    between atoms: C_6  and  O_10 
REMARK       I    between atoms: N_7  and  C_6 
REMARK    3  A    between atoms: C_15  and  C_8 
REMARK    4  A    between atoms: O_10  and  C_12 
REMARK    5  A    between atoms: C_27  and  C_18 
ROOT
ATOM      1  C   UNL d   1      31.314  16.794 -24.294  0.00  0.00     0.139 A 
ATOM      2  C   UNL d   1      32.373  17.349 -23.683  0.00  0.00     0.064 A 
ATOM      3  C   UNL d   1      32.067  16.647 -23.989  0.00  0.00     0.220 A 
ATOM      4  C   UNL d   1      31.812  17.940 -23.795  0.00  0.00     0.105 A 
ATOM      5  O   UNL d   1      31.149  17.602 -24.176  0.00  0.00    -0.304 OA
ATOM      6  C   UNL d   1      31.966  18.705 -23.544  0.00  0.00     0.050 A 
ATOM      7  C   UNL d   1      33.090  17.521 -23.318  0.00  0.00     0.007 A 
ATOM      8  C   UNL d   1      32.675  18.875 -23.183  0.00  0.00     0.107 A 
ATOM      9  O   UNL d   1      32.448  15.903 -23.994  0.00  0.00    -0.284 OA
ATOM     10  C   UNL d   1      33.241  18.290 -23.067  0.00  0.00     0.025 A 
ENDROOT
BRANCH   1  11
ATOM     11  C   UNL d   1      30.809  16.247 -24.652  0.00  0.00     0.028 C 
BRANCH  11  12
ATOM     12  C   UNL d   1      30.029  16.177 -24.397  0.00  0.00     0.002 A 
ATOM     13  C   UNL d   1      29.437  16.621 -24.756  0.00  0.00     0.000 A 
ATOM     14  C   UNL d   1      28.650  16.559 -24.507  0.00  0.00     0.000 A 
ATOM     15  C   UNL d   1      28.463  16.040 -23.887  0.00  0.00     0.000 A 
ATOM     16  C   UNL d   1      29.059  15.592 -23.524  0.00  0.00     0.000 A 
ATOM     17  C   UNL d   1      29.843  15.663 -23.783  0.00  0.00     0.000 A 
BRANCH  15  18
ATOM     18  C   UNL d   1      27.678  15.972 -23.632  0.00  0.00     0.000 C 
ATOM     19  C   UNL d   1      27.387  16.477 -23.053  0.00  0.00     0.000 C 
ENDBRANCH  15  18
ENDBRANCH  11  12
ENDBRANCH   1  11
BRANCH   8  20
ATOM     20  O   UNL d   1      32.834  19.647 -22.927  0.00  0.00    -0.259 OA
BRANCH  20  21
ATOM     21  C   UNL d   1      32.920  19.815 -22.118  0.00  0.00     0.378 C 
ATOM     22  N   UNL d   1      32.969  20.592 -21.859  0.00  0.00    -0.247 N 
ATOM     23  C   UNL d   1      32.932  21.219 -22.410  0.00  0.00     0.112 A 
ATOM     24  C   UNL d   1      33.055  20.765 -21.064  0.00  0.00     0.112 A 
ATOM     25  C   UNL d   1      32.981  22.004 -22.157  0.00  0.00     0.142 A 
ATOM     26  O   UNL d   1      33.068  22.165 -21.342  0.00  0.00    -0.300 OA
ATOM     27  C   UNL d   1      33.104  21.548 -20.800  0.00  0.00     0.142 A 
ATOM     28  O   UNL d   1      32.957  19.198 -21.576  0.00  0.00    -0.237 OA
ENDBRANCH  20  21
ENDBRANCH   8  20
TORSDOF 5
ENDMDL
MODEL 2
REMARK VINA RESULT:      -1.9      2.090      5.902
REMARK  5 active torsions:
REMARK  status: ('A' for Active; 'I' for Inactive)
REMARK    1  A    between atoms: C_8  and  C_1 
REMARK    2  A    between atoms: C_6  and  O_10 
REMARK       I    between atoms: N_7  and  C_6 
REMARK    3  A    between atoms: C_15  and  C_8 
REMARK    4  A    between atoms: O_10  and  C_12 
REMARK    5  A    between atoms: C_27  and  C_18 
ROOT
ATOM      1  C   UNL d   1      33.196  21.841 -23.064  0.00  0.00     0.139 A 
ATOM      2  C   UNL d   1      33.123  20.872 -23.992  0.00  0.00     0.064 A 
ATOM      3  C   UNL d   1      33.124  21.689 -23.873  0.00  0.00     0.220 A 
ATOM      4  C   UNL d   1      33.194  20.509 -23.258  0.00  0.00     0.105 A 
ATOM      5  O   UNL d   1      33.240  21.106 -22.674  0.00  0.00    -0.304 OA
ATOM      6  C   UNL d   1      33.208  19.691 -23.203  0.00  0.00     0.050 A 
ATOM      7  C   UNL d   1      33.066  20.419 -24.676  0.00  0.00     0.007 A 
ATOM      8  C   UNL d   1      33.152  19.242 -23.880  0.00  0.00     0.107 A 
ATOM      9  O   UNL d   1      33.063  22.274 -24.465  0.00  0.00    -0.284 OA
ATOM     10  C   UNL d   1      33.080  19.597 -24.618  0.00  0.00     0.025 A 
ENDROOT
BRANCH   1  11
ATOM     11  C   UNL d   1      33.220  22.582 -22.700  0.00  0.00     0.028 C 
BRANCH  11  12
ATOM     12  C   UNL d   1      32.882  22.687 -21.956  0.00  0.00     0.002 A 
ATOM     13  C   UNL d   1      33.201  22.304 -21.302  0.00  0.00     0.000 A 
ATOM     14  C   UNL d   1      32.870  22.402 -20.550  0.00  0.00     0.000 A 
ATOM     15  C   UNL d   1      32.208  22.894 -20.461  0.00  0.00     0.000 A 
ATOM     16  C   UNL d   1      31.886  23.281 -21.121  0.00  0.00     0.000 A 
ATOM     17  C   UNL d   1      32.226  23.174 -21.868  0.00  0.00     0.000 A 
BRANCH  15  18
ATOM     18  C   UNL d   1      31.870  22.997 -19.713  0.00  0.00     0.000 C 
ATOM     19  C   UNL d   1      32.259  23.443 -19.143  0.00  0.00     0.000 C 
ENDBRANCH  15  18
ENDBRANCH  11  12
ENDBRANCH   1  11
BRANCH   8  20
ATOM     20  O   UNL d   1      33.166  18.416 -23.830  0.00  0.00    -0.259 OA
BRANCH  20  21
ATOM     21  C   UNL d   1      32.461  17.985 -23.736  0.00  0.00     0.378 C 
ATOM     22  N   UNL d   1      32.482  17.168 -23.660  0.00  0.00    -0.247 N 
ATOM     23  C   UNL d   1      33.213  16.765 -23.677  0.00  0.00     0.112 A 
ATOM     24  C   UNL d   1      31.792  16.738 -23.568  0.00  0.00     0.112 A 
ATOM     25  C   UNL d   1      33.241  15.943 -23.601  0.00  0.00     0.142 A 
ATOM     26  O   UNL d   1      32.528  15.517 -23.508  0.00  0.00    -0.300 OA
ATOM     27  C   UNL d   1      31.809  15.914 -23.492  0.00  0.00     0.142 A 
ATOM     28  O   UNL d   1      31.741  18.382 -23.720  0.00  0.00    -0.237 OA
ENDBRANCH  20  21
ENDBRANCH   8  20
TORSDOF 5
ENDMDL
MODEL 3
REMARK VINA RESULT:      -0.7      1.377      2.449
REMARK  5 active torsions:
REMARK  status: ('A' for Active; 'I' for Inactive)
REMARK    1  A    between atoms: C_8  and  C_1 
REMARK    2  A    between atoms: C_6  and  O_10 
REMARK       I    between atoms: N_7  and  C_6 
REMARK    3  A    between atoms: C_15  and  C_8 
REMARK    4  A    between atoms: O_10  and  C_12 
REMARK    5  A    between atoms: C_27  and  C_18 
ROOT
ATOM      1  C   UNL d   1      32.802  18.431 -23.387  0.00  0.00     0.139 A 
ATOM      2  C   UNL d   1      33.030  19.167 -22.287  0.00  0.00     0.064 A 
ATOM      3  C   UNL d   1      32.938  18.399 -22.573  0.00  0.00     0.220 A 
ATOM      4  C   UNL d   1      32.953  19.685 -22.921  0.00  0.00     0.105 A 
ATOM      5  O   UNL d   1      32.810  19.234 -23.610  0.00  0.00    -0.304 OA
ATOM      6  C   UNL d   1      33.019  20.494 -22.801  0.00  0.00     0.050 A 
ATOM      7  C   UNL d   1      33.175  19.456 -21.530  0.00  0.00     0.007 A 
ATOM      8  C   UNL d   1      33.162  20.779 -22.053  0.00  0.00     0.107 A 
ATOM      9  O   UNL d   1      32.974  17.697 -22.122  0.00  0.00    -0.284 OA
ATOM     10  C   UNL d   1      33.241  20.268 -21.413  0.00  0.00     0.025 A 
ENDROOT
BRANCH   1  11
ATOM     11  C   UNL d   1      32.680  17.791 -23.894  0.00  0.00     0.028 C 
BRANCH  11  12
ATOM     12  C   UNL d   1      31.927  17.641 -24.194  0.00  0.00     0.002 A 
ATOM     13  C   UNL d   1      31.541  18.212 -24.642  0.00  0.00     0.000 A 
ATOM     14  C   UNL d   1      30.785  18.071 -24.947  0.00  0.00     0.000 A 
ATOM     15  C   UNL d   1      30.417  17.343 -24.795  0.00  0.00     0.000 A 
ATOM     16  C   UNL d   1      30.806  16.767 -24.342  0.00  0.00     0.000 A 
ATOM     17  C   UNL d   1      31.563  16.920 -24.043  0.00  0.00     0.000 A 
BRANCH  15  18
ATOM     18  C   UNL d   1      29.661  17.195 -25.096  0.00  0.00     0.000 C 
ATOM     19  C   UNL d   1      29.003  17.552 -24.757  0.00  0.00     0.000 C 
ENDBRANCH  15  18
ENDBRANCH  11  12
ENDBRANCH   1  11
BRANCH   8  20
ATOM     20  O   UNL d   1      33.229  21.595 -21.928  0.00  0.00    -0.259 OA
BRANCH  20  21
ATOM     21  C   UNL d   1      32.553  22.061 -21.798  0.00  0.00     0.378 C 
ATOM     22  N   UNL d   1      32.524  22.580 -21.164  0.00  0.00    -0.247 N 
ATOM     23  C   UNL d   1      33.175  22.644 -20.644  0.00  0.00     0.112 A 
ATOM     24  C   UNL d   1      31.862  23.042 -21.029  0.00  0.00     0.112 A 
ATOM     25  C   UNL d   1      33.153  23.164 -20.004  0.00  0.00     0.142 A 
ATOM     26  O   UNL d   1      32.470  23.629 -19.880  0.00  0.00    -0.300 OA
ATOM     27  C   UNL d   1      31.829  23.567 -20.391  0.00  0.00     0.142 A 
ATOM     28  O   UNL d   1      31.912  21.999 -22.309  0.00  0.00    -0.237 OA
ENDBRANCH  20  21
ENDBRANCH   8  20
TORSDOF 5
ENDMDL
