MODEL 1
REMARK VINA RESULT:     129.1      0.000      0.000
REMARK  9 active torsions:
REMARK  status: ('A' for Active; 'I' for Inactive)
REMARK    1  A    between atoms: C_11  and  C_3 
REMARK    2  A    between atoms: C_12  and  N_6 
REMARK    3  A    between atoms: C_15  and  C_7 
REMARK    4  A    between atoms: O_24  and  C_11 
REMARK    5  A    between atoms: C_23  and  C_12 
REMARK    6  A    between atoms: O_26  and  C_14 
REMARK    7  A    between atoms: O_28  and  C_17 
REMARK    8  A    between atoms: C_22  and  C_23 
REMARK    9  A    between atoms: C_32  and  O_24 
ROOT
ATOM      1  C   UNL d   1     -55.067-101.634 -41.973  0.00  0.00     0.080 A 
ATOM      2  C   UNL d   1     -55.052-101.225 -41.252  0.00  0.00     0.267 A 
ATOM      3  C   UNL d   1     -55.203-101.606 -43.390  0.00  0.00     0.107 A 
ATOM      4  C   UNL d   1     -54.967-102.449 -41.997  0.00  0.00     0.108 A 
ATOM      5  C   UNL d   1     -55.103-102.420 -43.414  0.00  0.00     0.208 A 
ATOM      6  N   UNL d   1     -54.933-101.646 -40.551  0.00  0.00    -0.273 N 
ATOM      7  C   UNL d   1     -55.186-101.207 -42.664  0.00  0.00     0.017 A 
ATOM      8  O   UNL d   1     -54.984-102.847 -42.714  0.00  0.00    -0.288 OA
ATOM      9  C   UNL d   1     -54.848-102.868 -41.286  0.00  0.00     0.043 A 
ATOM     10  C   UNL d   1     -54.832-102.459 -40.566  0.00  0.00     0.069 A 
ATOM     11  O   UNL d   1     -55.152-100.406 -41.232  0.00  0.00    -0.267 OA
ATOM     12  N   UNL d   1     -55.120-102.820 -44.134  0.00  0.00    -0.121 N 
ATOM     13  C   UNL d   1     -54.714-102.880 -39.864  0.00  0.00     0.019 C 
ENDROOT
BRANCH   6  14
ATOM     14  C   UNL d   1     -54.917-101.235 -39.831  0.00  0.00     0.083 C 
BRANCH  14  15
ATOM     15  C   UNL d   1     -55.191-101.610 -39.148  0.00  0.00     0.019 C 
BRANCH  15  16
ATOM     16  C   UNL d   1     -55.071-101.232 -38.420  0.00  0.00     0.004 A 
ATOM     17  C   UNL d   1     -55.109-100.423 -38.377  0.00  0.00     0.026 A 
ATOM     18  C   UNL d   1     -54.990-100.049 -37.657  0.00  0.00     0.116 A 
ATOM     19  C   UNL d   1     -54.831-100.498 -36.973  0.00  0.00     0.116 A 
ATOM     20  C   UNL d   1     -54.796-101.317 -37.029  0.00  0.00     0.026 A 
ATOM     21  C   UNL d   1     -54.915-101.688 -37.750  0.00  0.00     0.002 A 
BRANCH  18  22
ATOM     22  O   UNL d   1     -55.026 -99.223 -37.600  0.00  0.00    -0.326 OA
ATOM     23  C   UNL d   1     -55.708 -98.870 -37.319  0.00  0.00     0.181 C 
ENDBRANCH  18  22
BRANCH  19  24
ATOM     24  O   UNL d   1     -54.711-100.129 -36.246  0.00  0.00    -0.326 OA
ATOM     25  C   UNL d   1     -55.329-100.060 -35.710  0.00  0.00     0.181 C 
ENDBRANCH  19  24
ENDBRANCH  15  16
ENDBRANCH  14  15
ENDBRANCH   6  14
BRANCH   7  26
ATOM     26  C   UNL d   1     -55.286-100.390 -42.643  0.00  0.00     0.020 A 
ATOM     27  C   UNL d   1     -55.950-100.068 -42.289  0.00  0.00     0.099 A 
ATOM     28  N   UNL d   1     -56.054 -99.259 -42.266  0.00  0.00    -0.242 NA
ATOM     29  C   UNL d   1     -55.481 -98.758 -42.604  0.00  0.00     0.099 A 
ATOM     30  C   UNL d   1     -54.810 -99.088 -42.960  0.00  0.00     0.021 A 
ATOM     31  C   UNL d   1     -54.712 -99.903 -42.981  0.00  0.00     0.003 A 
ENDBRANCH   7  26
BRANCH   3  32
ATOM     32  C   UNL d   1     -55.322-101.180 -44.090  0.00  0.00     0.304 C 
ATOM     33  O   UNL d   1     -55.841-100.543 -44.104  0.00  0.00    -0.259 OA
BRANCH  32  34
ATOM     34  O   UNL d   1     -54.917-101.399 -44.770  0.00  0.00    -0.271 OA
BRANCH  34  35
ATOM     35  C   UNL d   1     -54.711-100.846 -45.351  0.00  0.00     0.126 C 
ATOM     36  C   UNL d   1     -55.252-100.658 -45.939  0.00  0.00     0.029 C 
ENDBRANCH  34  35
ENDBRANCH  32  34
ENDBRANCH   3  32
TORSDOF 9
ENDMDL
