MODEL 1
REMARK VINA RESULT:      -8.9      0.000      0.000
REMARK  4 active torsions:
REMARK  status: ('A' for Active; 'I' for Inactive)
REMARK    1  A    between atoms: C_12  and  N_1 
REMARK    2  A    between atoms: N_2  and  C_11 
REMARK    3  A    between atoms: C_11  and  C_15 
REMARK    4  A    between atoms: C_15  and  C_12 
ROOT
ATOM      1  N   UNL d   1      52.650  32.983  53.197  0.00  0.00    -0.303 N 
ATOM      2  C   UNL d   1      52.790  32.160  53.114  0.00  0.00     0.064 A 
ATOM      3  C   UNL d   1      53.407  31.956  53.647  0.00  0.00     0.018 A 
ATOM      4  C   UNL d   1      53.638  32.648  54.047  0.00  0.00     0.018 A 
ATOM      5  C   UNL d   1      53.175  33.276  53.772  0.00  0.00     0.064 A 
ATOM      6  C   UNL d   1      53.286  34.034  54.076  0.00  0.00     0.018 A 
ATOM      7  C   UNL d   1      54.211  32.779  54.626  0.00  0.00     0.002 A 
ATOM      8  C   UNL d   1      53.859  34.166  54.654  0.00  0.00     0.002 A 
ATOM      9  C   UNL d   1      54.322  33.538  54.930  0.00  0.00     0.000 A 
ATOM     10  C   UNL d   1      52.394  31.645  52.603  0.00  0.00     0.019 C 
ATOM     11  C   UNL d   1      53.723  31.206  53.752  0.00  0.00     0.002 C 
ATOM     12  C   UNL d   1      54.895  33.669  55.508  0.00  0.00     0.000 C 
ENDROOT
BRANCH   1  13
ATOM     13  C   UNL d   1      52.086  33.416  52.773  0.00  0.00     0.124 C 
BRANCH  13  14
ATOM     14  C   UNL d   1      51.314  33.474  53.068  0.00  0.00     0.232 C 
ATOM     15  O   UNL d   1      50.911  32.795  53.316  0.00  0.00    -0.283 OA
BRANCH  14  16
ATOM     16  C   UNL d   1      50.949  34.208  53.113  0.00  0.00     0.144 C 
BRANCH  16  17
ATOM     17  N   UNL d   1      50.305  34.385  52.623  0.00  0.00    -0.225 N 
ATOM     18  N   UNL d   1      50.207  34.134  51.844  0.00  0.00    -0.165 NA
ATOM     19  C   UNL d   1      49.488  34.436  51.562  0.00  0.00     0.109 A 
ATOM     20  C   UNL d   1      49.177  34.318  50.809  0.00  0.00     0.023 C 
ATOM     21  C   UNL d   1      49.145  34.877  52.174  0.00  0.00     0.072 A 
ATOM     22  C   UNL d   1      49.644  34.847  52.828  0.00  0.00     0.091 A 
ATOM     23 BR   UNL d   1      48.424  35.277  52.136  0.00  0.00    -0.046 Br
ATOM     24  C   UNL d   1      49.515  35.210  53.557  0.00  0.00     0.021 C 
ENDBRANCH  16  17
ENDBRANCH  14  16
ENDBRANCH  13  14
ENDBRANCH   1  13
TORSDOF 4
ENDMDL
MODEL 2
REMARK VINA RESULT:      -8.8      0.474      1.744
REMARK  4 active torsions:
REMARK  status: ('A' for Active; 'I' for Inactive)
REMARK    1  A    between atoms: C_12  and  N_1 
REMARK    2  A    between atoms: N_2  and  C_11 
REMARK    3  A    between atoms: C_11  and  C_15 
REMARK    4  A    between atoms: C_15  and  C_12 
ROOT
ATOM      1  N   UNL d   1      52.448  33.198  53.245  0.00  0.00    -0.303 N 
ATOM      2  C   UNL d   1      52.899  33.593  53.833  0.00  0.00     0.064 A 
ATOM      3  C   UNL d   1      53.414  33.026  54.177  0.00  0.00     0.018 A 
ATOM      4  C   UNL d   1      53.276  32.296  53.803  0.00  0.00     0.018 A 
ATOM      5  C   UNL d   1      52.685  32.402  53.233  0.00  0.00     0.064 A 
ATOM      6  C   UNL d   1      52.436  31.764  52.774  0.00  0.00     0.018 A 
ATOM      7  C   UNL d   1      53.616  31.552  53.912  0.00  0.00     0.002 A 
ATOM      8  C   UNL d   1      52.776  31.020  52.884  0.00  0.00     0.002 A 
ATOM      9  C   UNL d   1      53.366  30.914  53.453  0.00  0.00     0.000 A 
ATOM     10  C   UNL d   1      52.847  34.393  54.035  0.00  0.00     0.019 C 
ATOM     11  C   UNL d   1      53.955  33.169  54.776  0.00  0.00     0.002 C 
ATOM     12  C   UNL d   1      53.706  30.171  53.563  0.00  0.00     0.000 C 
ENDROOT
BRANCH   1  13
ATOM     13  C   UNL d   1      51.871  33.553  52.769  0.00  0.00     0.124 C 
BRANCH  13  14
ATOM     14  C   UNL d   1      51.109  33.669  53.072  0.00  0.00     0.232 C 
ATOM     15  O   UNL d   1      50.707  33.044  53.436  0.00  0.00    -0.283 OA
BRANCH  14  16
ATOM     16  C   UNL d   1      50.753  34.407  53.012  0.00  0.00     0.144 C 
BRANCH  16  17
ATOM     17  N   UNL d   1      50.108  34.519  52.504  0.00  0.00    -0.225 N 
ATOM     18  N   UNL d   1      50.040  34.224  51.737  0.00  0.00    -0.165 NA
ATOM     19  C   UNL d   1      49.309  34.466  51.430  0.00  0.00     0.109 A 
ATOM     20  C   UNL d   1      49.019  34.292  50.680  0.00  0.00     0.023 C 
ATOM     21  C   UNL d   1      48.928  34.913  52.015  0.00  0.00     0.072 A 
ATOM     22  C   UNL d   1      49.416  34.947  52.676  0.00  0.00     0.091 A 
ATOM     23 BR   UNL d   1      48.184  35.264  51.947  0.00  0.00    -0.046 Br
ATOM     24  C   UNL d   1      49.252  35.336  53.385  0.00  0.00     0.021 C 
ENDBRANCH  16  17
ENDBRANCH  14  16
ENDBRANCH  13  14
ENDBRANCH   1  13
TORSDOF 4
ENDMDL
MODEL 3
REMARK VINA RESULT:      -7.4      2.244      4.628
REMARK  4 active torsions:
REMARK  status: ('A' for Active; 'I' for Inactive)
REMARK    1  A    between atoms: C_12  and  N_1 
REMARK    2  A    between atoms: N_2  and  C_11 
REMARK    3  A    between atoms: C_11  and  C_15 
REMARK    4  A    between atoms: C_15  and  C_12 
ROOT
ATOM      1  N   UNL d   1      52.860  33.329  54.105  0.00  0.00    -0.303 N 
ATOM      2  C   UNL d   1      53.318  34.016  54.254  0.00  0.00     0.064 A 
ATOM      3  C   UNL d   1      52.902  34.670  53.929  0.00  0.00     0.018 A 
ATOM      4  C   UNL d   1      52.200  34.383  53.589  0.00  0.00     0.018 A 
ATOM      5  C   UNL d   1      52.174  33.563  53.696  0.00  0.00     0.064 A 
ATOM      6  C   UNL d   1      51.533  33.129  53.410  0.00  0.00     0.018 A 
ATOM      7  C   UNL d   1      51.586  34.767  53.196  0.00  0.00     0.002 A 
ATOM      8  C   UNL d   1      50.919  33.514  53.017  0.00  0.00     0.002 A 
ATOM      9  C   UNL d   1      50.945  34.334  52.910  0.00  0.00     0.000 A 
ATOM     10  C   UNL d   1      54.045  34.045  54.646  0.00  0.00     0.019 C 
ATOM     11  C   UNL d   1      53.148  35.453  53.947  0.00  0.00     0.002 C 
ATOM     12  C   UNL d   1      50.330  34.718  52.517  0.00  0.00     0.000 C 
ENDROOT
BRANCH   1  13
ATOM     13  C   UNL d   1      53.066  32.560  54.332  0.00  0.00     0.124 C 
BRANCH  13  14
ATOM     14  C   UNL d   1      53.613  32.136  53.878  0.00  0.00     0.232 C 
ATOM     15  O   UNL d   1      54.421  32.311  53.929  0.00  0.00    -0.283 OA
BRANCH  14  16
ATOM     16  C   UNL d   1      53.352  31.540  53.376  0.00  0.00     0.144 C 
BRANCH  16  17
ATOM     17  N   UNL d   1      53.310  30.757  53.644  0.00  0.00    -0.225 N 
ATOM     18  N   UNL d   1      53.505  30.494  54.400  0.00  0.00    -0.165 NA
ATOM     19  C   UNL d   1      53.382  29.675  54.429  0.00  0.00     0.109 A 
ATOM     20  C   UNL d   1      53.509  29.190  55.083  0.00  0.00     0.023 C 
ATOM     21  C   UNL d   1      53.110  29.436  53.684  0.00  0.00     0.072 A 
ATOM     22  C   UNL d   1      53.064  30.099  53.199  0.00  0.00     0.091 A 
ATOM     23 BR   UNL d   1      52.917  28.664  53.465  0.00  0.00    -0.046 Br
ATOM     24  C   UNL d   1      52.819  30.111  52.411  0.00  0.00     0.021 C 
ENDBRANCH  16  17
ENDBRANCH  14  16
ENDBRANCH  13  14
ENDBRANCH   1  13
TORSDOF 4
ENDMDL
MODEL 4
REMARK VINA RESULT:      -6.6      1.666      4.847
REMARK  4 active torsions:
REMARK  status: ('A' for Active; 'I' for Inactive)
REMARK    1  A    between atoms: C_12  and  N_1 
REMARK    2  A    between atoms: N_2  and  C_11 
REMARK    3  A    between atoms: C_11  and  C_15 
REMARK    4  A    between atoms: C_15  and  C_12 
ROOT
ATOM      1  N   UNL d   1      49.684  34.459  52.408  0.00  0.00    -0.303 N 
ATOM      2  C   UNL d   1      49.450  34.335  51.612  0.00  0.00     0.064 A 
ATOM      3  C   UNL d   1      48.791  34.834  51.463  0.00  0.00     0.018 A 
ATOM      4  C   UNL d   1      48.627  35.255  52.161  0.00  0.00     0.018 A 
ATOM      5  C   UNL d   1      49.173  35.025  52.739  0.00  0.00     0.064 A 
ATOM      6  C   UNL d   1      49.140  35.358  53.493  0.00  0.00     0.018 A 
ATOM      7  C   UNL d   1      48.049  35.816  52.339  0.00  0.00     0.002 A 
ATOM      8  C   UNL d   1      48.562  35.919  53.671  0.00  0.00     0.002 A 
ATOM      9  C   UNL d   1      48.016  36.148  53.093  0.00  0.00     0.000 A 
ATOM     10  C   UNL d   1      49.804  33.818  51.072  0.00  0.00     0.019 C 
ATOM     11  C   UNL d   1      48.383  34.893  50.754  0.00  0.00     0.002 C 
ATOM     12  C   UNL d   1      47.438  36.709  53.271  0.00  0.00     0.000 C 
ENDROOT
BRANCH   1  13
ATOM     13  C   UNL d   1      50.314  34.077  52.785  0.00  0.00     0.124 C 
BRANCH  13  14
ATOM     14  C   UNL d   1      51.087  34.342  52.653  0.00  0.00     0.232 C 
ATOM     15  O   UNL d   1      51.361  34.459  51.881  0.00  0.00    -0.283 OA
BRANCH  14  16
ATOM     16  C   UNL d   1      51.582  34.491  53.292  0.00  0.00     0.144 C 
BRANCH  16  17
ATOM     17  N   UNL d   1      52.209  33.977  53.463  0.00  0.00    -0.225 N 
ATOM     18  N   UNL d   1      52.316  33.224  53.145  0.00  0.00    -0.165 NA
ATOM     19  C   UNL d   1      53.011  32.905  53.465  0.00  0.00     0.109 A 
ATOM     20  C   UNL d   1      53.324  32.162  53.297  0.00  0.00     0.023 C 
ATOM     21  C   UNL d   1      53.330  33.468  53.983  0.00  0.00     0.072 A 
ATOM     22  C   UNL d   1      52.839  34.128  53.984  0.00  0.00     0.091 A 
ATOM     23 BR   UNL d   1      54.023  33.382  54.424  0.00  0.00    -0.046 Br
ATOM     24  C   UNL d   1      52.950  34.819  54.422  0.00  0.00     0.021 C 
ENDBRANCH  16  17
ENDBRANCH  14  16
ENDBRANCH  13  14
ENDBRANCH   1  13
TORSDOF 4
ENDMDL
MODEL 5
REMARK VINA RESULT:      -6.4      2.236      4.205
REMARK  4 active torsions:
REMARK  status: ('A' for Active; 'I' for Inactive)
REMARK    1  A    between atoms: C_12  and  N_1 
REMARK    2  A    between atoms: N_2  and  C_11 
REMARK    3  A    between atoms: C_11  and  C_15 
REMARK    4  A    between atoms: C_15  and  C_12 
ROOT
ATOM      1  N   UNL d   1      52.027  33.228  53.502  0.00  0.00    -0.303 N 
ATOM      2  C   UNL d   1      51.391  33.529  53.045  0.00  0.00     0.064 A 
ATOM      3  C   UNL d   1      51.424  34.367  53.091  0.00  0.00     0.018 A 
ATOM      4  C   UNL d   1      52.072  34.571  53.570  0.00  0.00     0.018 A 
ATOM      5  C   UNL d   1      52.441  33.875  53.821  0.00  0.00     0.064 A 
ATOM      6  C   UNL d   1      53.106  33.912  54.308  0.00  0.00     0.018 A 
ATOM      7  C   UNL d   1      52.369  35.304  53.806  0.00  0.00     0.002 A 
ATOM      8  C   UNL d   1      53.402  34.645  54.544  0.00  0.00     0.002 A 
ATOM      9  C   UNL d   1      53.033  35.341  54.293  0.00  0.00     0.000 A 
ATOM     10  C   UNL d   1      50.835  33.083  52.627  0.00  0.00     0.019 C 
ATOM     11  C   UNL d   1      50.906  34.889  52.727  0.00  0.00     0.002 C 
ATOM     12  C   UNL d   1      53.330  36.074  54.528  0.00  0.00     0.000 C 
ENDROOT
BRANCH   1  13
ATOM     13  C   UNL d   1      52.201  32.425  53.608  0.00  0.00     0.124 C 
BRANCH  13  14
ATOM     14  C   UNL d   1      52.747  32.059  53.106  0.00  0.00     0.232 C 
ATOM     15  O   UNL d   1      52.707  32.179  52.288  0.00  0.00    -0.283 OA
BRANCH  14  16
ATOM     16  C   UNL d   1      53.331  31.575  53.422  0.00  0.00     0.144 C 
BRANCH  16  17
ATOM     17  N   UNL d   1      53.203  30.759  53.495  0.00  0.00    -0.225 N 
ATOM     18  N   UNL d   1      52.802  30.283  52.955  0.00  0.00    -0.165 NA
ATOM     19  C   UNL d   1      52.803  29.506  53.244  0.00  0.00     0.109 A 
ATOM     20  C   UNL d   1      52.462  28.853  52.876  0.00  0.00     0.023 C 
ATOM     21  C   UNL d   1      53.208  29.508  53.968  0.00  0.00     0.072 A 
ATOM     22  C   UNL d   1      53.455  30.277  54.124  0.00  0.00     0.091 A 
ATOM     23 BR   UNL d   1      53.340  28.852  54.449  0.00  0.00    -0.046 Br
ATOM     24  C   UNL d   1      53.877  30.528  54.787  0.00  0.00     0.021 C 
ENDBRANCH  16  17
ENDBRANCH  14  16
ENDBRANCH  13  14
ENDBRANCH   1  13
TORSDOF 4
ENDMDL
