MODEL 1
REMARK VINA RESULT:      72.9      0.000      0.000
REMARK  4 active torsions:
REMARK  status: ('A' for Active; 'I' for Inactive)
REMARK    1  A    between atoms: C_8  and  C_1 
REMARK    2  A    between atoms: C_6  and  C_2 
REMARK    3  A    between atoms: O_17  and  C_8 
REMARK    4  A    between atoms: C_20  and  O_17 
ROOT
ATOM      1  C   UNL d   1      59.658  49.135  51.548  0.00  0.00     0.099 A 
ATOM      2  C   UNL d   1      59.741  48.956  50.761  0.00  0.00     0.093 A 
ATOM      3  C   UNL d   1      58.976  49.512  51.818  0.00  0.00     0.093 A 
ATOM      4  C   UNL d   1      58.476  49.518  50.486  0.00  0.00     0.369 A 
ATOM      5  N   UNL d   1      58.388  49.702  51.286  0.00  0.00    -0.191 NA
ATOM      6  N   UNL d   1      59.148  49.149  50.232  0.00  0.00    -0.191 NA
ATOM      7  O   UNL d   1      57.880  49.707  49.931  0.00  0.00    -0.242 OA
ATOM      8  C   UNL d   1      58.883  49.700  52.630  0.00  0.00     0.021 C 
ENDROOT
BRANCH   2   9
ATOM      9  C   UNL d   1      60.580  48.484  50.384  0.00  0.00     0.029 A 
ATOM     10  C   UNL d   1      60.999  48.925  49.843  0.00  0.00     0.060 A 
ATOM     11  C   UNL d   1      61.691  48.531  49.535  0.00  0.00     0.023 A 
ATOM     12 CL   UNL d   1      60.822  49.646  49.599  0.00  0.00    -0.082 Cl
ATOM     13  C   UNL d   1      61.872  47.757  49.804  0.00  0.00     0.059 A 
ATOM     14  C   UNL d   1      61.405  47.385  50.344  0.00  0.00     0.011 A 
ATOM     15 CL   UNL d   1      62.546  47.361  49.510  0.00  0.00    -0.082 Cl
ATOM     16  C   UNL d   1      60.728  47.757  50.653  0.00  0.00     0.003 A 
ENDBRANCH   2   9
BRANCH   1  17
ATOM     17  C   UNL d   1      60.267  48.933  52.067  0.00  0.00     0.303 C 
ATOM     18  O   UNL d   1      60.398  48.162  52.300  0.00  0.00    -0.259 OA
BRANCH  17  19
ATOM     19  O   UNL d   1      60.781  49.538  52.378  0.00  0.00    -0.271 OA
BRANCH  19  20
ATOM     20  C   UNL d   1      61.431  49.301  52.868  0.00  0.00     0.126 C 
ATOM     21  C   UNL d   1      61.590  49.708  53.567  0.00  0.00     0.029 C 
ENDBRANCH  19  20
ENDBRANCH  17  19
ENDBRANCH   1  17
TORSDOF 4
ENDMDL
MODEL 2
REMARK VINA RESULT:      73.9      1.276      2.442
REMARK  4 active torsions:
REMARK  status: ('A' for Active; 'I' for Inactive)
REMARK    1  A    between atoms: C_8  and  C_1 
REMARK    2  A    between atoms: C_6  and  C_2 
REMARK    3  A    between atoms: O_17  and  C_8 
REMARK    4  A    between atoms: C_20  and  O_17 
ROOT
ATOM      1  C   UNL d   1      60.002  48.752  51.487  0.00  0.00     0.099 A 
ATOM      2  C   UNL d   1      60.753  48.447  51.437  0.00  0.00     0.093 A 
ATOM      3  C   UNL d   1      59.845  49.387  51.989  0.00  0.00     0.093 A 
ATOM      4  C   UNL d   1      61.213  49.390  52.380  0.00  0.00     0.369 A 
ATOM      5  N   UNL d   1      60.451  49.703  52.433  0.00  0.00    -0.191 NA
ATOM      6  N   UNL d   1      61.356  48.768  51.885  0.00  0.00    -0.191 NA
ATOM      7  O   UNL d   1      61.843  49.706  52.831  0.00  0.00    -0.242 OA
ATOM      8  C   UNL d   1      59.072  49.708  52.046  0.00  0.00     0.021 C 
ENDROOT
BRANCH   2   9
ATOM      9  C   UNL d   1      60.989  47.652  50.820  0.00  0.00     0.029 A 
ATOM     10  C   UNL d   1      61.467  47.845  50.190  0.00  0.00     0.060 A 
ATOM     11  C   UNL d   1      61.659  47.185  49.684  0.00  0.00     0.023 A 
ATOM     12 CL   UNL d   1      61.747  48.556  50.025  0.00  0.00    -0.082 Cl
ATOM     13  C   UNL d   1      61.354  46.427  49.870  0.00  0.00     0.059 A 
ATOM     14  C   UNL d   1      60.885  46.314  50.516  0.00  0.00     0.011 A 
ATOM     15 CL   UNL d   1      61.535  45.774  49.383  0.00  0.00    -0.082 Cl
ATOM     16  C   UNL d   1      60.689  46.949  51.017  0.00  0.00     0.003 A 
ENDBRANCH   2   9
BRANCH   1  17
ATOM     17  C   UNL d   1      59.406  48.414  51.027  0.00  0.00     0.303 C 
ATOM     18  O   UNL d   1      59.264  47.611  51.024  0.00  0.00    -0.259 OA
BRANCH  17  19
ATOM     19  O   UNL d   1      58.914  48.908  50.536  0.00  0.00    -0.271 OA
BRANCH  19  20
ATOM     20  C   UNL d   1      58.078  48.773  50.537  0.00  0.00     0.126 C 
ATOM     21  C   UNL d   1      57.613  49.056  49.917  0.00  0.00     0.029 C 
ENDBRANCH  19  20
ENDBRANCH  17  19
ENDBRANCH   1  17
TORSDOF 4
ENDMDL
