MODEL 1
REMARK VINA RESULT:      -5.4      0.000      0.000
REMARK  2 active torsions:
REMARK  status: ('A' for Active; 'I' for Inactive)
REMARK    1  A    between atoms: N_6  and  C_4 
REMARK    2  A    between atoms: C_9  and  N_6 
ROOT
ATOM      1  S   UNL d   1     -42.269-122.008 -54.705  0.00  0.00     0.216 S 
ATOM      2  C   UNL d   1     -41.993-122.012 -53.926  0.00  0.00     0.121 A 
ATOM      3  C   UNL d   1     -41.977-122.672 -55.066  0.00  0.00     0.142 A 
ATOM      4  C   UNL d   1     -41.529-122.683 -53.805  0.00  0.00     0.132 A 
ATOM      5  C   UNL d   1     -41.523-123.089 -54.517  0.00  0.00     0.225 A 
ATOM      6  O   UNL d   1     -42.562-121.327 -54.321  0.00  0.00    -0.217 OA
ATOM      7  O   UNL d   1     -42.635-121.819 -55.412  0.00  0.00    -0.217 OA
ATOM      8  O   UNL d   1     -41.126-123.812 -54.682  0.00  0.00    -0.284 OA
ENDROOT
BRANCH   4   9
ATOM      9  N   UNL d   1     -41.123-122.978 -53.174  0.00  0.00    -0.242 NA
BRANCH   9  10
ATOM     10  C   UNL d   1     -41.357-122.830 -52.404  0.00  0.00     0.082 A 
ATOM     11  C   UNL d   1     -41.798-123.378 -52.012  0.00  0.00     0.020 A 
ATOM     12  C   UNL d   1     -42.037-123.221 -51.218  0.00  0.00     0.013 A 
ATOM     13  C   UNL d   1     -41.820-122.520 -50.860  0.00  0.00     0.058 A 
ATOM     14  C   UNL d   1     -41.373-121.958 -51.248  0.00  0.00     0.013 A 
ATOM     15 CL   UNL d   1     -42.065-122.374 -50.067  0.00  0.00    -0.082 Cl
ATOM     16  C   UNL d   1     -41.140-122.118 -52.030  0.00  0.00     0.020 A 
ENDBRANCH   9  10
ENDBRANCH   4   9
TORSDOF 2
ENDMDL
MODEL 2
REMARK VINA RESULT:      -5.1      2.398      3.552
REMARK  2 active torsions:
REMARK  status: ('A' for Active; 'I' for Inactive)
REMARK    1  A    between atoms: N_6  and  C_4 
REMARK    2  A    between atoms: C_9  and  N_6 
ROOT
ATOM      1  S   UNL d   1     -41.867-123.024 -51.080  0.00  0.00     0.216 S 
ATOM      2  C   UNL d   1     -41.675-123.005 -51.884  0.00  0.00     0.121 A 
ATOM      3  C   UNL d   1     -41.701-122.291 -50.776  0.00  0.00     0.142 A 
ATOM      4  C   UNL d   1     -41.389-122.256 -52.078  0.00  0.00     0.132 A 
ATOM      5  C   UNL d   1     -41.408-121.817 -51.385  0.00  0.00     0.225 A 
ATOM      6  O   UNL d   1     -42.033-123.774 -51.405  0.00  0.00    -0.217 OA
ATOM      7  O   UNL d   1     -42.112-123.247 -50.331  0.00  0.00    -0.217 OA
ATOM      8  O   UNL d   1     -41.173-121.015 -51.290  0.00  0.00    -0.284 OA
ENDROOT
BRANCH   4   9
ATOM      9  N   UNL d   1     -41.123-121.916 -52.759  0.00  0.00    -0.242 NA
BRANCH   9  10
ATOM     10  C   UNL d   1     -41.503-122.029 -53.474  0.00  0.00     0.082 A 
ATOM     11  C   UNL d   1     -42.165-121.601 -53.643  0.00  0.00     0.020 A 
ATOM     12  C   UNL d   1     -42.554-121.721 -54.382  0.00  0.00     0.013 A 
ATOM     13  C   UNL d   1     -42.258-122.266 -54.912  0.00  0.00     0.058 A 
ATOM     14  C   UNL d   1     -41.589-122.706 -54.751  0.00  0.00     0.013 A 
ATOM     15 CL   UNL d   1     -42.655-122.378 -55.647  0.00  0.00    -0.082 Cl
ATOM     16  C   UNL d   1     -41.209-122.583 -54.021  0.00  0.00     0.020 A 
ENDBRANCH   9  10
ENDBRANCH   4   9
TORSDOF 2
ENDMDL
MODEL 3
REMARK VINA RESULT:      -4.6      3.075      4.001
REMARK  2 active torsions:
REMARK  status: ('A' for Active; 'I' for Inactive)
REMARK    1  A    between atoms: N_6  and  C_4 
REMARK    2  A    between atoms: C_9  and  N_6 
ROOT
ATOM      1  S   UNL d   1     -43.023-123.030 -49.487  0.00  0.00     0.216 S 
ATOM      2  C   UNL d   1     -42.568-122.880 -50.160  0.00  0.00     0.121 A 
ATOM      3  C   UNL d   1     -42.537-123.381 -48.942  0.00  0.00     0.142 A 
ATOM      4  C   UNL d   1     -41.796-123.141 -50.030  0.00  0.00     0.132 A 
ATOM      5  C   UNL d   1     -41.783-123.451 -49.271  0.00  0.00     0.225 A 
ATOM      6  O   UNL d   1     -43.513-122.668 -50.057  0.00  0.00    -0.217 OA
ATOM      7  O   UNL d   1     -43.630-123.088 -48.940  0.00  0.00    -0.217 OA
ATOM      8  O   UNL d   1     -41.123-123.789 -48.875  0.00  0.00    -0.284 OA
ENDROOT
BRANCH   4   9
ATOM      9  N   UNL d   1     -41.123-123.143 -50.474  0.00  0.00    -0.242 NA
BRANCH   9  10
ATOM     10  C   UNL d   1     -41.138-123.007 -51.280  0.00  0.00     0.082 A 
ATOM     11  C   UNL d   1     -41.158-123.634 -51.787  0.00  0.00     0.020 A 
ATOM     12  C   UNL d   1     -41.174-123.488 -52.618  0.00  0.00     0.013 A 
ATOM     13  C   UNL d   1     -41.169-122.721 -52.896  0.00  0.00     0.058 A 
ATOM     14  C   UNL d   1     -41.149-122.079 -52.392  0.00  0.00     0.013 A 
ATOM     15 CL   UNL d   1     -41.185-122.588 -53.728  0.00  0.00    -0.082 Cl
ATOM     16  C   UNL d   1     -41.133-122.228 -51.574  0.00  0.00     0.020 A 
ENDBRANCH   9  10
ENDBRANCH   4   9
TORSDOF 2
ENDMDL
