MODEL 1
REMARK VINA RESULT:      60.4      0.000      0.000
REMARK  7 active torsions:
REMARK  status: ('A' for Active; 'I' for Inactive)
REMARK    1  A    between atoms: C_4  and  C_1 
REMARK    2  A    between atoms: C_13  and  N_3 
REMARK    3  A    between atoms: C_15  and  N_5 
REMARK    4  A    between atoms: C_12  and  C_15 
REMARK    5  A    between atoms: C_18  and  C_13 
REMARK    6  A    between atoms: O_16  and  C_18 
REMARK    7  A    between atoms: C_17  and  O_16 
ROOT
ATOM      1  C   UNL d   1     -54.928-101.508 -43.162  0.00  0.00     0.149 A 
ATOM      2  N   UNL d   1     -54.806-102.087 -43.739  0.00  0.00    -0.227 NA
ATOM      3  N   UNL d   1     -55.011-100.777 -43.544  0.00  0.00    -0.287 N 
ATOM      4  C   UNL d   1     -54.939-100.907 -44.366  0.00  0.00     0.083 A 
ATOM      5  C   UNL d   1     -54.813-101.716 -44.479  0.00  0.00     0.099 A 
ATOM      6  C   UNL d   1     -54.971-100.399 -45.015  0.00  0.00     0.019 A 
ATOM      7  C   UNL d   1     -54.719-102.017 -45.241  0.00  0.00     0.021 A 
ATOM      8  C   UNL d   1     -54.877-100.700 -45.778  0.00  0.00     0.002 A 
ATOM      9  C   UNL d   1     -54.753-101.502 -45.889  0.00  0.00     0.002 A 
ENDROOT
BRANCH   1  10
ATOM     10  C   UNL d   1     -54.964-101.628 -42.344  0.00  0.00     0.057 A 
ATOM     11  C   UNL d   1     -55.220-102.312 -41.961  0.00  0.00     0.086 A 
ATOM     12  N   UNL d   1     -55.160-102.182 -41.146  0.00  0.00    -0.272 N 
ATOM     13  C   UNL d   1     -54.868-101.417 -41.030  0.00  0.00     0.265 A 
ATOM     14  C   UNL d   1     -54.748-101.080 -41.773  0.00  0.00     0.066 A 
ATOM     15  O   UNL d   1     -54.723-101.063 -40.300  0.00  0.00    -0.267 OA
BRANCH  12  16
ATOM     16  C   UNL d   1     -55.361-102.729 -40.559  0.00  0.00     0.083 C 
BRANCH  16  17
ATOM     17  C   UNL d   1     -55.447-102.495 -39.771  0.00  0.00     0.019 C 
ATOM     18  C   UNL d   1     -54.878-102.706 -39.210  0.00  0.00     0.002 C 
ENDBRANCH  16  17
ENDBRANCH  12  16
ENDBRANCH   1  10
BRANCH   3  19
ATOM     19  C   UNL d   1     -55.137-100.138 -43.038  0.00  0.00     0.108 C 
BRANCH  19  20
ATOM     20  C   UNL d   1     -55.247 -99.383 -43.346  0.00  0.00     0.142 C 
BRANCH  20  21
ATOM     21  O   UNL d   1     -55.697 -99.274 -44.023  0.00  0.00    -0.304 OA
BRANCH  21  22
ATOM     22  C   UNL d   1     -56.499 -99.103 -43.964  0.00  0.00     0.100 A 
ATOM     23  C   UNL d   1     -56.964 -99.111 -44.632  0.00  0.00     0.025 A 
ATOM     24  C   UNL d   1     -57.765 -98.940 -44.571  0.00  0.00     0.002 A 
ATOM     25  C   UNL d   1     -58.092 -98.763 -43.842  0.00  0.00     0.000 A 
ATOM     26  C   UNL d   1     -57.609 -98.758 -43.171  0.00  0.00     0.002 A 
ATOM     27  C   UNL d   1     -56.817 -98.927 -43.231  0.00  0.00     0.025 A 
ENDBRANCH  21  22
ENDBRANCH  20  21
ENDBRANCH  19  20
ENDBRANCH   3  19
TORSDOF 7
ENDMDL
