MODEL 1
REMARK VINA RESULT:      32.7      0.000      0.000
REMARK  4 active torsions:
REMARK  status: ('A' for Active; 'I' for Inactive)
REMARK    1  A    between atoms: C_11  and  N_2 
REMARK    2  A    between atoms: C_9  and  C_3 
REMARK    3  A    between atoms: C_12  and  C_11 
REMARK    4  A    between atoms: O_19  and  C_16 
ROOT
ATOM      1  N   UNL d   1      45.909 -16.773  44.928  0.00  0.00    -0.206 NA
ATOM      2  N   UNL d   1      46.109 -16.633  43.618  0.00  0.00    -0.273 N 
ATOM      3  C   UNL d   1      45.935 -16.224  44.314  0.00  0.00     0.151 A 
ATOM      4  C   UNL d   1      46.190 -17.429  43.801  0.00  0.00     0.185 A 
ATOM      5  C   UNL d   1      46.066 -17.521  44.615  0.00  0.00     0.199 A 
ATOM      6  N   UNL d   1      46.363 -18.103  43.334  0.00  0.00    -0.224 NA
ATOM      7  N   UNL d   1      46.113 -18.261  44.954  0.00  0.00    -0.223 NA
ATOM      8  C   UNL d   1      46.408 -18.847  43.689  0.00  0.00     0.101 A 
ATOM      9  C   UNL d   1      46.283 -18.924  44.501  0.00  0.00     0.101 A 
ATOM     10  C   UNL d   1      46.579 -19.510  43.227  0.00  0.00     0.021 A 
ATOM     11  C   UNL d   1      46.329 -19.667  44.847  0.00  0.00     0.021 A 
ATOM     12  C   UNL d   1      46.497 -20.329  44.397  0.00  0.00     0.002 A 
ATOM     13  C   UNL d   1      46.623 -20.253  43.582  0.00  0.00     0.002 A 
ENDROOT
BRANCH   3  14
ATOM     14  C   UNL d   1      45.811 -15.418  44.376  0.00  0.00     0.035 A 
ATOM     15  C   UNL d   1      46.430 -14.902  44.313  0.00  0.00     0.005 A 
ATOM     16  C   UNL d   1      46.293 -14.118  44.376  0.00  0.00     0.024 A 
ATOM     17  C   UNL d   1      45.525 -13.834  44.504  0.00  0.00     0.094 A 
ATOM     18  C   UNL d   1      44.914 -14.340  44.566  0.00  0.00     0.024 A 
ATOM     19  C   UNL d   1      45.043 -15.133  44.504  0.00  0.00     0.005 A 
BRANCH  17  20
ATOM     20  O   UNL d   1      45.420 -13.048  44.562  0.00  0.00    -0.328 OA
ATOM     21  C   UNL d   1      45.221 -12.473  43.747  0.00  0.00     0.181 C 
ENDBRANCH  17  20
ENDBRANCH   3  14
BRANCH   2  22
ATOM     22  C   UNL d   1      46.188 -16.298  42.864  0.00  0.00     0.083 C 
BRANCH  22  23
ATOM     23  C   UNL d   1      45.983 -16.730  42.196  0.00  0.00     0.019 C 
ATOM     24  C   UNL d   1      46.534 -16.854  41.594  0.00  0.00     0.002 C 
ENDBRANCH  22  23
ENDBRANCH   2  22
TORSDOF 4
ENDMDL
