MODEL 1
REMARK VINA RESULT:      -7.8      0.000      0.000
REMARK  7 active torsions:
REMARK  status: ('A' for Active; 'I' for Inactive)
REMARK    1  A    between atoms: N_4  and  C_1 
REMARK       I    between atoms: C_3  and  N_4 
REMARK    2  A    between atoms: C_8  and  C_3 
REMARK    3  A    between atoms: S_10  and  C_5 
REMARK    4  A    between atoms: C_9  and  C_15 
REMARK       I    between atoms: N_12  and  C_9 
REMARK    5  A    between atoms: C_15  and  S_10 
REMARK    6  A    between atoms: C_17  and  N_12 
REMARK    7  A    between atoms: O_18  and  C_13 
ROOT
ATOM      1  C   UNL d   1      51.507  34.099  52.976  0.00  0.00     0.219 A 
ATOM      2  S   UNL d   1      50.695  34.148  53.105  0.00  0.00    -0.019 SA
ATOM      3  C   UNL d   1      50.324  34.315  52.391  0.00  0.00     0.165 A 
ATOM      4  N   UNL d   1      51.640  34.238  52.170  0.00  0.00    -0.120 NA
ATOM      5  N   UNL d   1      50.909  34.371  51.808  0.00  0.00    -0.133 NA
ENDROOT
BRANCH   1   6
ATOM      6  N   UNL d   1      52.084  33.940  53.551  0.00  0.00    -0.181 NA
ATOM      7  C   UNL d   1      52.728  33.455  53.357  0.00  0.00     0.283 C 
ATOM      8  O   UNL d   1      52.794  33.137  52.602  0.00  0.00    -0.265 OA
BRANCH   7   9
ATOM      9  C   UNL d   1      53.305  33.294  53.928  0.00  0.00     0.080 A 
ATOM     10  C   UNL d   1      53.549  32.529  54.049  0.00  0.00     0.099 A 
ATOM     11  C   UNL d   1      54.127  32.362  54.621  0.00  0.00     0.024 A 
ATOM     12  C   UNL d   1      54.449  32.972  55.061  0.00  0.00     0.002 A 
ATOM     13  C   UNL d   1      54.196  33.754  54.934  0.00  0.00     0.000 A 
ATOM     14  C   UNL d   1      53.623  33.908  54.365  0.00  0.00     0.007 A 
BRANCH  10  15
ATOM     15  O   UNL d   1      53.227  31.905  53.607  0.00  0.00    -0.328 OA
ATOM     16  C   UNL d   1      53.493  31.136  53.707  0.00  0.00     0.181 C 
ENDBRANCH  10  15
ENDBRANCH   7   9
ENDBRANCH   1   6
BRANCH   3  17
ATOM     17  S   UNL d   1      49.511  34.409  52.279  0.00  0.00    -0.054 SA
BRANCH  17  18
ATOM     18  C   UNL d   1      49.161  35.149  52.431  0.00  0.00     0.100 C 
BRANCH  18  19
ATOM     19  C   UNL d   1      48.365  35.268  52.260  0.00  0.00     0.286 C 
ATOM     20  N   UNL d   1      47.953  35.890  52.619  0.00  0.00    -0.208 NA
ATOM     21  O   UNL d   1      47.966  34.769  51.730  0.00  0.00    -0.265 OA
BRANCH  20  22
ATOM     22  C   UNL d   1      47.163  36.017  52.457  0.00  0.00     0.085 A 
ATOM     23  C   UNL d   1      46.839  36.243  51.725  0.00  0.00     0.019 A 
ATOM     24  C   UNL d   1      46.025  36.308  51.815  0.00  0.00     0.002 A 
ATOM     25  C   UNL d   1      45.833  36.123  52.600  0.00  0.00     0.002 A 
ATOM     26  C   UNL d   1      46.541  35.944  52.993  0.00  0.00     0.019 A 
ENDBRANCH  20  22
ENDBRANCH  18  19
ENDBRANCH  17  18
ENDBRANCH   3  17
TORSDOF 7
ENDMDL
MODEL 2
REMARK VINA RESULT:      -7.0      0.968      6.403
REMARK  7 active torsions:
REMARK  status: ('A' for Active; 'I' for Inactive)
REMARK    1  A    between atoms: N_4  and  C_1 
REMARK       I    between atoms: C_3  and  N_4 
REMARK    2  A    between atoms: C_8  and  C_3 
REMARK    3  A    between atoms: S_10  and  C_5 
REMARK    4  A    between atoms: C_9  and  C_15 
REMARK       I    between atoms: N_12  and  C_9 
REMARK    5  A    between atoms: C_15  and  S_10 
REMARK    6  A    between atoms: C_17  and  N_12 
REMARK    7  A    between atoms: O_18  and  C_13 
ROOT
ATOM      1  C   UNL d   1      49.292  34.786  52.564  0.00  0.00     0.219 A 
ATOM      2  S   UNL d   1      50.040  34.821  52.909  0.00  0.00    -0.019 SA
ATOM      3  C   UNL d   1      50.564  34.385  52.451  0.00  0.00     0.165 A 
ATOM      4  N   UNL d   1      49.357  34.320  51.881  0.00  0.00    -0.120 NA
ATOM      5  N   UNL d   1      50.142  34.073  51.811  0.00  0.00    -0.133 NA
ENDROOT
BRANCH   1   6
ATOM      6  N   UNL d   1      48.604  35.150  52.850  0.00  0.00    -0.181 NA
ATOM      7  C   UNL d   1      48.142  35.604  52.333  0.00  0.00     0.283 C 
ATOM      8  O   UNL d   1      48.362  35.692  51.547  0.00  0.00    -0.265 OA
BRANCH   7   9
ATOM      9  C   UNL d   1      47.454  35.970  52.616  0.00  0.00     0.080 A 
ATOM     10  C   UNL d   1      46.776  35.953  52.169  0.00  0.00     0.099 A 
ATOM     11  C   UNL d   1      46.085  36.318  52.447  0.00  0.00     0.024 A 
ATOM     12  C   UNL d   1      46.091  36.694  53.174  0.00  0.00     0.002 A 
ATOM     13  C   UNL d   1      46.786  36.709  53.628  0.00  0.00     0.000 A 
ATOM     14  C   UNL d   1      47.466  36.345  53.342  0.00  0.00     0.007 A 
BRANCH  10  15
ATOM     15  O   UNL d   1      46.763  35.573  51.431  0.00  0.00    -0.328 OA
ATOM     16  C   UNL d   1      46.078  35.549  50.981  0.00  0.00     0.181 C 
ENDBRANCH  10  15
ENDBRANCH   7   9
ENDBRANCH   1   6
BRANCH   3  17
ATOM     17  S   UNL d   1      51.368  34.280  52.605  0.00  0.00    -0.054 SA
BRANCH  17  18
ATOM     18  C   UNL d   1      51.603  33.790  53.235  0.00  0.00     0.100 C 
BRANCH  18  19
ATOM     19  C   UNL d   1      52.391  33.772  53.469  0.00  0.00     0.286 C 
ATOM     20  N   UNL d   1      52.692  33.110  53.864  0.00  0.00    -0.208 NA
ATOM     21  O   UNL d   1      52.895  34.414  53.313  0.00  0.00    -0.265 OA
BRANCH  20  22
ATOM     22  C   UNL d   1      53.473  33.081  54.101  0.00  0.00     0.085 A 
ATOM     23  C   UNL d   1      54.112  32.780  53.661  0.00  0.00     0.019 A 
ATOM     24  C   UNL d   1      54.793  32.862  54.112  0.00  0.00     0.002 A 
ATOM     25  C   UNL d   1      54.589  33.215  54.834  0.00  0.00     0.002 A 
ATOM     26  C   UNL d   1      53.770  33.348  54.822  0.00  0.00     0.019 A 
ENDBRANCH  20  22
ENDBRANCH  18  19
ENDBRANCH  17  18
ENDBRANCH   3  17
TORSDOF 7
ENDMDL
MODEL 3
REMARK VINA RESULT:      -7.0      1.355      6.365
REMARK  7 active torsions:
REMARK  status: ('A' for Active; 'I' for Inactive)
REMARK    1  A    between atoms: N_4  and  C_1 
REMARK       I    between atoms: C_3  and  N_4 
REMARK    2  A    between atoms: C_8  and  C_3 
REMARK    3  A    between atoms: S_10  and  C_5 
REMARK    4  A    between atoms: C_9  and  C_15 
REMARK       I    between atoms: N_12  and  C_9 
REMARK    5  A    between atoms: C_15  and  S_10 
REMARK    6  A    between atoms: C_17  and  N_12 
REMARK    7  A    between atoms: O_18  and  C_13 
ROOT
ATOM      1  C   UNL d   1      49.571  34.917  52.798  0.00  0.00     0.219 A 
ATOM      2  S   UNL d   1      50.012  34.318  52.443  0.00  0.00    -0.019 SA
ATOM      3  C   UNL d   1      50.751  34.287  52.798  0.00  0.00     0.165 A 
ATOM      4  N   UNL d   1      50.047  35.261  53.383  0.00  0.00    -0.120 NA
ATOM      5  N   UNL d   1      50.775  34.873  53.383  0.00  0.00    -0.133 NA
ENDROOT
BRANCH   1   6
ATOM      6  N   UNL d   1      48.793  35.132  52.604  0.00  0.00    -0.181 NA
ATOM      7  C   UNL d   1      48.444  35.778  52.988  0.00  0.00     0.283 C 
ATOM      8  O   UNL d   1      48.863  36.200  53.555  0.00  0.00    -0.265 OA
BRANCH   7   9
ATOM      9  C   UNL d   1      47.668  35.996  52.796  0.00  0.00     0.080 A 
ATOM     10  C   UNL d   1      47.122  36.104  53.388  0.00  0.00     0.099 A 
ATOM     11  C   UNL d   1      46.344  36.322  53.201  0.00  0.00     0.024 A 
ATOM     12  C   UNL d   1      46.130  36.428  52.418  0.00  0.00     0.002 A 
ATOM     13  C   UNL d   1      46.692  36.316  51.816  0.00  0.00     0.000 A 
ATOM     14  C   UNL d   1      47.460  36.100  52.012  0.00  0.00     0.007 A 
BRANCH  10  15
ATOM     15  O   UNL d   1      47.332  35.998  54.184  0.00  0.00    -0.328 OA
ATOM     16  C   UNL d   1      46.777  36.088  54.781  0.00  0.00     0.181 C 
ENDBRANCH  10  15
ENDBRANCH   7   9
ENDBRANCH   1   6
BRANCH   3  17
ATOM     17  S   UNL d   1      51.360  33.764  52.604  0.00  0.00    -0.054 SA
BRANCH  17  18
ATOM     18  C   UNL d   1      51.766  33.367  53.211  0.00  0.00     0.100 C 
BRANCH  18  19
ATOM     19  C   UNL d   1      52.244  32.722  53.031  0.00  0.00     0.286 C 
ATOM     20  N   UNL d   1      52.358  32.121  53.589  0.00  0.00    -0.208 NA
ATOM     21  O   UNL d   1      52.617  32.664  52.291  0.00  0.00    -0.265 OA
BRANCH  20  22
ATOM     22  C   UNL d   1      52.829  31.476  53.420  0.00  0.00     0.085 A 
ATOM     23  C   UNL d   1      52.603  30.794  53.001  0.00  0.00     0.019 A 
ATOM     24  C   UNL d   1      53.251  30.291  52.963  0.00  0.00     0.002 A 
ATOM     25  C   UNL d   1      53.886  30.651  53.356  0.00  0.00     0.002 A 
ATOM     26  C   UNL d   1      53.619  31.385  53.637  0.00  0.00     0.019 A 
ENDBRANCH  20  22
ENDBRANCH  18  19
ENDBRANCH  17  18
ENDBRANCH   3  17
TORSDOF 7
ENDMDL
