MODEL 1
REMARK VINA RESULT:      43.3      0.000      0.000
REMARK  2 active torsions:
REMARK  status: ('A' for Active; 'I' for Inactive)
REMARK    1  A    between atoms: C_7  and  C_1 
REMARK    2  A    between atoms: S_13  and  C_5 
ROOT
ATOM      1  C   UNL d   1     -57.712 -98.757 -44.584  0.00  0.00     0.025 A 
ATOM      2  C   UNL d   1     -58.204 -98.756 -45.246  0.00  0.00     0.106 A 
ATOM      3  C   UNL d   1     -58.045 -98.756 -43.827  0.00  0.00     0.092 A 
ATOM      4  N   UNL d   1     -59.353 -98.755 -44.400  0.00  0.00    -0.218 NA
ATOM      5  C   UNL d   1     -58.865 -98.756 -43.736  0.00  0.00     0.118 A 
ATOM      6  C   UNL d   1     -59.023 -98.756 -45.154  0.00  0.00     0.194 A 
ATOM      7  C   UNL d   1     -57.871 -98.756 -46.003  0.00  0.00     0.104 C 
ATOM      8  C   UNL d   1     -57.553 -98.757 -43.170  0.00  0.00     0.103 C 
ATOM      9  N   UNL d   1     -57.545 -98.756 -46.748  0.00  0.00    -0.191 NA
ATOM     10  N   UNL d   1     -57.070 -98.757 -42.515  0.00  0.00    -0.191 NA
ATOM     11  N   UNL d   1     -59.512 -98.755 -45.819  0.00  0.00    -0.126 N 
ENDROOT
BRANCH   1  12
ATOM     12  C   UNL d   1     -56.899 -98.757 -44.675  0.00  0.00     0.012 A 
ATOM     13  C   UNL d   1     -56.408 -98.758 -44.011  0.00  0.00     0.058 A 
ATOM     14 CL   UNL d   1     -56.740 -98.758 -43.261  0.00  0.00    -0.082 Cl
ATOM     15  C   UNL d   1     -55.576 -98.758 -44.104  0.00  0.00     0.011 A 
ATOM     16  C   UNL d   1     -55.251 -98.758 -44.860  0.00  0.00     0.001 A 
ATOM     17  C   UNL d   1     -55.735 -98.757 -45.522  0.00  0.00     0.000 A 
ATOM     18  C   UNL d   1     -56.567 -98.757 -45.429  0.00  0.00     0.001 A 
ENDBRANCH   1  12
BRANCH   5  19
ATOM     19  S   UNL d   1     -59.193 -98.756 -42.975  0.00  0.00    -0.093 SA
ATOM     20  C   UNL d   1     -59.952 -99.055 -42.848  0.00  0.00     0.076 C 
ENDBRANCH   5  19
TORSDOF 2
ENDMDL
