MODEL 1
REMARK VINA RESULT:      -8.6      0.000      0.000
REMARK  3 active torsions:
REMARK  status: ('A' for Active; 'I' for Inactive)
REMARK    1  A    between atoms: N_2  and  C_1 
REMARK    2  A    between atoms: C_4  and  C_1 
REMARK       I    between atoms: C_3  and  N_2 
REMARK       I    between atoms: N_5  and  C_3 
REMARK       I    between atoms: C_6  and  N_5 
REMARK    3  A    between atoms: C_11  and  C_6 
ROOT
ATOM      1  N   UNL d   1     -47.924  12.442  22.706  0.00  0.00    -0.159 NA
ATOM      2  C   UNL d   1     -47.903  11.663  23.004  0.00  0.00     0.371 C 
ATOM      3  N   UNL d   1     -47.207  11.363  23.335  0.00  0.00    -0.152 NA
ATOM      4  C   UNL d   1     -46.523  11.840  23.372  0.00  0.00     0.283 C 
ATOM      5  O   UNL d   1     -48.568  11.223  22.960  0.00  0.00    -0.243 OA
ATOM      6  O   UNL d   1     -45.839  11.547  23.696  0.00  0.00    -0.265 OA
ENDROOT
BRANCH   1   7
ATOM      7  C   UNL d   1     -48.618  12.744  22.374  0.00  0.00     0.386 A 
ATOM      8  O   UNL d   1     -48.488  12.596  23.183  0.00  0.00    -0.281 OA
ATOM      9  C   UNL d   1     -49.169  12.802  23.591  0.00  0.00     0.147 A 
ATOM     10  C   UNL d   1     -49.714  13.073  23.053  0.00  0.00     0.147 A 
ATOM     11  O   UNL d   1     -49.350  13.029  22.298  0.00  0.00    -0.281 OA
BRANCH   7  12
ATOM     12  C   UNL d   1     -48.503  12.801  21.556  0.00  0.00     0.470 C 
ATOM     13  F   UNL d   1     -48.449  11.974  21.507  0.00  0.00    -0.164 F 
ATOM     14  F   UNL d   1     -48.558  13.632  21.620  0.00  0.00    -0.164 F 
ATOM     15  F   UNL d   1     -48.386  12.870  20.727  0.00  0.00    -0.164 F 
ENDBRANCH   7  12
ENDBRANCH   1   7
BRANCH   4  16
ATOM     16  C   UNL d   1     -46.531  12.606  23.082  0.00  0.00     0.058 A 
ATOM     17  C   UNL d   1     -46.759  13.231  23.569  0.00  0.00     0.005 A 
ATOM     18  C   UNL d   1     -46.771  14.005  23.287  0.00  0.00     0.000 A 
ATOM     19  C   UNL d   1     -46.549  14.145  22.500  0.00  0.00     0.000 A 
ATOM     20  C   UNL d   1     -46.320  13.522  22.011  0.00  0.00     0.000 A 
ATOM     21  C   UNL d   1     -46.312  12.763  22.300  0.00  0.00     0.005 A 
ENDBRANCH   4  16
TORSDOF 3
ENDMDL
MODEL 2
REMARK VINA RESULT:      -8.4      1.113      2.684
REMARK  3 active torsions:
REMARK  status: ('A' for Active; 'I' for Inactive)
REMARK    1  A    between atoms: N_2  and  C_1 
REMARK    2  A    between atoms: C_4  and  C_1 
REMARK       I    between atoms: C_3  and  N_2 
REMARK       I    between atoms: N_5  and  C_3 
REMARK       I    between atoms: C_6  and  N_5 
REMARK    3  A    between atoms: C_11  and  C_6 
ROOT
ATOM      1  N   UNL d   1     -48.900  12.415  22.636  0.00  0.00    -0.159 NA
ATOM      2  C   UNL d   1     -48.977  11.647  22.955  0.00  0.00     0.371 C 
ATOM      3  N   UNL d   1     -49.687  11.413  23.309  0.00  0.00    -0.152 NA
ATOM      4  C   UNL d   1     -50.329  11.946  23.349  0.00  0.00     0.283 C 
ATOM      5  O   UNL d   1     -48.352  11.153  22.906  0.00  0.00    -0.243 OA
ATOM      6  O   UNL d   1     -51.026  11.717  23.697  0.00  0.00    -0.265 OA
ENDROOT
BRANCH   1   7
ATOM      7  C   UNL d   1     -48.192  12.651  22.282  0.00  0.00     0.386 A 
ATOM      8  O   UNL d   1     -48.312  12.529  23.096  0.00  0.00    -0.281 OA
ATOM      9  C   UNL d   1     -47.606  12.685  23.483  0.00  0.00     0.147 A 
ATOM     10  C   UNL d   1     -47.055  12.899  22.926  0.00  0.00     0.147 A 
ATOM     11  O   UNL d   1     -47.441  12.872  22.181  0.00  0.00    -0.281 OA
BRANCH   7  12
ATOM     12  C   UNL d   1     -48.324  12.702  21.465  0.00  0.00     0.470 C 
ATOM     13  F   UNL d   1     -48.460  11.884  21.437  0.00  0.00    -0.164 F 
ATOM     14  F   UNL d   1     -48.185  13.524  21.509  0.00  0.00    -0.164 F 
ATOM     15  F   UNL d   1     -48.456  12.765  20.639  0.00  0.00    -0.164 F 
ENDBRANCH   7  12
ENDBRANCH   1   7
BRANCH   4  16
ATOM     16  C   UNL d   1     -50.265  12.701  23.041  0.00  0.00     0.058 A 
ATOM     17  C   UNL d   1     -50.487  12.852  22.261  0.00  0.00     0.005 A 
ATOM     18  C   UNL d   1     -50.426  13.608  21.941  0.00  0.00     0.000 A 
ATOM     19  C   UNL d   1     -50.136  14.220  22.420  0.00  0.00     0.000 A 
ATOM     20  C   UNL d   1     -49.914  14.073  23.200  0.00  0.00     0.000 A 
ATOM     21  C   UNL d   1     -49.978  13.323  23.505  0.00  0.00     0.005 A 
ENDBRANCH   4  16
TORSDOF 3
ENDMDL
MODEL 3
REMARK VINA RESULT:      -8.3      1.308      2.599
REMARK  3 active torsions:
REMARK  status: ('A' for Active; 'I' for Inactive)
REMARK    1  A    between atoms: N_2  and  C_1 
REMARK    2  A    between atoms: C_4  and  C_1 
REMARK       I    between atoms: C_3  and  N_2 
REMARK       I    between atoms: N_5  and  C_3 
REMARK       I    between atoms: C_6  and  N_5 
REMARK    3  A    between atoms: C_11  and  C_6 
ROOT
ATOM      1  N   UNL d   1     -47.081  12.905  22.854  0.00  0.00    -0.159 NA
ATOM      2  C   UNL d   1     -46.861  12.316  23.403  0.00  0.00     0.371 C 
ATOM      3  N   UNL d   1     -47.405  11.735  23.629  0.00  0.00    -0.152 NA
ATOM      4  C   UNL d   1     -48.175  11.736  23.308  0.00  0.00     0.283 C 
ATOM      5  O   UNL d   1     -46.120  12.332  23.698  0.00  0.00    -0.243 OA
ATOM      6  O   UNL d   1     -48.710  11.166  23.529  0.00  0.00    -0.265 OA
ENDROOT
BRANCH   1   7
ATOM      7  C   UNL d   1     -46.540  13.487  22.626  0.00  0.00     0.386 A 
ATOM      8  O   UNL d   1     -46.486  12.676  22.450  0.00  0.00    -0.281 OA
ATOM      9  C   UNL d   1     -45.803  12.557  22.012  0.00  0.00     0.147 A 
ATOM     10  C   UNL d   1     -45.436  13.275  21.915  0.00  0.00     0.147 A 
ATOM     11  O   UNL d   1     -45.913  13.844  22.306  0.00  0.00    -0.281 OA
BRANCH   7  12
ATOM     12  C   UNL d   1     -46.812  14.213  22.920  0.00  0.00     0.470 C 
ATOM     13  F   UNL d   1     -46.672  13.949  23.695  0.00  0.00    -0.164 F 
ATOM     14  F   UNL d   1     -46.947  14.464  22.136  0.00  0.00    -0.164 F 
ATOM     15  F   UNL d   1     -47.089  14.951  23.209  0.00  0.00    -0.164 F 
ENDBRANCH   7  12
ENDBRANCH   1   7
BRANCH   4  16
ATOM     16  C   UNL d   1     -48.402  12.309  22.768  0.00  0.00     0.058 A 
ATOM     17  C   UNL d   1     -48.739  13.015  23.029  0.00  0.00     0.005 A 
ATOM     18  C   UNL d   1     -48.971  13.598  22.495  0.00  0.00     0.000 A 
ATOM     19  C   UNL d   1     -48.858  13.460  21.684  0.00  0.00     0.000 A 
ATOM     20  C   UNL d   1     -48.522  12.756  21.420  0.00  0.00     0.000 A 
ATOM     21  C   UNL d   1     -48.297  12.189  21.957  0.00  0.00     0.005 A 
ENDBRANCH   4  16
TORSDOF 3
ENDMDL
MODEL 4
REMARK VINA RESULT:      -8.2      1.401      2.094
REMARK  3 active torsions:
REMARK  status: ('A' for Active; 'I' for Inactive)
REMARK    1  A    between atoms: N_2  and  C_1 
REMARK    2  A    between atoms: C_4  and  C_1 
REMARK       I    between atoms: C_3  and  N_2 
REMARK       I    between atoms: N_5  and  C_3 
REMARK       I    between atoms: C_6  and  N_5 
REMARK    3  A    between atoms: C_11  and  C_6 
ROOT
ATOM      1  N   UNL d   1     -48.411  13.714  22.570  0.00  0.00    -0.159 NA
ATOM      2  C   UNL d   1     -47.735  14.189  22.696  0.00  0.00     0.371 C 
ATOM      3  N   UNL d   1     -47.051  13.859  23.024  0.00  0.00    -0.152 NA
ATOM      4  C   UNL d   1     -47.035  13.050  23.231  0.00  0.00     0.283 C 
ATOM      5  O   UNL d   1     -47.771  14.959  22.492  0.00  0.00    -0.243 OA
ATOM      6  O   UNL d   1     -46.364  12.725  23.553  0.00  0.00    -0.265 OA
ENDROOT
BRANCH   1   7
ATOM      7  C   UNL d   1     -49.095  14.041  22.242  0.00  0.00     0.386 A 
ATOM      8  O   UNL d   1     -48.779  14.222  22.990  0.00  0.00    -0.281 OA
ATOM      9  C   UNL d   1     -49.265  14.780  23.343  0.00  0.00     0.147 A 
ATOM     10  C   UNL d   1     -49.873  14.946  22.830  0.00  0.00     0.147 A 
ATOM     11  O   UNL d   1     -49.748  14.474  22.147  0.00  0.00    -0.281 OA
BRANCH   7  12
ATOM     12  C   UNL d   1     -49.201  13.704  21.493  0.00  0.00     0.470 C 
ATOM     13  F   UNL d   1     -48.497  14.060  21.234  0.00  0.00    -0.164 F 
ATOM     14  F   UNL d   1     -49.907  13.352  21.767  0.00  0.00    -0.164 F 
ATOM     15  F   UNL d   1     -49.318  13.357  20.737  0.00  0.00    -0.164 F 
ENDBRANCH   7  12
ENDBRANCH   1   7
BRANCH   4  16
ATOM     16  C   UNL d   1     -47.691  12.575  23.112  0.00  0.00     0.058 A 
ATOM     17  C   UNL d   1     -48.268  12.510  23.697  0.00  0.00     0.005 A 
ATOM     18  C   UNL d   1     -48.932  12.035  23.588  0.00  0.00     0.000 A 
ATOM     19  C   UNL d   1     -49.011  11.621  22.873  0.00  0.00     0.000 A 
ATOM     20  C   UNL d   1     -48.436  11.684  22.285  0.00  0.00     0.000 A 
ATOM     21  C   UNL d   1     -47.785  12.156  22.405  0.00  0.00     0.005 A 
ENDBRANCH   4  16
TORSDOF 3
ENDMDL
