MODEL 1
REMARK VINA RESULT:      -3.9      0.000      0.000
REMARK  3 active torsions:
REMARK  status: ('A' for Active; 'I' for Inactive)
REMARK    1  A    between atoms: C_15  and  N_4 
REMARK    2  A    between atoms: C_11  and  N_10 
REMARK    3  A    between atoms: C_19  and  C_15 
ROOT
ATOM      1  C   UNL d   1      57.996  -1.138  30.288  0.00  0.00     0.191 A 
ATOM      2  C   UNL d   1      58.346  -0.397  30.413  0.00  0.00     0.173 A 
ATOM      3  C   UNL d   1      57.406  -0.582  31.362  0.00  0.00     0.722 A 
ATOM      4  N   UNL d   1      59.209  -0.589  29.284  0.00  0.00    -0.224 N 
ATOM      5  N   UNL d   1      57.416  -1.264  30.866  0.00  0.00    -0.042 NA
ATOM      6  N   UNL d   1      57.973  -0.054  31.086  0.00  0.00    -0.131 N 
ATOM      7  N   UNL d   1      58.253  -1.624  29.646  0.00  0.00    -0.240 N 
ATOM      8  C   UNL d   1      58.875  -1.335  29.136  0.00  0.00     0.343 A 
ATOM      9  C   UNL d   1      58.930  -0.120  29.938  0.00  0.00     0.288 A 
ATOM     10  N   UNL d   1      57.044  -0.246  32.018  0.00  0.00    -0.139 N 
ATOM     11  C   UNL d   1      57.962   0.611  31.573  0.00  0.00     0.118 A 
ATOM     12  C   UNL d   1      57.384   0.485  32.148  0.00  0.00     0.117 A 
ATOM     13  O   UNL d   1      59.159  -1.793  28.483  0.00  0.00    -0.245 OA
ATOM     14  O   UNL d   1      59.287   0.637  30.067  0.00  0.00    -0.265 OA
ATOM     15  C   UNL d   1      57.907  -2.375  29.509  0.00  0.00     0.105 C 
ENDROOT
BRANCH  10  16
ATOM     16  C   UNL d   1      56.441  -0.589  32.468  0.00  0.00     0.082 A 
ATOM     17  C   UNL d   1      55.809  -0.127  32.707  0.00  0.00     0.027 A 
ATOM     18  C   UNL d   1      55.213  -0.465  33.151  0.00  0.00     0.059 A 
ATOM     19  C   UNL d   1      55.769   0.676  32.504  0.00  0.00     0.002 C 
ATOM     20 CL   UNL d   1      54.609   0.060  33.357  0.00  0.00    -0.082 Cl
ATOM     21  C   UNL d   1      55.246  -1.266  33.359  0.00  0.00     0.011 A 
ATOM     22  C   UNL d   1      55.885  -1.729  33.115  0.00  0.00     0.002 A 
ATOM     23  C   UNL d   1      56.485  -1.385  32.667  0.00  0.00     0.018 A 
ENDBRANCH  10  16
BRANCH   4  24
ATOM     24  C   UNL d   1      59.705  -0.700  28.634  0.00  0.00     0.087 C 
BRANCH  24  25
ATOM     25  C   UNL d   1      60.442  -0.341  28.623  0.00  0.00     0.018 C 
ATOM     26  C   UNL d   1      61.116  -0.800  28.497  0.00  0.00     0.002 C 
ATOM     27  C   UNL d   1      60.521   0.464  28.734  0.00  0.00     0.002 C 
ENDBRANCH  24  25
ENDBRANCH   4  24
TORSDOF 3
ENDMDL
MODEL 2
REMARK VINA RESULT:      -2.2      1.640      2.469
REMARK  3 active torsions:
REMARK  status: ('A' for Active; 'I' for Inactive)
REMARK    1  A    between atoms: C_15  and  N_4 
REMARK    2  A    between atoms: C_11  and  N_10 
REMARK    3  A    between atoms: C_19  and  C_15 
ROOT
ATOM      1  C   UNL d   1      58.095   0.587  32.140  0.00  0.00     0.191 A 
ATOM      2  C   UNL d   1      57.467   0.523  31.602  0.00  0.00     0.173 A 
ATOM      3  C   UNL d   1      56.951   0.566  32.847  0.00  0.00     0.722 A 
ATOM      4  N   UNL d   1      58.383   0.510  30.499  0.00  0.00    -0.224 N 
ATOM      5  N   UNL d   1      57.791   0.614  32.910  0.00  0.00    -0.042 NA
ATOM      6  N   UNL d   1      56.755   0.510  32.051  0.00  0.00    -0.131 N 
ATOM      7  N   UNL d   1      58.892   0.614  31.857  0.00  0.00    -0.240 N 
ATOM      8  C   UNL d   1      59.030   0.574  31.015  0.00  0.00     0.343 A 
ATOM      9  C   UNL d   1      57.590   0.485  30.811  0.00  0.00     0.288 A 
ATOM     10  N   UNL d   1      56.255   0.553  33.283  0.00  0.00    -0.139 N 
ATOM     11  C   UNL d   1      55.933   0.463  31.993  0.00  0.00     0.118 A 
ATOM     12  C   UNL d   1      55.631   0.490  32.760  0.00  0.00     0.117 A 
ATOM     13  O   UNL d   1      59.814   0.598  30.695  0.00  0.00    -0.245 OA
ATOM     14  O   UNL d   1      56.948   0.420  30.263  0.00  0.00    -0.265 OA
ATOM     15  C   UNL d   1      59.535   0.679  32.390  0.00  0.00     0.105 C 
ENDROOT
BRANCH  10  16
ATOM     16  C   UNL d   1      56.197   0.596  34.106  0.00  0.00     0.082 A 
ATOM     17  C   UNL d   1      55.457   0.619  34.454  0.00  0.00     0.027 A 
ATOM     18  C   UNL d   1      55.399   0.662  35.267  0.00  0.00     0.059 A 
ATOM     19  C   UNL d   1      54.770   0.599  33.991  0.00  0.00     0.002 C 
ATOM     20 CL   UNL d   1      54.622   0.681  35.548  0.00  0.00    -0.082 Cl
ATOM     21  C   UNL d   1      56.081   0.682  35.737  0.00  0.00     0.011 A 
ATOM     22  C   UNL d   1      56.827   0.659  35.383  0.00  0.00     0.002 A 
ATOM     23  C   UNL d   1      56.881   0.616  34.561  0.00  0.00     0.018 A 
ENDBRANCH  10  16
BRANCH   4  24
ATOM     24  C   UNL d   1      58.910   0.503  29.864  0.00  0.00     0.087 C 
BRANCH  24  25
ATOM     25  C   UNL d   1      58.693   0.138  29.163  0.00  0.00     0.018 C 
ATOM     26  C   UNL d   1      58.563  -0.676  29.152  0.00  0.00     0.002 C 
ATOM     27  C   UNL d   1      58.603   0.567  28.474  0.00  0.00     0.002 C 
ENDBRANCH  24  25
ENDBRANCH   4  24
TORSDOF 3
ENDMDL
MODEL 3
REMARK VINA RESULT:      -1.7      1.190      2.026
REMARK  3 active torsions:
REMARK  status: ('A' for Active; 'I' for Inactive)
REMARK    1  A    between atoms: C_15  and  N_4 
REMARK    2  A    between atoms: C_11  and  N_10 
REMARK    3  A    between atoms: C_19  and  C_15 
ROOT
ATOM      1  C   UNL d   1      58.128  -0.155  31.461  0.00  0.00     0.191 A 
ATOM      2  C   UNL d   1      57.643  -0.737  31.123  0.00  0.00     0.173 A 
ATOM      3  C   UNL d   1      57.091  -0.359  32.294  0.00  0.00     0.722 A 
ATOM      4  N   UNL d   1      58.521  -0.847  29.995  0.00  0.00    -0.224 N 
ATOM      5  N   UNL d   1      57.799   0.086  32.182  0.00  0.00    -0.042 NA
ATOM      6  N   UNL d   1      56.997  -0.860  31.649  0.00  0.00    -0.131 N 
ATOM      7  N   UNL d   1      58.830   0.093  31.061  0.00  0.00    -0.240 N 
ATOM      8  C   UNL d   1      59.025  -0.266  30.310  0.00  0.00     0.343 A 
ATOM      9  C   UNL d   1      57.819  -1.078  30.419  0.00  0.00     0.288 A 
ATOM     10  N   UNL d   1      56.460  -0.480  32.805  0.00  0.00    -0.139 N 
ATOM     11  C   UNL d   1      56.304  -1.293  31.761  0.00  0.00     0.118 A 
ATOM     12  C   UNL d   1      55.977  -1.052  32.479  0.00  0.00     0.117 A 
ATOM     13  O   UNL d   1      59.719  -0.043  29.881  0.00  0.00    -0.245 OA
ATOM     14  O   UNL d   1      57.324  -1.672  30.075  0.00  0.00    -0.265 OA
ATOM     15  C   UNL d   1      59.328   0.680  31.392  0.00  0.00     0.105 C 
ENDROOT
BRANCH  10  16
ATOM     16  C   UNL d   1      56.336  -0.090  33.523  0.00  0.00     0.082 A 
ATOM     17  C   UNL d   1      55.571   0.082  33.758  0.00  0.00     0.027 A 
ATOM     18  C   UNL d   1      55.447   0.467  34.467  0.00  0.00     0.059 A 
ATOM     19  C   UNL d   1      54.924  -0.130  33.284  0.00  0.00     0.002 C 
ATOM     20 CL   UNL d   1      54.652   0.607  34.639  0.00  0.00    -0.082 Cl
ATOM     21  C   UNL d   1      56.088   0.682  34.946  0.00  0.00     0.011 A 
ATOM     22  C   UNL d   1      56.859   0.507  34.706  0.00  0.00     0.002 A 
ATOM     23  C   UNL d   1      56.980   0.118  33.989  0.00  0.00     0.018 A 
ENDBRANCH  10  16
BRANCH   4  24
ATOM     24  C   UNL d   1      59.027  -0.910  29.346  0.00  0.00     0.087 C 
BRANCH  24  25
ATOM     25  C   UNL d   1      59.154  -1.643  29.003  0.00  0.00     0.018 C 
ATOM     26  C   UNL d   1      58.585  -1.959  28.496  0.00  0.00     0.002 C 
ATOM     27  C   UNL d   1      59.836  -2.067  29.153  0.00  0.00     0.002 C 
ENDBRANCH  24  25
ENDBRANCH   4  24
TORSDOF 3
ENDMDL
MODEL 4
REMARK VINA RESULT:      -1.2      2.209      4.796
REMARK  3 active torsions:
REMARK  status: ('A' for Active; 'I' for Inactive)
REMARK    1  A    between atoms: C_15  and  N_4 
REMARK    2  A    between atoms: C_11  and  N_10 
REMARK    3  A    between atoms: C_19  and  C_15 
ROOT
ATOM      1  C   UNL d   1      56.923  -0.857  31.849  0.00  0.00     0.191 A 
ATOM      2  C   UNL d   1      57.246  -0.211  32.258  0.00  0.00     0.173 A 
ATOM      3  C   UNL d   1      57.925  -0.358  31.102  0.00  0.00     0.722 A 
ATOM      4  N   UNL d   1      56.312  -0.394  33.331  0.00  0.00    -0.224 N 
ATOM      5  N   UNL d   1      57.332  -0.958  31.136  0.00  0.00    -0.042 NA
ATOM      6  N   UNL d   1      57.871   0.096  31.785  0.00  0.00    -0.131 N 
ATOM      7  N   UNL d   1      56.277  -1.288  32.184  0.00  0.00    -0.240 N 
ATOM      8  C   UNL d   1      55.970  -1.044  32.944  0.00  0.00     0.343 A 
ATOM      9  C   UNL d   1      56.962   0.023  32.971  0.00  0.00     0.288 A 
ATOM     10  N   UNL d   1      58.535  -0.057  30.643  0.00  0.00    -0.139 N 
ATOM     11  C   UNL d   1      58.451   0.682  31.749  0.00  0.00     0.118 A 
ATOM     12  C   UNL d   1      58.858   0.580  31.039  0.00  0.00     0.117 A 
ATOM     13  O   UNL d   1      55.325  -1.452  33.310  0.00  0.00    -0.245 OA
ATOM     14  O   UNL d   1      57.292   0.682  33.386  0.00  0.00    -0.265 OA
ATOM     15  C   UNL d   1      55.943  -1.942  31.781  0.00  0.00     0.105 C 
ENDROOT
BRANCH  10  16
ATOM     16  C   UNL d   1      58.779  -0.348  29.909  0.00  0.00     0.082 A 
ATOM     17  C   UNL d   1      59.555  -0.590  29.812  0.00  0.00     0.027 A 
ATOM     18  C   UNL d   1      59.797  -0.878  29.088  0.00  0.00     0.059 A 
ATOM     19  C   UNL d   1      60.094  -0.546  30.441  0.00  0.00     0.002 C 
ATOM     20 CL   UNL d   1      60.591  -1.103  29.064  0.00  0.00    -0.082 Cl
ATOM     21  C   UNL d   1      59.264  -0.925  28.455  0.00  0.00     0.011 A 
ATOM     22  C   UNL d   1      58.481  -0.680  28.556  0.00  0.00     0.002 A 
ATOM     23  C   UNL d   1      58.241  -0.390  29.289  0.00  0.00     0.018 A 
ENDBRANCH  10  16
BRANCH   4  24
ATOM     24  C   UNL d   1      55.775  -0.500  33.948  0.00  0.00     0.087 C 
BRANCH  24  25
ATOM     25  C   UNL d   1      55.604   0.128  34.447  0.00  0.00     0.018 C 
ATOM     26  C   UNL d   1      56.028   0.216  35.149  0.00  0.00     0.002 C 
ATOM     27  C   UNL d   1      55.021   0.668  34.261  0.00  0.00     0.002 C 
ENDBRANCH  24  25
ENDBRANCH   4  24
TORSDOF 3
ENDMDL
