MODEL 1
REMARK VINA RESULT:      29.7      0.000      0.000
REMARK  8 active torsions:
REMARK  status: ('A' for Active; 'I' for Inactive)
REMARK    1  A    between atoms: C_6  and  C_1 
REMARK    2  A    between atoms: C_8  and  C_2 
REMARK    3  A    between atoms: S_10  and  C_3 
REMARK    4  A    between atoms: C_15  and  C_4 
REMARK       I    between atoms: N_9  and  C_6 
REMARK    5  A    between atoms: C_19  and  N_9 
REMARK    6  A    between atoms: C_18  and  S_10 
REMARK    7  A    between atoms: C_12  and  C_18 
REMARK       I    between atoms: N_14  and  C_12 
REMARK    8  A    between atoms: C_21  and  N_14 
ROOT
ATOM      1  C   UNL d   1     -41.609-120.883 -52.474  0.00  0.00     0.076 A 
ATOM      2  C   UNL d   1     -41.952-122.260 -52.400  0.00  0.00     0.045 A 
ATOM      3  C   UNL d   1     -41.880-122.233 -51.568  0.00  0.00     0.112 A 
ATOM      4  C   UNL d   1     -41.815-121.584 -52.844  0.00  0.00     0.010 A 
ATOM      5  C   UNL d   1     -41.537-120.856 -51.641  0.00  0.00     0.087 A 
ATOM      6  N   UNL d   1     -41.673-121.531 -51.193  0.00  0.00    -0.239 NA
ATOM      7  C   UNL d   1     -41.321-120.128 -51.249  0.00  0.00     0.021 C 
ENDROOT
BRANCH   3   8
ATOM      8  S   UNL d   1     -42.021-122.935 -51.099  0.00  0.00    -0.062 SA
BRANCH   8   9
ATOM      9  C   UNL d   1     -42.199-122.867 -50.272  0.00  0.00     0.099 C 
BRANCH   9  10
ATOM     10  C   UNL d   1     -41.816-123.357 -49.714  0.00  0.00     0.286 C 
ATOM     11  N   UNL d   1     -42.117-123.428 -48.954  0.00  0.00    -0.208 NA
ATOM     12  O   UNL d   1     -41.125-123.775 -49.929  0.00  0.00    -0.265 OA
BRANCH  11  13
ATOM     13  C   UNL d   1     -42.793-123.019 -48.744  0.00  0.00     0.085 A 
ATOM     14  C   UNL d   1     -43.498-123.237 -49.069  0.00  0.00     0.019 A 
ATOM     15  C   UNL d   1     -44.180-122.828 -48.860  0.00  0.00     0.002 A 
ATOM     16  C   UNL d   1     -44.145-122.201 -48.323  0.00  0.00     0.000 A 
ATOM     17  C   UNL d   1     -43.426-121.995 -48.004  0.00  0.00     0.002 A 
ATOM     18  C   UNL d   1     -42.751-122.404 -48.215  0.00  0.00     0.019 A 
ENDBRANCH  11  13
ENDBRANCH   9  10
ENDBRANCH   8   9
ENDBRANCH   3   8
BRANCH   2  19
ATOM     19  C   UNL d   1     -42.167-122.989 -52.792  0.00  0.00     0.124 C 
ATOM     20  N   UNL d   1     -41.567-123.545 -53.019  0.00  0.00    -0.146 N 
ENDBRANCH   2  19
BRANCH   4  21
ATOM     21  C   UNL d   1     -41.887-121.610 -53.676  0.00  0.00     0.003 A 
ATOM     22  C   UNL d   1     -41.216-121.656 -54.148  0.00  0.00     0.021 A 
ATOM     23  C   UNL d   1     -41.288-121.682 -54.980  0.00  0.00     0.099 A 
ATOM     24  N   UNL d   1     -42.031-121.663 -55.336  0.00  0.00    -0.242 NA
ATOM     25  C   UNL d   1     -42.703-121.618 -54.859  0.00  0.00     0.099 A 
ATOM     26  C   UNL d   1     -42.631-121.591 -54.028  0.00  0.00     0.021 A 
ENDBRANCH   4  21
BRANCH   1  27
ATOM     27  C   UNL d   1     -41.468-120.182 -52.942  0.00  0.00     0.281 C 
ATOM     28  N   UNL d   1     -41.550-119.412 -52.593  0.00  0.00    -0.208 NA
ATOM     29  O   UNL d   1     -41.245-120.263 -53.757  0.00  0.00    -0.265 OA
BRANCH  28  30
ATOM     30  C   UNL d   1     -41.420-118.749 -53.023  0.00  0.00     0.085 A 
ATOM     31  C   UNL d   1     -41.418-118.024 -52.676  0.00  0.00     0.019 A 
ATOM     32  C   UNL d   1     -41.284-117.323 -53.108  0.00  0.00     0.002 A 
ATOM     33  C   UNL d   1     -41.152-117.379 -53.912  0.00  0.00     0.000 A 
ATOM     34  C   UNL d   1     -41.154-118.119 -54.271  0.00  0.00     0.002 A 
ATOM     35  C   UNL d   1     -41.286-118.811 -53.841  0.00  0.00     0.019 A 
ENDBRANCH  28  30
ENDBRANCH   1  27
TORSDOF 8
ENDMDL
MODEL 2
REMARK VINA RESULT:      30.5      1.386      2.020
REMARK  8 active torsions:
REMARK  status: ('A' for Active; 'I' for Inactive)
REMARK    1  A    between atoms: C_6  and  C_1 
REMARK    2  A    between atoms: C_8  and  C_2 
REMARK    3  A    between atoms: S_10  and  C_3 
REMARK    4  A    between atoms: C_15  and  C_4 
REMARK       I    between atoms: N_9  and  C_6 
REMARK    5  A    between atoms: C_19  and  N_9 
REMARK    6  A    between atoms: C_18  and  S_10 
REMARK    7  A    between atoms: C_12  and  C_18 
REMARK       I    between atoms: N_14  and  C_12 
REMARK    8  A    between atoms: C_21  and  N_14 
ROOT
ATOM      1  C   UNL d   1     -41.916-121.488 -53.139  0.00  0.00     0.076 A 
ATOM      2  C   UNL d   1     -41.751-122.620 -52.295  0.00  0.00     0.045 A 
ATOM      3  C   UNL d   1     -41.660-122.115 -51.635  0.00  0.00     0.112 A 
ATOM      4  C   UNL d   1     -41.878-122.301 -53.040  0.00  0.00     0.010 A 
ATOM      5  C   UNL d   1     -41.824-120.983 -52.479  0.00  0.00     0.087 A 
ATOM      6  N   UNL d   1     -41.697-121.299 -51.732  0.00  0.00    -0.239 NA
ATOM      7  C   UNL d   1     -41.862-120.134 -52.576  0.00  0.00     0.021 C 
ENDROOT
BRANCH   3   8
ATOM      8  S   UNL d   1     -41.527-122.441 -50.856  0.00  0.00    -0.062 SA
BRANCH   8   9
ATOM      9  C   UNL d   1     -41.947-122.131 -50.187  0.00  0.00     0.099 C 
BRANCH   9  10
ATOM     10  C   UNL d   1     -41.881-122.497 -49.438  0.00  0.00     0.286 C 
ATOM     11  N   UNL d   1     -42.549-122.791 -49.063  0.00  0.00    -0.208 NA
ATOM     12  O   UNL d   1     -41.134-122.564 -49.070  0.00  0.00    -0.265 OA
BRANCH  11  13
ATOM     13  C   UNL d   1     -43.280-122.726 -49.423  0.00  0.00     0.085 A 
ATOM     14  C   UNL d   1     -43.756-123.376 -49.459  0.00  0.00     0.019 A 
ATOM     15  C   UNL d   1     -44.492-123.314 -49.820  0.00  0.00     0.002 A 
ATOM     16  C   UNL d   1     -44.742-122.595 -50.143  0.00  0.00     0.000 A 
ATOM     17  C   UNL d   1     -44.249-121.951 -50.098  0.00  0.00     0.002 A 
ATOM     18  C   UNL d   1     -43.519-122.016 -49.738  0.00  0.00     0.019 A 
ENDBRANCH  11  13
ENDBRANCH   9  10
ENDBRANCH   8   9
ENDBRANCH   3   8
BRANCH   2  19
ATOM     19  C   UNL d   1     -41.714-123.469 -52.198  0.00  0.00     0.124 C 
ATOM     20  N   UNL d   1     -41.125-123.814 -51.693  0.00  0.00    -0.146 N 
ENDBRANCH   2  19
BRANCH   4  21
ATOM     21  C   UNL d   1     -41.970-122.806 -53.699  0.00  0.00     0.003 A 
ATOM     22  C   UNL d   1     -41.331-122.963 -54.192  0.00  0.00     0.021 A 
ATOM     23  C   UNL d   1     -41.422-123.468 -54.851  0.00  0.00     0.099 A 
ATOM     24  N   UNL d   1     -42.152-123.813 -55.015  0.00  0.00    -0.242 NA
ATOM     25  C   UNL d   1     -42.792-123.653 -54.519  0.00  0.00     0.099 A 
ATOM     26  C   UNL d   1     -42.700-123.148 -53.860  0.00  0.00     0.021 A 
ENDBRANCH   4  21
BRANCH   1  27
ATOM     27  C   UNL d   1     -42.048-121.162 -53.918  0.00  0.00     0.281 C 
ATOM     28  N   UNL d   1     -41.525-121.358 -54.557  0.00  0.00    -0.208 NA
ATOM     29  O   UNL d   1     -42.707-120.641 -54.045  0.00  0.00    -0.265 OA
BRANCH  28  30
ATOM     30  C   UNL d   1     -41.640-121.057 -55.290  0.00  0.00     0.085 A 
ATOM     31  C   UNL d   1     -41.975-120.333 -55.393  0.00  0.00     0.019 A 
ATOM     32  C   UNL d   1     -42.103-120.005 -56.149  0.00  0.00     0.002 A 
ATOM     33  C   UNL d   1     -41.879-120.435 -56.806  0.00  0.00     0.000 A 
ATOM     34  C   UNL d   1     -41.536-121.177 -56.705  0.00  0.00     0.002 A 
ATOM     35  C   UNL d   1     -41.411-121.499 -55.955  0.00  0.00     0.019 A 
ENDBRANCH  28  30
ENDBRANCH   1  27
TORSDOF 8
ENDMDL
