MODEL 1
REMARK VINA RESULT:      14.8      0.000      0.000
REMARK  3 active torsions:
REMARK  status: ('A' for Active; 'I' for Inactive)
REMARK    1  A    between atoms: C_7  and  C_3 
REMARK       I    between atoms: N_10  and  C_7 
REMARK    2  A    between atoms: C_18  and  C_9 
REMARK    3  A    between atoms: C_12  and  N_10 
ROOT
ATOM      1  C   UNL d   1      46.162 -18.079  43.463  0.00  0.00     0.059 A 
ATOM      2  C   UNL d   1      46.241 -18.549  44.137  0.00  0.00     0.013 A 
ATOM      3  C   UNL d   1      45.823 -16.964  44.280  0.00  0.00     0.088 A 
ATOM      4  S   UNL d   1      45.954 -17.288  43.534  0.00  0.00    -0.075 SA
ATOM      5  S   UNL d   1      46.293 -18.404  42.717  0.00  0.00    -0.080 SA
ATOM      6  C   UNL d   1      45.902 -17.434  44.955  0.00  0.00     0.012 A 
ATOM      7  C   UNL d   1      46.580 -19.661  43.323  0.00  0.00     0.007 A 
ATOM      8  C   UNL d   1      46.501 -19.191  42.648  0.00  0.00     0.030 A 
ENDROOT
BRANCH   3   9
ATOM      9  C   UNL d   1      45.614 -16.173  44.352  0.00  0.00     0.285 C 
ATOM     10  N   UNL d   1      46.155 -15.582  44.144  0.00  0.00    -0.208 NA
ATOM     11  O   UNL d   1      44.866 -15.966  44.630  0.00  0.00    -0.265 OA
BRANCH  10  12
ATOM     12  C   UNL d   1      45.947 -14.786  44.215  0.00  0.00     0.085 A 
ATOM     13  C   UNL d   1      46.155 -14.371  44.887  0.00  0.00     0.019 A 
ATOM     14  C   UNL d   1      45.947 -13.581  44.954  0.00  0.00     0.002 A 
ATOM     15  C   UNL d   1      45.527 -13.204  44.340  0.00  0.00     0.000 A 
ATOM     16  C   UNL d   1      45.324 -13.633  43.667  0.00  0.00     0.002 A 
ATOM     17  C   UNL d   1      45.317 -12.407  44.407  0.00  0.00     0.000 C 
ATOM     18  C   UNL d   1      45.532 -14.421  43.603  0.00  0.00     0.019 A 
ENDBRANCH  10  12
ENDBRANCH   3   9
BRANCH   8  19
ATOM     19  C   UNL d   1      46.633 -19.522  41.903  0.00  0.00     0.006 C 
ATOM     20  C   UNL d   1      46.309 -20.250  41.710  0.00  0.00     0.001 C 
ENDBRANCH   8  19
TORSDOF 3
ENDMDL
