MODEL 1
REMARK VINA RESULT:      -7.7      0.000      0.000
REMARK  3 active torsions:
REMARK  status: ('A' for Active; 'I' for Inactive)
REMARK    1  A    between atoms: C_12  and  C_4 
REMARK       I    between atoms: C_6  and  N_11 
REMARK    2  A    between atoms: C_7  and  C_6 
REMARK    3  A    between atoms: N_11  and  C_18 
ROOT
ATOM      1  C   UNL d   1      52.967  32.437  53.487  0.00  0.00     0.019 A 
ATOM      2  C   UNL d   1      52.238  32.067  53.369  0.00  0.00     0.003 A 
ATOM      3  C   UNL d   1      53.660  32.022  53.368  0.00  0.00     0.003 A 
ATOM      4  C   UNL d   1      52.903  30.862  53.012  0.00  0.00     0.085 A 
ATOM      5  C   UNL d   1      53.628  31.233  53.130  0.00  0.00     0.019 A 
ATOM      6  C   UNL d   1      52.207  31.286  53.133  0.00  0.00     0.019 A 
ENDROOT
BRANCH   1   7
ATOM      7  C   UNL d   1      53.001  33.230  53.727  0.00  0.00     0.101 A 
ATOM      8  N   UNL d   1      53.232  33.463  54.469  0.00  0.00    -0.221 NA
ATOM      9  C   UNL d   1      53.198  34.285  54.506  0.00  0.00     0.179 A 
ATOM     10  N   UNL d   1      52.944  34.566  53.782  0.00  0.00    -0.282 N 
ATOM     11  S   UNL d   1      53.325  34.933  55.003  0.00  0.00    -0.048 SA
ATOM     12  C   UNL d   1      52.820  33.908  53.293  0.00  0.00     0.101 A 
ATOM     13  C   UNL d   1      52.910  35.389  53.818  0.00  0.00     0.089 A 
ATOM     14  C   UNL d   1      53.147  35.611  54.578  0.00  0.00     0.057 A 
ENDBRANCH   1   7
BRANCH   4  15
ATOM     15  N   UNL d   1      52.869  30.069  52.772  0.00  0.00    -0.208 NA
ATOM     16  C   UNL d   1      52.953  29.465  53.332  0.00  0.00     0.279 C 
ATOM     17  O   UNL d   1      52.920  28.679  53.098  0.00  0.00    -0.265 OA
BRANCH  16  18
ATOM     18  C   UNL d   1      53.070  29.658  54.123  0.00  0.00     0.058 A 
ATOM     19  C   UNL d   1      53.211  29.057  54.674  0.00  0.00     0.005 A 
ATOM     20  C   UNL d   1      53.188  29.849  54.922  0.00  0.00     0.005 A 
ENDBRANCH  16  18
ENDBRANCH   4  15
TORSDOF 3
ENDMDL
MODEL 2
REMARK VINA RESULT:      -7.5      2.905      3.765
REMARK  3 active torsions:
REMARK  status: ('A' for Active; 'I' for Inactive)
REMARK    1  A    between atoms: C_12  and  C_4 
REMARK       I    between atoms: C_6  and  N_11 
REMARK    2  A    between atoms: C_7  and  C_6 
REMARK    3  A    between atoms: N_11  and  C_18 
ROOT
ATOM      1  C   UNL d   1      51.021  33.964  52.843  0.00  0.00     0.019 A 
ATOM      2  C   UNL d   1      51.044  33.255  53.267  0.00  0.00     0.003 A 
ATOM      3  C   UNL d   1      51.702  34.260  52.504  0.00  0.00     0.003 A 
ATOM      4  C   UNL d   1      52.437  33.142  53.007  0.00  0.00     0.085 A 
ATOM      5  C   UNL d   1      52.412  33.848  52.586  0.00  0.00     0.019 A 
ATOM      6  C   UNL d   1      51.747  32.848  53.347  0.00  0.00     0.019 A 
ENDROOT
BRANCH   1   7
ATOM      7  C   UNL d   1      50.308  34.380  52.760  0.00  0.00     0.101 A 
ATOM      8  N   UNL d   1      49.862  34.371  52.082  0.00  0.00    -0.221 NA
ATOM      9  C   UNL d   1      49.198  34.843  52.200  0.00  0.00     0.179 A 
ATOM     10  N   UNL d   1      49.230  35.148  52.958  0.00  0.00    -0.282 N 
ATOM     11  S   UNL d   1      48.510  35.124  51.840  0.00  0.00    -0.048 SA
ATOM     12  C   UNL d   1      49.923  34.860  53.309  0.00  0.00     0.101 A 
ATOM     13  C   UNL d   1      48.566  35.621  53.078  0.00  0.00     0.089 A 
ATOM     14  C   UNL d   1      48.123  35.602  52.381  0.00  0.00     0.057 A 
ENDBRANCH   1   7
BRANCH   4  15
ATOM     15  N   UNL d   1      53.150  32.726  53.090  0.00  0.00    -0.208 NA
ATOM     16  C   UNL d   1      53.664  32.908  53.713  0.00  0.00     0.279 C 
ATOM     17  O   UNL d   1      54.370  32.499  53.798  0.00  0.00    -0.265 OA
BRANCH  16  18
ATOM     18  C   UNL d   1      53.462  33.503  54.244  0.00  0.00     0.058 A 
ATOM     19  C   UNL d   1      53.969  33.677  54.876  0.00  0.00     0.005 A 
ATOM     20  C   UNL d   1      53.262  34.102  54.783  0.00  0.00     0.005 A 
ENDBRANCH  16  18
ENDBRANCH   4  15
TORSDOF 3
ENDMDL
MODEL 3
REMARK VINA RESULT:      -7.4      2.843      4.262
REMARK  3 active torsions:
REMARK  status: ('A' for Active; 'I' for Inactive)
REMARK    1  A    between atoms: C_12  and  C_4 
REMARK       I    between atoms: C_6  and  N_11 
REMARK    2  A    between atoms: C_7  and  C_6 
REMARK    3  A    between atoms: N_11  and  C_18 
ROOT
ATOM      1  C   UNL d   1      51.899  33.801  53.256  0.00  0.00     0.019 A 
ATOM      2  C   UNL d   1      51.934  34.356  52.646  0.00  0.00     0.003 A 
ATOM      3  C   UNL d   1      51.223  33.357  53.369  0.00  0.00     0.003 A 
ATOM      4  C   UNL d   1      50.608  34.019  52.260  0.00  0.00     0.085 A 
ATOM      5  C   UNL d   1      50.576  33.467  52.869  0.00  0.00     0.019 A 
ATOM      6  C   UNL d   1      51.293  34.463  52.153  0.00  0.00     0.019 A 
ENDROOT
BRANCH   1   7
ATOM      7  C   UNL d   1      52.550  33.690  53.760  0.00  0.00     0.101 A 
ATOM      8  N   UNL d   1      52.985  33.005  53.782  0.00  0.00    -0.221 NA
ATOM      9  C   UNL d   1      53.582  33.094  54.343  0.00  0.00     0.179 A 
ATOM     10  N   UNL d   1      53.518  33.840  54.671  0.00  0.00    -0.282 N 
ATOM     11  S   UNL d   1      54.222  32.711  54.698  0.00  0.00    -0.048 SA
ATOM     12  C   UNL d   1      52.874  34.214  54.308  0.00  0.00     0.101 A 
ATOM     13  C   UNL d   1      54.115  33.930  55.232  0.00  0.00     0.089 A 
ATOM     14  C   UNL d   1      54.549  33.227  55.244  0.00  0.00     0.057 A 
ENDBRANCH   1   7
BRANCH   4  15
ATOM     15  N   UNL d   1      49.957  34.130  51.757  0.00  0.00    -0.208 NA
ATOM     16  C   UNL d   1      49.329  34.613  51.996  0.00  0.00     0.279 C 
ATOM     17  O   UNL d   1      48.685  34.725  51.500  0.00  0.00    -0.265 OA
BRANCH  16  18
ATOM     18  C   UNL d   1      49.356  34.979  52.732  0.00  0.00     0.058 A 
ATOM     19  C   UNL d   1      48.738  35.481  52.962  0.00  0.00     0.005 A 
ATOM     20  C   UNL d   1      49.379  35.351  53.474  0.00  0.00     0.005 A 
ENDBRANCH  16  18
ENDBRANCH   4  15
TORSDOF 3
ENDMDL
MODEL 4
REMARK VINA RESULT:      -7.1      2.275      4.536
REMARK  3 active torsions:
REMARK  status: ('A' for Active; 'I' for Inactive)
REMARK    1  A    between atoms: C_12  and  C_4 
REMARK       I    between atoms: C_6  and  N_11 
REMARK    2  A    between atoms: C_7  and  C_6 
REMARK    3  A    between atoms: N_11  and  C_18 
ROOT
ATOM      1  C   UNL d   1      53.599  32.220  53.975  0.00  0.00     0.019 A 
ATOM      2  C   UNL d   1      53.485  32.525  54.733  0.00  0.00     0.003 A 
ATOM      3  C   UNL d   1      53.873  32.702  53.376  0.00  0.00     0.003 A 
ATOM      4  C   UNL d   1      53.924  33.802  54.289  0.00  0.00     0.085 A 
ATOM      5  C   UNL d   1      54.036  33.495  53.533  0.00  0.00     0.019 A 
ATOM      6  C   UNL d   1      53.647  33.310  54.888  0.00  0.00     0.019 A 
ENDROOT
BRANCH   1   7
ATOM      7  C   UNL d   1      53.435  31.422  53.814  0.00  0.00     0.101 A 
ATOM      8  N   UNL d   1      53.638  30.815  54.314  0.00  0.00    -0.221 NA
ATOM      9  C   UNL d   1      53.390  30.106  53.977  0.00  0.00     0.179 A 
ATOM     10  N   UNL d   1      53.030  30.272  53.262  0.00  0.00    -0.282 N 
ATOM     11  S   UNL d   1      53.369  29.288  54.090  0.00  0.00    -0.048 SA
ATOM     12  C   UNL d   1      53.057  31.094  53.159  0.00  0.00     0.101 A 
ATOM     13  C   UNL d   1      52.781  29.563  52.924  0.00  0.00     0.089 A 
ATOM     14  C   UNL d   1      52.994  28.956  53.442  0.00  0.00     0.057 A 
ENDBRANCH   1   7
BRANCH   4  15
ATOM     15  N   UNL d   1      54.088  34.599  54.449  0.00  0.00    -0.208 NA
ATOM     16  C   UNL d   1      53.518  35.178  54.287  0.00  0.00     0.279 C 
ATOM     17  O   UNL d   1      53.677  35.967  54.445  0.00  0.00    -0.265 OA
BRANCH  16  18
ATOM     18  C   UNL d   1      52.793  34.955  53.969  0.00  0.00     0.058 A 
ATOM     19  C   UNL d   1      52.191  35.519  53.889  0.00  0.00     0.005 A 
ATOM     20  C   UNL d   1      52.060  34.736  53.648  0.00  0.00     0.005 A 
ENDBRANCH  16  18
ENDBRANCH   4  15
TORSDOF 3
ENDMDL
