MODEL 1
REMARK VINA RESULT:      40.3      0.000      0.000
REMARK  5 active torsions:
REMARK  status: ('A' for Active; 'I' for Inactive)
REMARK    1  A    between atoms: C_2  and  S_1 
REMARK    2  A    between atoms: N_11  and  S_1 
REMARK    3  A    between atoms: N_3  and  C_17 
REMARK    4  A    between atoms: C_16  and  N_11 
REMARK    5  A    between atoms: C_17  and  C_16 
ROOT
ATOM      1  S   UNL d   1      13.187  12.796  -3.998  0.00  0.00     0.285 S 
ATOM      2  O   UNL d   1      12.838  12.337  -4.588  0.00  0.00    -0.198 OA
ATOM      3  O   UNL d   1      13.001  12.219  -3.434  0.00  0.00    -0.198 OA
ENDROOT
BRANCH   1   4
ATOM      4  C   UNL d   1      13.382  13.387  -4.550  0.00  0.00     0.105 A 
ATOM      5  C   UNL d   1      13.777  13.184  -5.245  0.00  0.00     0.012 A 
ATOM      6  C   UNL d   1      13.971  13.762  -5.792  0.00  0.00     0.001 A 
ATOM      7  C   UNL d   1      13.980  12.394  -5.396  0.00  0.00     0.001 C 
ATOM      8  C   UNL d   1      13.771  14.556  -5.648  0.00  0.00     0.000 A 
ATOM      9  C   UNL d   1      13.373  14.751  -4.945  0.00  0.00     0.001 A 
ATOM     10  C   UNL d   1      13.960  15.148  -6.189  0.00  0.00     0.000 C 
ATOM     11  C   UNL d   1      13.182  14.161  -4.401  0.00  0.00     0.012 A 
ATOM     12  C   UNL d   1      12.787  14.360  -3.706  0.00  0.00     0.001 C 
ENDBRANCH   1   4
BRANCH   1  13
ATOM     13  N   UNL d   1      13.473  13.084  -3.281  0.00  0.00    -0.155 NA
BRANCH  13  14
ATOM     14  C   UNL d   1      13.903  12.592  -2.777  0.00  0.00     0.131 C 
BRANCH  14  15
ATOM     15  C   UNL d   1      13.733  12.582  -1.971  0.00  0.00     0.102 C 
BRANCH  15  16
ATOM     16  N   UNL d   1      14.345  12.507  -1.422  0.00  0.00    -0.303 N 
ATOM     17  C   UNL d   1      14.707  11.799  -1.192  0.00  0.00     0.080 A 
ATOM     18  C   UNL d   1      15.288  11.976  -0.637  0.00  0.00     0.021 A 
ATOM     19  C   UNL d   1      15.292  12.793  -0.516  0.00  0.00     0.018 A 
ATOM     20  C   UNL d   1      14.710  13.123  -1.001  0.00  0.00     0.064 A 
ATOM     21  C   UNL d   1      15.742  13.286  -0.035  0.00  0.00     0.002 A 
ATOM     22  C   UNL d   1      14.577  13.935  -1.007  0.00  0.00     0.018 A 
ATOM     23  C   UNL d   1      15.028  14.427  -0.525  0.00  0.00     0.002 A 
ATOM     24  C   UNL d   1      15.619  14.108  -0.030  0.00  0.00     0.000 A 
ENDBRANCH  15  16
ENDBRANCH  14  15
ENDBRANCH  13  14
ENDBRANCH   1  13
TORSDOF 5
ENDMDL
