MODEL 1
REMARK VINA RESULT:      39.8      0.000      0.000
REMARK  4 active torsions:
REMARK  status: ('A' for Active; 'I' for Inactive)
REMARK    1  A    between atoms: C_7  and  C_3 
REMARK    2  A    between atoms: S_6  and  C_4 
REMARK    3  A    between atoms: C_9  and  S_6 
REMARK    4  A    between atoms: C_10  and  C_9 
ROOT
ATOM      1  O   UNL d   1      59.709  49.332  50.905  0.00  0.00    -0.263 OA
ATOM      2  N   UNL d   1      60.914  49.591  50.350  0.00  0.00    -0.120 NA
ATOM      3  C   UNL d   1      60.526  49.355  51.057  0.00  0.00     0.205 A 
ATOM      4  C   UNL d   1      59.585  49.551  50.112  0.00  0.00     0.236 A 
ATOM      5  N   UNL d   1      60.325  49.707  49.781  0.00  0.00    -0.114 NA
ENDROOT
BRANCH   4   6
ATOM      6  S   UNL d   1      58.860  49.602  49.732  0.00  0.00    -0.041 SA
BRANCH   6   7
ATOM      7  C   UNL d   1      58.154  49.702  50.171  0.00  0.00     0.039 C 
BRANCH   7   8
ATOM      8  C   UNL d   1      57.461  49.387  49.907  0.00  0.00     0.007 A 
ATOM      9  C   UNL d   1      57.239  49.467  49.114  0.00  0.00     0.001 A 
ATOM     10  C   UNL d   1      56.533  49.149  48.831  0.00  0.00     0.000 A 
ATOM     11  C   UNL d   1      56.036  48.741  49.351  0.00  0.00     0.000 A 
ATOM     12  C   UNL d   1      56.263  48.660  50.159  0.00  0.00     0.000 A 
ATOM     13  C   UNL d   1      56.962  48.978  50.427  0.00  0.00     0.001 A 
ENDBRANCH   7   8
ENDBRANCH   6   7
ENDBRANCH   4   6
BRANCH   3  14
ATOM     14  C   UNL d   1      60.933  49.188  51.749  0.00  0.00     0.046 A 
ATOM     15  C   UNL d   1      60.875  49.708  52.391  0.00  0.00     0.024 A 
ATOM     16  C   UNL d   1      61.280  49.544  53.087  0.00  0.00     0.099 A 
ATOM     17  N   UNL d   1      61.750  48.855  53.143  0.00  0.00    -0.242 NA
ATOM     18  C   UNL d   1      61.790  48.368  52.505  0.00  0.00     0.099 A 
ATOM     19  C   UNL d   1      61.387  48.521  51.803  0.00  0.00     0.024 A 
ENDBRANCH   3  14
TORSDOF 4
ENDMDL
MODEL 2
REMARK VINA RESULT:      41.5      1.604      4.346
REMARK  4 active torsions:
REMARK  status: ('A' for Active; 'I' for Inactive)
REMARK    1  A    between atoms: C_7  and  C_3 
REMARK    2  A    between atoms: S_6  and  C_4 
REMARK    3  A    between atoms: C_9  and  S_6 
REMARK    4  A    between atoms: C_10  and  C_9 
ROOT
ATOM      1  O   UNL d   1      59.019  49.596  50.098  0.00  0.00    -0.263 OA
ATOM      2  N   UNL d   1      58.376  49.669  51.286  0.00  0.00    -0.120 NA
ATOM      3  C   UNL d   1      58.268  49.600  50.455  0.00  0.00     0.205 A 
ATOM      4  C   UNL d   1      59.592  49.661  50.698  0.00  0.00     0.236 A 
ATOM      5  N   UNL d   1      59.192  49.704  51.419  0.00  0.00    -0.114 NA
ENDROOT
BRANCH   4   6
ATOM      6  S   UNL d   1      60.405  49.677  50.589  0.00  0.00    -0.041 SA
BRANCH   6   7
ATOM      7  C   UNL d   1      60.913  49.246  51.097  0.00  0.00     0.039 C 
BRANCH   7   8
ATOM      8  C   UNL d   1      61.016  48.454  50.995  0.00  0.00     0.007 A 
ATOM      9  C   UNL d   1      60.863  47.928  51.615  0.00  0.00     0.001 A 
ATOM     10  C   UNL d   1      60.964  47.114  51.523  0.00  0.00     0.000 A 
ATOM     11  C   UNL d   1      61.223  46.819  50.796  0.00  0.00     0.000 A 
ATOM     12  C   UNL d   1      61.378  47.355  50.164  0.00  0.00     0.000 A 
ATOM     13  C   UNL d   1      61.275  48.156  50.267  0.00  0.00     0.001 A 
ENDBRANCH   7   8
ENDBRANCH   6   7
ENDBRANCH   4   6
BRANCH   3  14
ATOM     14  C   UNL d   1      57.527  49.550  50.109  0.00  0.00     0.046 A 
ATOM     15  C   UNL d   1      57.443  49.706  49.299  0.00  0.00     0.024 A 
ATOM     16  C   UNL d   1      56.702  49.657  48.949  0.00  0.00     0.099 A 
ATOM     17  N   UNL d   1      56.035  49.451  49.410  0.00  0.00    -0.242 NA
ATOM     18  C   UNL d   1      56.144  49.305  50.193  0.00  0.00     0.099 A 
ATOM     19  C   UNL d   1      56.882  49.351  50.556  0.00  0.00     0.024 A 
ENDBRANCH   3  14
TORSDOF 4
ENDMDL
