MODEL 1
REMARK VINA RESULT:      41.8      0.000      0.000
REMARK  5 active torsions:
REMARK  status: ('A' for Active; 'I' for Inactive)
REMARK    1  A    between atoms: C_3  and  C_1 
REMARK    2  A    between atoms: N_8  and  C_3 
REMARK    3  A    between atoms: C_9  and  C_3 
REMARK    4  A    between atoms: C_17  and  C_7 
REMARK    5  A    between atoms: C_10  and  N_8 
ROOT
ATOM      1  C   UNL d   1      13.508  12.984  -3.042  0.00  0.00     0.109 C 
ENDROOT
BRANCH   1   2
ATOM      2  C   UNL d   1      13.902  12.817  -2.335  0.00  0.00     0.160 A 
ATOM      3  C   UNL d   1      13.539  12.376  -1.730  0.00  0.00     0.258 A 
ATOM      4  C   UNL d   1      13.965  12.222  -1.022  0.00  0.00     0.238 A 
ATOM      5  O   UNL d   1      12.778  12.097  -1.826  0.00  0.00    -0.281 OA
ATOM      6  O   UNL d   1      13.602  11.780  -0.417  0.00  0.00    -0.283 OA
ATOM      7  C   UNL d   1      14.726  12.501  -0.926  0.00  0.00     0.073 A 
ATOM      8  C   UNL d   1      15.089  12.942  -1.531  0.00  0.00     0.146 A 
ATOM      9  O   UNL d   1      14.686  13.099  -2.223  0.00  0.00    -0.299 OA
BRANCH   8  10
ATOM     10  C   UNL d   1      15.867  13.224  -1.424  0.00  0.00     0.259 C 
ATOM     11  O   UNL d   1      16.226  13.234  -0.663  0.00  0.00    -0.281 OA
ENDBRANCH   8  10
ENDBRANCH   1   2
BRANCH   1  12
ATOM     12  N   UNL d   1      13.121  12.392  -3.471  0.00  0.00    -0.225 NA
BRANCH  12  13
ATOM     13  C   UNL d   1      13.305  12.260  -4.253  0.00  0.00     0.163 A 
ATOM     14  N   UNL d   1      12.770  12.458  -4.849  0.00  0.00    -0.225 NA
ATOM     15  C   UNL d   1      12.965  12.321  -5.637  0.00  0.00     0.101 A 
ATOM     16  C   UNL d   1      13.691  11.988  -5.833  0.00  0.00     0.021 A 
ATOM     17  C   UNL d   1      14.240  11.784  -5.251  0.00  0.00     0.005 A 
ATOM     18  C   UNL d   1      14.051  11.918  -4.464  0.00  0.00     0.039 A 
ENDBRANCH  12  13
ENDBRANCH   1  12
BRANCH   1  19
ATOM     19  C   UNL d   1      13.504  13.771  -3.325  0.00  0.00     0.022 A 
ATOM     20  C   UNL d   1      14.098  14.297  -3.097  0.00  0.00     0.031 A 
ATOM     21  C   UNL d   1      14.087  15.068  -3.379  0.00  0.00     0.140 A 
ATOM     22  F   UNL d   1      14.685  15.605  -3.152  0.00  0.00    -0.204 F 
ATOM     23  C   UNL d   1      13.487  15.316  -3.888  0.00  0.00     0.030 A 
ATOM     24  C   UNL d   1      12.892  14.795  -4.119  0.00  0.00     0.002 A 
ATOM     25  C   UNL d   1      12.905  14.018  -3.833  0.00  0.00     0.002 A 
ENDBRANCH   1  19
TORSDOF 5
ENDMDL
