MODEL 1
REMARK VINA RESULT:      11.2      0.000      0.000
REMARK  3 active torsions:
REMARK  status: ('A' for Active; 'I' for Inactive)
REMARK    1  A    between atoms: N_2  and  C_1 
REMARK    2  A    between atoms: C_6  and  C_5 
REMARK       I    between atoms: N_13  and  C_6 
REMARK    3  A    between atoms: C_17  and  N_13 
ROOT
ATOM      1  C   UNL d   1      45.515 -16.035  44.521  0.00  0.00     0.285 C 
ATOM      2  N   UNL d   1      46.210 -16.334  44.113  0.00  0.00    -0.208 NA
ATOM      3  O   UNL d   1      44.952 -16.511  44.836  0.00  0.00    -0.265 OA
ENDROOT
BRANCH   2   4
ATOM      4  C   UNL d   1      46.272 -17.196  44.059  0.00  0.00     0.086 A 
ATOM      5  C   UNL d   1      46.337 -17.558  43.314  0.00  0.00     0.039 A 
ATOM      6  C   UNL d   1      46.396 -18.379  43.262  0.00  0.00     0.089 A 
ATOM      7  N   UNL d   1      46.465 -18.887  42.628  0.00  0.00    -0.238 NA
ATOM      8  C   UNL d   1      46.390 -18.838  43.956  0.00  0.00     0.049 A 
ATOM      9  C   UNL d   1      46.501 -19.644  42.908  0.00  0.00     0.111 A 
ATOM     10  C   UNL d   1      46.573 -20.330  42.451  0.00  0.00     0.028 C 
ATOM     11  S   UNL d   1      46.457 -19.623  43.705  0.00  0.00    -0.066 SA
ATOM     12  C   UNL d   1      46.326 -18.474  44.689  0.00  0.00     0.010 A 
ATOM     13  C   UNL d   1      46.267 -17.653  44.741  0.00  0.00     0.020 A 
ENDBRANCH   2   4
BRANCH   1  14
ATOM     14  C   UNL d   1      45.383 -15.234  44.614  0.00  0.00     0.089 A 
ATOM     15  S   UNL d   1      45.903 -14.660  44.378  0.00  0.00    -0.059 SA
ATOM     16  C   UNL d   1      45.536 -13.928  44.585  0.00  0.00     0.156 A 
ATOM     17  C   UNL d   1      44.839 -14.061  44.924  0.00  0.00     0.031 A 
ATOM     18  C   UNL d   1      44.717 -14.879  44.955  0.00  0.00     0.014 A 
BRANCH  16  19
ATOM     19  N   UNL d   1      45.832 -13.180  44.466  0.00  0.00    -0.107 N 
ATOM     20  O   UNL d   1      46.368 -12.772  44.954  0.00  0.00    -0.531 OA
ATOM     21  O   UNL d   1      45.635 -12.707  43.823  0.00  0.00    -0.531 OA
ENDBRANCH  16  19
ENDBRANCH   1  14
TORSDOF 3
ENDMDL
MODEL 2
REMARK VINA RESULT:      12.5      1.668      4.922
REMARK  3 active torsions:
REMARK  status: ('A' for Active; 'I' for Inactive)
REMARK    1  A    between atoms: N_2  and  C_1 
REMARK    2  A    between atoms: C_6  and  C_5 
REMARK       I    between atoms: N_13  and  C_6 
REMARK    3  A    between atoms: C_17  and  N_13 
ROOT
ATOM      1  C   UNL d   1      46.055 -17.244  44.077  0.00  0.00     0.285 C 
ATOM      2  N   UNL d   1      45.689 -16.642  43.586  0.00  0.00    -0.208 NA
ATOM      3  O   UNL d   1      46.251 -17.127  44.845  0.00  0.00    -0.265 OA
ENDROOT
BRANCH   2   4
ATOM      4  C   UNL d   1      45.538 -15.882  43.975  0.00  0.00     0.086 A 
ATOM      5  C   UNL d   1      45.955 -15.205  43.731  0.00  0.00     0.039 A 
ATOM      6  C   UNL d   1      45.811 -14.482  44.101  0.00  0.00     0.089 A 
ATOM      7  N   UNL d   1      46.123 -13.737  43.991  0.00  0.00    -0.238 NA
ATOM      8  C   UNL d   1      45.251 -14.436  44.714  0.00  0.00     0.049 A 
ATOM      9  C   UNL d   1      45.773 -13.232  44.516  0.00  0.00     0.111 A 
ATOM     10  C   UNL d   1      45.928 -12.423  44.592  0.00  0.00     0.028 C 
ATOM     11  S   UNL d   1      45.248 -13.645  44.955  0.00  0.00    -0.066 SA
ATOM     12  C   UNL d   1      44.843 -15.108  44.950  0.00  0.00     0.010 A 
ATOM     13  C   UNL d   1      44.987 -15.832  44.580  0.00  0.00     0.020 A 
ENDBRANCH   2   4
BRANCH   1  14
ATOM     14  C   UNL d   1      46.230 -17.987  43.785  0.00  0.00     0.089 A 
ATOM     15  S   UNL d   1      46.118 -18.208  43.014  0.00  0.00    -0.059 SA
ATOM     16  C   UNL d   1      46.373 -19.012  42.972  0.00  0.00     0.156 A 
ATOM     17  C   UNL d   1      46.622 -19.254  43.679  0.00  0.00     0.031 A 
ATOM     18  C   UNL d   1      46.542 -18.625  44.211  0.00  0.00     0.014 A 
BRANCH  16  19
ATOM     19  N   UNL d   1      46.375 -19.493  42.318  0.00  0.00    -0.107 N 
ATOM     20  O   UNL d   1      46.610 -19.285  41.546  0.00  0.00    -0.531 OA
ATOM     21  O   UNL d   1      46.136 -20.279  42.325  0.00  0.00    -0.531 OA
ENDBRANCH  16  19
ENDBRANCH   1  14
TORSDOF 3
ENDMDL
