MODEL 1
REMARK VINA RESULT:      17.8      0.000      0.000
REMARK  4 active torsions:
REMARK  status: ('A' for Active; 'I' for Inactive)
REMARK    1  A    between atoms: N_9  and  C_1 
REMARK    2  A    between atoms: C_5  and  O_12 
REMARK    3  A    between atoms: C_13  and  N_9 
REMARK    4  A    between atoms: O_12  and  C_17 
ROOT
ATOM      1  C   UNL d   1      13.425  12.335  -2.620  0.00  0.00     0.083 A 
ATOM      2  C   UNL d   1      13.166  12.311  -4.252  0.00  0.00     0.102 A 
ATOM      3  C   UNL d   1      13.828  12.875  -3.111  0.00  0.00     0.021 A 
ATOM      4  C   UNL d   1      12.898  11.789  -2.940  0.00  0.00     0.021 A 
ATOM      5  C   UNL d   1      13.697  12.860  -3.924  0.00  0.00     0.026 A 
ATOM      6  C   UNL d   1      12.770  11.779  -3.759  0.00  0.00     0.026 A 
ENDROOT
BRANCH   1   7
ATOM      7  N   UNL d   1      13.560  12.353  -1.800  0.00  0.00    -0.227 NA
BRANCH   7   8
ATOM      8  C   UNL d   1      14.334  12.350  -1.511  0.00  0.00     0.169 A 
ATOM      9  C   UNL d   1      14.569  12.906  -1.015  0.00  0.00     0.094 A 
ATOM     10  C   UNL d   1      15.309  12.897  -0.744  0.00  0.00     0.190 A 
ATOM     11  C   UNL d   1      14.315  14.030  -0.285  0.00  0.00     0.128 A 
ATOM     12  N   UNL d   1      15.539  13.459  -0.244  0.00  0.00    -0.128 NA
ATOM     13  N   UNL d   1      15.803  12.345  -0.963  0.00  0.00    -0.203 NA
ATOM     14  N   UNL d   1      15.054  14.021  -0.014  0.00  0.00    -0.145 NA
ATOM     15  C   UNL d   1      15.573  11.783  -1.462  0.00  0.00     0.202 A 
ATOM     16  N   UNL d   1      14.835  11.785  -1.738  0.00  0.00    -0.205 NA
ENDBRANCH   7   8
ENDBRANCH   1   7
BRANCH   2  17
ATOM     17  O   UNL d   1      13.034  12.296  -5.065  0.00  0.00    -0.253 OA
BRANCH  17  18
ATOM     18  C   UNL d   1      13.666  12.424  -5.582  0.00  0.00     0.530 C 
ATOM     19  F   UNL d   1      13.919  13.194  -5.752  0.00  0.00    -0.144 F 
ATOM     20  F   UNL d   1      14.044  11.780  -5.929  0.00  0.00    -0.144 F 
ATOM     21  F   UNL d   1      14.623  12.612  -6.365  0.00  0.00    -0.144 F 
ENDBRANCH  17  18
ENDBRANCH   2  17
TORSDOF 4
ENDMDL
MODEL 2
REMARK VINA RESULT:      19.6      3.024      4.411
REMARK  4 active torsions:
REMARK  status: ('A' for Active; 'I' for Inactive)
REMARK    1  A    between atoms: N_9  and  C_1 
REMARK    2  A    between atoms: C_5  and  O_12 
REMARK    3  A    between atoms: C_13  and  N_9 
REMARK    4  A    between atoms: O_12  and  C_17 
ROOT
ATOM      1  C   UNL d   1      13.400  11.835  -2.881  0.00  0.00     0.083 A 
ATOM      2  C   UNL d   1      14.120  11.868  -1.394  0.00  0.00     0.102 A 
ATOM      3  C   UNL d   1      14.229  11.901  -2.824  0.00  0.00     0.021 A 
ATOM      4  C   UNL d   1      12.935  11.786  -2.202  0.00  0.00     0.021 A 
ATOM      5  C   UNL d   1      14.585  11.917  -2.081  0.00  0.00     0.026 A 
ATOM      6  C   UNL d   1      13.299  11.803  -1.458  0.00  0.00     0.026 A 
ENDROOT
BRANCH   1   7
ATOM      7  N   UNL d   1      13.044  11.818  -3.632  0.00  0.00    -0.227 NA
BRANCH   7   8
ATOM      8  C   UNL d   1      13.024  12.504  -4.091  0.00  0.00     0.169 A 
ATOM      9  C   UNL d   1      13.238  12.479  -4.843  0.00  0.00     0.094 A 
ATOM     10  C   UNL d   1      13.216  13.138  -5.275  0.00  0.00     0.190 A 
ATOM     11  C   UNL d   1      13.687  11.782  -5.926  0.00  0.00     0.128 A 
ATOM     12  N   UNL d   1      13.432  13.105  -6.030  0.00  0.00    -0.128 NA
ATOM     13  N   UNL d   1      12.986  13.807  -4.964  0.00  0.00    -0.203 NA
ATOM     14  N   UNL d   1      13.665  12.441  -6.358  0.00  0.00    -0.145 NA
ATOM     15  C   UNL d   1      12.770  13.839  -4.208  0.00  0.00     0.202 A 
ATOM     16  N   UNL d   1      12.789  13.185  -3.770  0.00  0.00    -0.205 NA
ENDBRANCH   7   8
ENDBRANCH   1   7
BRANCH   2  17
ATOM     17  O   UNL d   1      14.476  11.884  -0.651  0.00  0.00    -0.253 OA
BRANCH  17  18
ATOM     18  C   UNL d   1      14.997  12.497  -0.462  0.00  0.00     0.530 C 
ATOM     19  F   UNL d   1      15.800  12.440  -0.656  0.00  0.00    -0.144 F 
ATOM     20  F   UNL d   1      14.712  13.168  -0.079  0.00  0.00    -0.144 F 
ATOM     21  F   UNL d   1      15.780  13.429  -0.174  0.00  0.00    -0.144 F 
ENDBRANCH  17  18
ENDBRANCH   2  17
TORSDOF 4
ENDMDL
MODEL 3
REMARK VINA RESULT:      19.7      2.967      4.343
REMARK  4 active torsions:
REMARK  status: ('A' for Active; 'I' for Inactive)
REMARK    1  A    between atoms: N_9  and  C_1 
REMARK    2  A    between atoms: C_5  and  O_12 
REMARK    3  A    between atoms: C_13  and  N_9 
REMARK    4  A    between atoms: O_12  and  C_17 
ROOT
ATOM      1  C   UNL d   1      15.202  13.344  -0.200  0.00  0.00     0.083 A 
ATOM      2  C   UNL d   1      15.537  14.962  -0.173  0.00  0.00     0.102 A 
ATOM      3  C   UNL d   1      14.595  13.889  -0.027  0.00  0.00     0.021 A 
ATOM      4  C   UNL d   1      15.968  13.604  -0.358  0.00  0.00     0.021 A 
ATOM      5  C   UNL d   1      14.765  14.696  -0.015  0.00  0.00     0.026 A 
ATOM      6  C   UNL d   1      16.133  14.416  -0.343  0.00  0.00     0.026 A 
ENDROOT
BRANCH   1   7
ATOM      7  N   UNL d   1      15.027  12.532  -0.212  0.00  0.00    -0.227 NA
BRANCH   7   8
ATOM      8  C   UNL d   1      14.300  12.273  -0.508  0.00  0.00     0.169 A 
ATOM      9  C   UNL d   1      14.209  12.156  -1.275  0.00  0.00     0.094 A 
ATOM     10  C   UNL d   1      13.513  11.908  -1.550  0.00  0.00     0.190 A 
ATOM     11  C   UNL d   1      14.710  12.163  -2.544  0.00  0.00     0.128 A 
ATOM     12  N   UNL d   1      13.429  11.792  -2.324  0.00  0.00    -0.128 NA
ATOM     13  N   UNL d   1      12.922  11.781  -1.070  0.00  0.00    -0.203 NA
ATOM     14  N   UNL d   1      14.014  11.916  -2.819  0.00  0.00    -0.145 NA
ATOM     15  C   UNL d   1      13.006  11.897  -0.297  0.00  0.00     0.202 A 
ATOM     16  N   UNL d   1      13.699  12.144  -0.015  0.00  0.00    -0.205 NA
ENDBRANCH   7   8
ENDBRANCH   1   7
BRANCH   2  17
ATOM     17  O   UNL d   1      15.707  15.768  -0.161  0.00  0.00    -0.253 OA
BRANCH  17  18
ATOM     18  C   UNL d   1      15.417  16.255  -0.762  0.00  0.00     0.530 C 
ATOM     19  F   UNL d   1      15.070  15.926  -1.438  0.00  0.00    -0.144 F 
ATOM     20  F   UNL d   1      15.474  17.073  -0.685  0.00  0.00    -0.144 F 
ATOM     21  F   UNL d   1      14.979  16.998  -1.668  0.00  0.00    -0.144 F 
ENDBRANCH  17  18
ENDBRANCH   2  17
TORSDOF 4
ENDMDL
