MODEL 1
REMARK VINA RESULT:      -3.1      0.000      0.000
REMARK  2 active torsions:
REMARK  status: ('A' for Active; 'I' for Inactive)
REMARK    1  A    between atoms: C_2  and  C_1 
REMARK    2  A    between atoms: C_6  and  C_2 
ROOT
ATOM      1  C   UNL d   1      31.082  16.555 -24.147  0.00  0.00     0.059 A 
ATOM      2  C   UNL d   1      30.832  15.951 -23.658  0.00  0.00     0.106 A 
ATOM      3  C   UNL d   1      30.545  17.060 -24.498  0.00  0.00     0.011 A 
ATOM      4  C   UNL d   1      30.040  15.844 -23.512  0.00  0.00     0.021 A 
ATOM      5  C   UNL d   1      29.720  16.955 -24.351  0.00  0.00     0.035 A 
ATOM      6  N   UNL d   1      31.392  15.453 -23.314  0.00  0.00    -0.148 N 
ATOM      7  C   UNL d   1      29.490  16.350 -23.862  0.00  0.00     0.008 A 
ATOM      8 BR   UNL d   1      29.177  17.455 -24.697  0.00  0.00    -0.049 Br
ENDROOT
BRANCH   1   9
ATOM      9  C   UNL d   1      31.894  16.660 -24.294  0.00  0.00     0.197 C 
ATOM     10  O   UNL d   1      32.375  16.092 -24.652  0.00  0.00    -0.286 OA
BRANCH   9  11
ATOM     11  C   UNL d   1      32.232  17.371 -24.068  0.00  0.00     0.039 A 
ATOM     12  C   UNL d   1      32.428  17.506 -23.288  0.00  0.00     0.003 A 
ATOM     13  C   UNL d   1      32.772  18.227 -23.055  0.00  0.00     0.000 A 
ATOM     14  C   UNL d   1      32.914  18.818 -23.633  0.00  0.00     0.000 A 
ATOM     15  C   UNL d   1      32.715  18.681 -24.427  0.00  0.00     0.000 A 
ATOM     16  C   UNL d   1      32.371  17.946 -24.632  0.00  0.00     0.003 A 
ENDBRANCH   9  11
ENDBRANCH   1   9
TORSDOF 2
ENDMDL
MODEL 2
REMARK VINA RESULT:      -2.7      0.795      1.025
REMARK  2 active torsions:
REMARK  status: ('A' for Active; 'I' for Inactive)
REMARK    1  A    between atoms: C_2  and  C_1 
REMARK    2  A    between atoms: C_6  and  C_2 
ROOT
ATOM      1  C   UNL d   1      30.223  16.553 -24.451  0.00  0.00     0.059 A 
ATOM      2  C   UNL d   1      29.754  16.148 -23.919  0.00  0.00     0.106 A 
ATOM      3  C   UNL d   1      29.937  17.206 -24.848  0.00  0.00     0.011 A 
ATOM      4  C   UNL d   1      28.993  16.393 -23.776  0.00  0.00     0.021 A 
ATOM      5  C   UNL d   1      29.146  17.467 -24.705  0.00  0.00     0.035 A 
ATOM      6  N   UNL d   1      30.064  15.490 -23.529  0.00  0.00    -0.148 N 
ATOM      7  C   UNL d   1      28.696  17.052 -24.172  0.00  0.00     0.008 A 
ATOM      8 BR   UNL d   1      28.853  18.119 -25.097  0.00  0.00    -0.049 Br
ENDROOT
BRANCH   1   9
ATOM      9  C   UNL d   1      31.002  16.299 -24.595  0.00  0.00     0.197 C 
ATOM     10  O   UNL d   1      31.196  15.550 -24.883  0.00  0.00    -0.286 OA
BRANCH   9  11
ATOM     11  C   UNL d   1      31.608  16.827 -24.440  0.00  0.00     0.039 A 
ATOM     12  C   UNL d   1      31.861  16.953 -23.675  0.00  0.00     0.003 A 
ATOM     13  C   UNL d   1      32.477  17.489 -23.514  0.00  0.00     0.000 A 
ATOM     14  C   UNL d   1      32.837  17.902 -24.150  0.00  0.00     0.000 A 
ATOM     15  C   UNL d   1      32.579  17.774 -24.929  0.00  0.00     0.000 A 
ATOM     16  C   UNL d   1      31.958  17.229 -25.060  0.00  0.00     0.003 A 
ENDBRANCH   9  11
ENDBRANCH   1   9
TORSDOF 2
ENDMDL
MODEL 3
REMARK VINA RESULT:      -1.8      1.171      2.756
REMARK  2 active torsions:
REMARK  status: ('A' for Active; 'I' for Inactive)
REMARK    1  A    between atoms: C_2  and  C_1 
REMARK    2  A    between atoms: C_6  and  C_2 
ROOT
ATOM      1  C   UNL d   1      31.715  16.707 -24.082  0.00  0.00     0.059 A 
ATOM      2  C   UNL d   1      32.209  16.270 -23.600  0.00  0.00     0.106 A 
ATOM      3  C   UNL d   1      31.799  17.517 -24.142  0.00  0.00     0.011 A 
ATOM      4  C   UNL d   1      32.793  16.636 -23.172  0.00  0.00     0.021 A 
ATOM      5  C   UNL d   1      32.405  17.906 -23.699  0.00  0.00     0.035 A 
ATOM      6  N   UNL d   1      32.105  15.452 -23.555  0.00  0.00    -0.148 N 
ATOM      7  C   UNL d   1      32.885  17.454 -23.226  0.00  0.00     0.008 A 
ATOM      8 BR   UNL d   1      32.496  18.714 -23.753  0.00  0.00    -0.049 Br
ENDROOT
BRANCH   1   9
ATOM      9  C   UNL d   1      31.118  16.328 -24.519  0.00  0.00     0.197 C 
ATOM     10  O   UNL d   1      31.264  15.756 -25.097  0.00  0.00    -0.286 OA
BRANCH   9  11
ATOM     11  C   UNL d   1      30.343  16.538 -24.365  0.00  0.00     0.039 A 
ATOM     12  C   UNL d   1      29.946  16.216 -23.728  0.00  0.00     0.003 A 
ATOM     13  C   UNL d   1      29.157  16.427 -23.568  0.00  0.00     0.000 A 
ATOM     14  C   UNL d   1      28.771  16.977 -24.070  0.00  0.00     0.000 A 
ATOM     15  C   UNL d   1      29.174  17.305 -24.718  0.00  0.00     0.000 A 
ATOM     16  C   UNL d   1      29.966  17.073 -24.854  0.00  0.00     0.003 A 
ENDBRANCH   9  11
ENDBRANCH   1   9
TORSDOF 2
ENDMDL
MODEL 4
REMARK VINA RESULT:      -1.1      2.155      3.610
REMARK  2 active torsions:
REMARK  status: ('A' for Active; 'I' for Inactive)
REMARK    1  A    between atoms: C_2  and  C_1 
REMARK    2  A    between atoms: C_6  and  C_2 
ROOT
ATOM      1  C   UNL d   1      33.007  19.144 -23.262  0.00  0.00     0.059 A 
ATOM      2  C   UNL d   1      33.061  19.562 -22.563  0.00  0.00     0.106 A 
ATOM      3  C   UNL d   1      33.064  19.524 -23.983  0.00  0.00     0.011 A 
ATOM      4  C   UNL d   1      33.175  20.366 -22.574  0.00  0.00     0.021 A 
ATOM      5  C   UNL d   1      33.182  20.360 -24.003  0.00  0.00     0.035 A 
ATOM      6  N   UNL d   1      33.000  19.157 -21.847  0.00  0.00    -0.148 N 
ATOM      7  C   UNL d   1      33.234  20.758 -23.298  0.00  0.00     0.008 A 
ATOM      8 BR   UNL d   1      33.241  20.748 -24.718  0.00  0.00    -0.049 Br
ENDROOT
BRANCH   1   9
ATOM      9  C   UNL d   1      32.891  18.321 -23.246  0.00  0.00     0.197 C 
ATOM     10  O   UNL d   1      33.222  17.820 -22.679  0.00  0.00    -0.286 OA
BRANCH   9  11
ATOM     11  C   UNL d   1      32.420  17.992 -23.829  0.00  0.00     0.039 A 
ATOM     12  C   UNL d   1      32.755  17.676 -24.503  0.00  0.00     0.003 A 
ATOM     13  C   UNL d   1      32.279  17.341 -25.097  0.00  0.00     0.000 A 
ATOM     14  C   UNL d   1      31.446  17.330 -24.997  0.00  0.00     0.000 A 
ATOM     15  C   UNL d   1      31.104  17.651 -24.312  0.00  0.00     0.000 A 
ATOM     16  C   UNL d   1      31.608  17.982 -23.731  0.00  0.00     0.003 A 
ENDBRANCH   9  11
ENDBRANCH   1   9
TORSDOF 2
ENDMDL
MODEL 5
REMARK VINA RESULT:      -0.1      5.508      6.850
REMARK  2 active torsions:
REMARK  status: ('A' for Active; 'I' for Inactive)
REMARK    1  A    between atoms: C_2  and  C_1 
REMARK    2  A    between atoms: C_6  and  C_2 
ROOT
ATOM      1  C   UNL d   1      32.667  22.966 -20.748  0.00  0.00     0.059 A 
ATOM      2  C   UNL d   1      31.997  23.429 -20.696  0.00  0.00     0.106 A 
ATOM      3  C   UNL d   1      33.086  22.759 -20.079  0.00  0.00     0.011 A 
ATOM      4  C   UNL d   1      31.737  23.693 -19.973  0.00  0.00     0.021 A 
ATOM      5  C   UNL d   1      32.823  23.029 -19.323  0.00  0.00     0.035 A 
ATOM      6  N   UNL d   1      31.589  23.626 -21.385  0.00  0.00    -0.148 N 
ATOM      7  C   UNL d   1      32.155  23.488 -19.291  0.00  0.00     0.008 A 
ATOM      8 BR   UNL d   1      33.236  22.827 -18.650  0.00  0.00    -0.049 Br
ENDROOT
BRANCH   1   9
ATOM      9  C   UNL d   1      32.929  22.698 -21.491  0.00  0.00     0.197 C 
ATOM     10  O   UNL d   1      33.241  23.192 -22.075  0.00  0.00    -0.286 OA
BRANCH   9  11
ATOM     11  C   UNL d   1      32.874  21.896 -21.647  0.00  0.00     0.039 A 
ATOM     12  C   UNL d   1      33.241  21.354 -21.160  0.00  0.00     0.003 A 
ATOM     13  C   UNL d   1      33.186  20.538 -21.316  0.00  0.00     0.000 A 
ATOM     14  C   UNL d   1      32.748  20.277 -21.983  0.00  0.00     0.000 A 
ATOM     15  C   UNL d   1      32.375  20.829 -22.478  0.00  0.00     0.000 A 
ATOM     16  C   UNL d   1      32.447  21.643 -22.296  0.00  0.00     0.003 A 
ENDBRANCH   9  11
ENDBRANCH   1   9
TORSDOF 2
ENDMDL
