MODEL 1
REMARK VINA RESULT:      -8.3      0.000      0.000
REMARK  1 active torsions:
REMARK  status: ('A' for Active; 'I' for Inactive)
REMARK    1  A    between atoms: C_7  and  C_2 
ROOT
ATOM      1  N   UNL d   1     -49.022  14.282  22.885  0.00  0.00    -0.147 NA
ATOM      2  C   UNL d   1     -48.650  13.552  22.951  0.00  0.00     0.103 A 
ATOM      3  N   UNL d   1     -49.816  14.346  23.069  0.00  0.00    -0.137 NA
ATOM      4  C   UNL d   1     -49.064  12.881  23.200  0.00  0.00     0.022 A 
ATOM      5  C   UNL d   1     -50.235  13.682  23.319  0.00  0.00     0.157 A 
ATOM      6  C   UNL d   1     -49.857  12.946  23.384  0.00  0.00     0.031 A 
ATOM      7  S   UNL d   1     -51.060  13.749  23.510  0.00  0.00    -0.056 SA
ATOM      8  C   UNL d   1     -48.691  12.147  23.266  0.00  0.00     0.002 A 
ATOM      9  C   UNL d   1     -50.277  12.276  23.634  0.00  0.00     0.002 A 
ATOM     10  C   UNL d   1     -49.105  11.487  23.513  0.00  0.00     0.000 A 
ATOM     11  C   UNL d   1     -49.898  11.551  23.698  0.00  0.00     0.000 A 
ENDROOT
BRANCH   2  12
ATOM     12  C   UNL d   1     -47.825  13.485  22.759  0.00  0.00     0.019 A 
ATOM     13  C   UNL d   1     -47.598  13.239  22.000  0.00  0.00     0.002 A 
ATOM     14  C   UNL d   1     -46.800  13.174  21.814  0.00  0.00     0.000 A 
ATOM     15  C   UNL d   1     -46.229  13.355  22.389  0.00  0.00     0.000 A 
ATOM     16  C   UNL d   1     -46.457  13.599  23.143  0.00  0.00     0.000 A 
ATOM     17  C   UNL d   1     -45.415  13.288  22.200  0.00  0.00     0.000 C 
ATOM     18  C   UNL d   1     -47.255  13.664  23.328  0.00  0.00     0.002 A 
ENDBRANCH   2  12
TORSDOF 1
ENDMDL
MODEL 2
REMARK VINA RESULT:      -8.3      1.766      3.125
REMARK  1 active torsions:
REMARK  status: ('A' for Active; 'I' for Inactive)
REMARK    1  A    between atoms: C_7  and  C_2 
ROOT
ATOM      1  N   UNL d   1     -47.394  14.160  22.534  0.00  0.00    -0.147 NA
ATOM      2  C   UNL d   1     -48.057  13.743  22.782  0.00  0.00     0.103 A 
ATOM      3  N   UNL d   1     -46.656  13.814  22.590  0.00  0.00    -0.137 NA
ATOM      4  C   UNL d   1     -47.991  12.978  23.088  0.00  0.00     0.022 A 
ATOM      5  C   UNL d   1     -46.582  13.050  22.893  0.00  0.00     0.157 A 
ATOM      6  C   UNL d   1     -47.253  12.631  23.143  0.00  0.00     0.031 A 
ATOM      7  S   UNL d   1     -45.816  12.690  22.951  0.00  0.00    -0.056 SA
ATOM      8  C   UNL d   1     -48.656  12.556  23.337  0.00  0.00     0.002 A 
ATOM      9  C   UNL d   1     -47.182  11.863  23.448  0.00  0.00     0.002 A 
ATOM     10  C   UNL d   1     -48.586  11.800  23.638  0.00  0.00     0.000 A 
ATOM     11  C   UNL d   1     -47.848  11.453  23.694  0.00  0.00     0.000 A 
ENDROOT
BRANCH   2  12
ATOM     12  C   UNL d   1     -48.823  14.104  22.725  0.00  0.00     0.019 A 
ATOM     13  C   UNL d   1     -49.092  14.598  23.334  0.00  0.00     0.002 A 
ATOM     14  C   UNL d   1     -49.834  14.947  23.279  0.00  0.00     0.000 A 
ATOM     15  C   UNL d   1     -50.308  14.801  22.613  0.00  0.00     0.000 A 
ATOM     16  C   UNL d   1     -50.039  14.309  22.009  0.00  0.00     0.000 A 
ATOM     17  C   UNL d   1     -51.064  15.157  22.556  0.00  0.00     0.000 C 
ATOM     18  C   UNL d   1     -49.296  13.960  22.064  0.00  0.00     0.002 A 
ENDBRANCH   2  12
TORSDOF 1
ENDMDL
MODEL 3
REMARK VINA RESULT:      -8.3      0.966      1.847
REMARK  1 active torsions:
REMARK  status: ('A' for Active; 'I' for Inactive)
REMARK    1  A    between atoms: C_7  and  C_2 
ROOT
ATOM      1  N   UNL d   1     -49.000  12.572  23.252  0.00  0.00    -0.147 NA
ATOM      2  C   UNL d   1     -48.648  13.279  23.026  0.00  0.00     0.103 A 
ATOM      3  N   UNL d   1     -49.795  12.560  23.440  0.00  0.00    -0.137 NA
ATOM      4  C   UNL d   1     -49.085  13.980  22.984  0.00  0.00     0.022 A 
ATOM      5  C   UNL d   1     -50.237  13.255  23.401  0.00  0.00     0.157 A 
ATOM      6  C   UNL d   1     -49.880  13.968  23.172  0.00  0.00     0.031 A 
ATOM      7  S   UNL d   1     -51.064  13.242  23.595  0.00  0.00    -0.056 SA
ATOM      8  C   UNL d   1     -48.734  14.693  22.757  0.00  0.00     0.002 A 
ATOM      9  C   UNL d   1     -50.323  14.668  23.132  0.00  0.00     0.002 A 
ATOM     10  C   UNL d   1     -49.170  15.383  22.717  0.00  0.00     0.000 A 
ATOM     11  C   UNL d   1     -49.965  15.370  22.905  0.00  0.00     0.000 A 
ENDROOT
BRANCH   2  12
ATOM     12  C   UNL d   1     -47.822  13.292  22.831  0.00  0.00     0.019 A 
ATOM     13  C   UNL d   1     -47.262  13.450  23.423  0.00  0.00     0.002 A 
ATOM     14  C   UNL d   1     -46.462  13.463  23.235  0.00  0.00     0.000 A 
ATOM     15  C   UNL d   1     -46.222  13.317  22.454  0.00  0.00     0.000 A 
ATOM     16  C   UNL d   1     -46.780  13.161  21.867  0.00  0.00     0.000 A 
ATOM     17  C   UNL d   1     -45.406  13.330  22.261  0.00  0.00     0.000 C 
ATOM     18  C   UNL d   1     -47.580  13.148  22.056  0.00  0.00     0.002 A 
ENDBRANCH   2  12
TORSDOF 1
ENDMDL
MODEL 4
REMARK VINA RESULT:      -6.2      1.977      3.447
REMARK  1 active torsions:
REMARK  status: ('A' for Active; 'I' for Inactive)
REMARK    1  A    between atoms: C_7  and  C_2 
ROOT
ATOM      1  N   UNL d   1     -48.413  11.434  23.035  0.00  0.00    -0.147 NA
ATOM      2  C   UNL d   1     -48.363  12.229  22.836  0.00  0.00     0.103 A 
ATOM      3  N   UNL d   1     -47.751  11.048  23.319  0.00  0.00    -0.137 NA
ATOM      4  C   UNL d   1     -47.655  12.647  22.917  0.00  0.00     0.022 A 
ATOM      5  C   UNL d   1     -47.040  11.458  23.403  0.00  0.00     0.157 A 
ATOM      6  C   UNL d   1     -46.993  12.262  23.201  0.00  0.00     0.031 A 
ATOM      7  S   UNL d   1     -46.353  11.057  23.698  0.00  0.00    -0.056 SA
ATOM      8  C   UNL d   1     -47.603  13.447  22.716  0.00  0.00     0.002 A 
ATOM      9  C   UNL d   1     -46.280  12.676  23.284  0.00  0.00     0.002 A 
ATOM     10  C   UNL d   1     -46.900  13.856  22.798  0.00  0.00     0.000 A 
ATOM     11  C   UNL d   1     -46.238  13.470  23.082  0.00  0.00     0.000 A 
ENDROOT
BRANCH   2  12
ATOM     12  C   UNL d   1     -49.051  12.630  22.541  0.00  0.00     0.019 A 
ATOM     13  C   UNL d   1     -49.206  12.635  21.725  0.00  0.00     0.002 A 
ATOM     14  C   UNL d   1     -49.872  13.023  21.439  0.00  0.00     0.000 A 
ATOM     15  C   UNL d   1     -50.383  13.406  21.969  0.00  0.00     0.000 A 
ATOM     16  C   UNL d   1     -50.227  13.399  22.779  0.00  0.00     0.000 A 
ATOM     17  C   UNL d   1     -51.062  13.802  21.678  0.00  0.00     0.000 C 
ATOM     18  C   UNL d   1     -49.561  13.011  23.065  0.00  0.00     0.002 A 
ENDBRANCH   2  12
TORSDOF 1
ENDMDL
