MODEL 1
REMARK VINA RESULT:      11.2      0.000      0.000
REMARK  2 active torsions:
REMARK  status: ('A' for Active; 'I' for Inactive)
REMARK    1  A    between atoms: N_6  and  C_4 
REMARK    2  A    between atoms: C_9  and  N_6 
ROOT
ATOM      1  S   UNL d   1      46.101 -14.674  37.005  0.00  0.00     0.216 S 
ATOM      2  C   UNL d   1      45.589 -14.954  36.420  0.00  0.00     0.121 A 
ATOM      3  C   UNL d   1      46.047 -15.181  37.635  0.00  0.00     0.142 A 
ATOM      4  C   UNL d   1      45.217 -15.639  36.690  0.00  0.00     0.132 A 
ATOM      5  C   UNL d   1      45.505 -15.774  37.446  0.00  0.00     0.225 A 
ATOM      6  O   UNL d   1      46.147 -14.159  36.349  0.00  0.00    -0.217 OA
ATOM      7  O   UNL d   1      46.647 -14.242  37.436  0.00  0.00    -0.217 OA
ATOM      8  O   UNL d   1      45.297 -16.407  37.960  0.00  0.00    -0.284 OA
ENDROOT
BRANCH   4   9
ATOM      9  N   UNL d   1      44.674 -16.145  36.374  0.00  0.00    -0.242 NA
BRANCH   9  10
ATOM     10  C   UNL d   1      43.876 -15.968  36.363  0.00  0.00     0.082 A 
ATOM     11  C   UNL d   1      43.338 -16.568  36.341  0.00  0.00     0.020 A 
ATOM     12  C   UNL d   1      42.515 -16.381  36.331  0.00  0.00     0.013 A 
ATOM     13  C   UNL d   1      42.276 -15.601  36.342  0.00  0.00     0.058 A 
ATOM     14  C   UNL d   1      42.813 -14.985  36.364  0.00  0.00     0.013 A 
ATOM     15 CL   UNL d   1      41.452 -15.426  36.331  0.00  0.00    -0.082 Cl
ATOM     16  C   UNL d   1      43.622 -15.176  36.375  0.00  0.00     0.020 A 
ENDBRANCH   9  10
ENDBRANCH   4   9
TORSDOF 2
ENDMDL
MODEL 2
REMARK VINA RESULT:      13.5      7.390      7.992
REMARK  2 active torsions:
REMARK  status: ('A' for Active; 'I' for Inactive)
REMARK    1  A    between atoms: N_6  and  C_4 
REMARK    2  A    between atoms: C_9  and  N_6 
ROOT
ATOM      1  S   UNL d   1      45.805 -13.834  44.079  0.00  0.00     0.216 S 
ATOM      2  C   UNL d   1      46.069 -14.591  44.282  0.00  0.00     0.121 A 
ATOM      3  C   UNL d   1      45.029 -13.782  44.305  0.00  0.00     0.142 A 
ATOM      4  C   UNL d   1      45.451 -15.008  44.636  0.00  0.00     0.132 A 
ATOM      5  C   UNL d   1      44.808 -14.500  44.647  0.00  0.00     0.225 A 
ATOM      6  O   UNL d   1      46.605 -13.902  43.851  0.00  0.00    -0.217 OA
ATOM      7  O   UNL d   1      45.748 -13.065  43.806  0.00  0.00    -0.217 OA
ATOM      8  O   UNL d   1      44.041 -14.663  44.952  0.00  0.00    -0.284 OA
ENDROOT
BRANCH   4   9
ATOM      9  N   UNL d   1      45.378 -15.751  44.940  0.00  0.00    -0.242 NA
BRANCH   9  10
ATOM     10  C   UNL d   1      45.646 -16.410  44.536  0.00  0.00     0.082 A 
ATOM     11  C   UNL d   1      45.659 -16.402  43.730  0.00  0.00     0.020 A 
ATOM     12  C   UNL d   1      45.936 -17.084  43.318  0.00  0.00     0.013 A 
ATOM     13  C   UNL d   1      46.186 -17.738  43.737  0.00  0.00     0.058 A 
ATOM     14  C   UNL d   1      46.178 -17.756  44.553  0.00  0.00     0.013 A 
ATOM     15 CL   UNL d   1      46.461 -18.413  43.314  0.00  0.00    -0.082 Cl
ATOM     16  C   UNL d   1      45.904 -17.082  44.955  0.00  0.00     0.020 A 
ENDBRANCH   9  10
ENDBRANCH   4   9
TORSDOF 2
ENDMDL
