MODEL 1
REMARK VINA RESULT:     -11.0      0.000      0.000
REMARK  0 active torsions:
REMARK  status: ('A' for Active; 'I' for Inactive)
ROOT
ATOM      1  C   UNL d   1      53.303  32.469  53.679  0.00  0.00     0.166 A 
ATOM      2  C   UNL d   1      52.653  32.418  53.176  0.00  0.00     0.117 A 
ATOM      3  N   UNL d   1      53.410  33.273  53.840  0.00  0.00    -0.288 N 
ATOM      4  C   UNL d   1      52.370  33.160  53.033  0.00  0.00     0.038 A 
ATOM      5  N   UNL d   1      53.712  31.791  53.924  0.00  0.00    -0.225 NA
ATOM      6  C   UNL d   1      52.843  33.694  53.447  0.00  0.00     0.067 A 
ATOM      7  N   UNL d   1      52.428  31.667  52.930  0.00  0.00    -0.241 NA
ATOM      8  C   UNL d   1      53.469  31.059  53.666  0.00  0.00     0.101 A 
ATOM      9  C   UNL d   1      52.822  31.010  53.166  0.00  0.00     0.099 A 
ATOM     10  C   UNL d   1      52.685  34.502  53.406  0.00  0.00     0.018 A 
ATOM     11  C   UNL d   1      51.739  33.434  52.577  0.00  0.00     0.015 A 
ATOM     12  C   UNL d   1      51.582  34.242  52.537  0.00  0.00     0.058 A 
ATOM     13  C   UNL d   1      53.991  33.582  54.315  0.00  0.00     0.101 C 
ATOM     14  C   UNL d   1      52.054  34.777  52.951  0.00  0.00     0.013 A 
ATOM     15 CL   UNL d   1      50.950  34.517  52.081  0.00  0.00    -0.082 Cl
ATOM     16  C   UNL d   1      53.864  30.400  53.903  0.00  0.00     0.021 A 
ATOM     17  C   UNL d   1      52.579  30.277  52.908  0.00  0.00     0.021 A 
ATOM     18  C   UNL d   1      52.970  29.580  53.138  0.00  0.00     0.002 A 
ATOM     19  C   UNL d   1      53.606  29.657  53.633  0.00  0.00     0.002 A 
ENDROOT
TORSDOF 0
ENDMDL
MODEL 2
REMARK VINA RESULT:     -10.7      1.416      2.222
REMARK  0 active torsions:
REMARK  status: ('A' for Active; 'I' for Inactive)
ROOT
ATOM      1  C   UNL d   1      52.978  32.371  53.468  0.00  0.00     0.166 A 
ATOM      2  C   UNL d   1      53.602  32.203  53.978  0.00  0.00     0.117 A 
ATOM      3  N   UNL d   1      52.882  33.192  53.479  0.00  0.00    -0.288 N 
ATOM      4  C   UNL d   1      53.880  32.893  54.292  0.00  0.00     0.038 A 
ATOM      5  N   UNL d   1      52.580  31.768  53.061  0.00  0.00    -0.225 NA
ATOM      6  C   UNL d   1      53.430  33.510  53.981  0.00  0.00     0.067 A 
ATOM      7  N   UNL d   1      53.812  31.414  54.067  0.00  0.00    -0.241 NA
ATOM      8  C   UNL d   1      52.808  30.993  53.167  0.00  0.00     0.101 A 
ATOM      9  C   UNL d   1      53.429  30.829  53.675  0.00  0.00     0.099 A 
ATOM     10  C   UNL d   1      53.588  34.288  54.204  0.00  0.00     0.018 A 
ATOM     11  C   UNL d   1      54.488  33.053  54.827  0.00  0.00     0.015 A 
ATOM     12  C   UNL d   1      54.645  33.831  55.049  0.00  0.00     0.058 A 
ATOM     13  C   UNL d   1      52.327  33.604  53.055  0.00  0.00     0.101 C 
ATOM     14  C   UNL d   1      54.196  34.449  54.737  0.00  0.00     0.013 A 
ATOM     15 CL   UNL d   1      55.254  33.992  55.583  0.00  0.00    -0.082 Cl
ATOM     16  C   UNL d   1      52.424  30.407  52.774  0.00  0.00     0.021 A 
ATOM     17  C   UNL d   1      53.657  30.054  53.780  0.00  0.00     0.021 A 
ATOM     18  C   UNL d   1      53.275  29.429  53.385  0.00  0.00     0.002 A 
ATOM     19  C   UNL d   1      52.665  29.620  52.889  0.00  0.00     0.002 A 
ENDROOT
TORSDOF 0
ENDMDL
MODEL 3
REMARK VINA RESULT:     -10.4      1.451      3.472
REMARK  0 active torsions:
REMARK  status: ('A' for Active; 'I' for Inactive)
ROOT
ATOM      1  C   UNL d   1      53.134  32.779  53.363  0.00  0.00     0.166 A 
ATOM      2  C   UNL d   1      52.545  32.224  53.214  0.00  0.00     0.117 A 
ATOM      3  N   UNL d   1      53.824  32.351  53.515  0.00  0.00    -0.288 N 
ATOM      4  C   UNL d   1      52.858  31.483  53.272  0.00  0.00     0.038 A 
ATOM      5  N   UNL d   1      52.974  33.592  53.341  0.00  0.00    -0.225 NA
ATOM      6  C   UNL d   1      53.657  31.562  53.461  0.00  0.00     0.067 A 
ATOM      7  N   UNL d   1      51.793  32.511  53.044  0.00  0.00    -0.241 NA
ATOM      8  C   UNL d   1      52.221  33.850  53.171  0.00  0.00     0.101 A 
ATOM      9  C   UNL d   1      51.637  33.297  53.023  0.00  0.00     0.099 A 
ATOM     10  C   UNL d   1      54.126  30.891  53.557  0.00  0.00     0.018 A 
ATOM     11  C   UNL d   1      52.528  30.732  53.180  0.00  0.00     0.015 A 
ATOM     12  C   UNL d   1      52.998  30.061  53.277  0.00  0.00     0.058 A 
ATOM     13  C   UNL d   1      54.547  32.675  53.691  0.00  0.00     0.101 C 
ATOM     14  C   UNL d   1      53.797  30.141  53.465  0.00  0.00     0.013 A 
ATOM     15 CL   UNL d   1      52.668  29.310  53.185  0.00  0.00    -0.082 Cl
ATOM     16  C   UNL d   1      52.064  34.639  53.150  0.00  0.00     0.021 A 
ATOM     17  C   UNL d   1      50.884  33.555  52.852  0.00  0.00     0.021 A 
ATOM     18  C   UNL d   1      50.695  34.365  52.824  0.00  0.00     0.002 A 
ATOM     19  C   UNL d   1      51.292  34.891  52.974  0.00  0.00     0.002 A 
ENDROOT
TORSDOF 0
ENDMDL
MODEL 4
REMARK VINA RESULT:     -10.3      1.764      3.691
REMARK  0 active torsions:
REMARK  status: ('A' for Active; 'I' for Inactive)
ROOT
ATOM      1  C   UNL d   1      53.189  32.460  53.591  0.00  0.00     0.166 A 
ATOM      2  C   UNL d   1      53.591  31.907  54.050  0.00  0.00     0.117 A 
ATOM      3  N   UNL d   1      52.716  32.028  53.067  0.00  0.00    -0.288 N 
ATOM      4  C   UNL d   1      53.375  31.164  53.820  0.00  0.00     0.038 A 
ATOM      5  N   UNL d   1      53.300  33.274  53.701  0.00  0.00    -0.225 NA
ATOM      6  C   UNL d   1      52.829  31.240  53.206  0.00  0.00     0.067 A 
ATOM      7  N   UNL d   1      54.105  32.197  54.622  0.00  0.00    -0.241 NA
ATOM      8  C   UNL d   1      53.815  33.535  54.275  0.00  0.00     0.101 A 
ATOM      9  C   UNL d   1      54.213  32.984  54.731  0.00  0.00     0.099 A 
ATOM     10  C   UNL d   1      52.507  30.567  52.856  0.00  0.00     0.018 A 
ATOM     11  C   UNL d   1      53.599  30.415  54.083  0.00  0.00     0.015 A 
ATOM     12  C   UNL d   1      53.276  29.742  53.732  0.00  0.00     0.058 A 
ATOM     13  C   UNL d   1      52.223  32.349  52.509  0.00  0.00     0.101 C 
ATOM     14  C   UNL d   1      52.730  29.818  53.119  0.00  0.00     0.013 A 
ATOM     15 CL   UNL d   1      53.500  28.993  53.996  0.00  0.00    -0.082 Cl
ATOM     16  C   UNL d   1      53.924  34.324  54.384  0.00  0.00     0.021 A 
ATOM     17  C   UNL d   1      54.729  33.246  55.304  0.00  0.00     0.021 A 
ATOM     18  C   UNL d   1      54.859  34.057  55.438  0.00  0.00     0.002 A 
ATOM     19  C   UNL d   1      54.452  34.580  54.973  0.00  0.00     0.002 A 
ENDROOT
TORSDOF 0
ENDMDL
MODEL 5
REMARK VINA RESULT:      -9.6      1.615      3.558
REMARK  0 active torsions:
REMARK  status: ('A' for Active; 'I' for Inactive)
ROOT
ATOM      1  C   UNL d   1      52.418  32.875  53.240  0.00  0.00     0.166 A 
ATOM      2  C   UNL d   1      52.646  33.521  53.695  0.00  0.00     0.117 A 
ATOM      3  N   UNL d   1      53.022  32.316  53.308  0.00  0.00    -0.288 N 
ATOM      4  C   UNL d   1      53.364  33.367  54.032  0.00  0.00     0.038 A 
ATOM      5  N   UNL d   1      51.700  32.874  52.825  0.00  0.00    -0.225 NA
ATOM      6  C   UNL d   1      53.598  32.614  53.790  0.00  0.00     0.067 A 
ATOM      7  N   UNL d   1      52.133  34.163  53.721  0.00  0.00    -0.241 NA
ATOM      8  C   UNL d   1      51.209  33.522  52.867  0.00  0.00     0.101 A 
ATOM      9  C   UNL d   1      51.438  34.163  53.321  0.00  0.00     0.099 A 
ATOM     10  C   UNL d   1      54.317  32.304  54.049  0.00  0.00     0.018 A 
ATOM     11  C   UNL d   1      53.847  33.810  54.533  0.00  0.00     0.015 A 
ATOM     12  C   UNL d   1      54.566  33.498  54.791  0.00  0.00     0.058 A 
ATOM     13  C   UNL d   1      53.030  31.589  52.948  0.00  0.00     0.101 C 
ATOM     14  C   UNL d   1      54.801  32.746  54.549  0.00  0.00     0.013 A 
ATOM     15 CL   UNL d   1      55.050  33.941  55.293  0.00  0.00    -0.082 Cl
ATOM     16  C   UNL d   1      50.513  33.523  52.465  0.00  0.00     0.021 A 
ATOM     17  C   UNL d   1      50.948  34.812  53.363  0.00  0.00     0.021 A 
ATOM     18  C   UNL d   1      50.222  34.838  52.957  0.00  0.00     0.002 A 
ATOM     19  C   UNL d   1      50.020  34.190  52.516  0.00  0.00     0.002 A 
ENDROOT
TORSDOF 0
ENDMDL
MODEL 6
REMARK VINA RESULT:      -9.2      1.280      2.707
REMARK  0 active torsions:
REMARK  status: ('A' for Active; 'I' for Inactive)
ROOT
ATOM      1  C   UNL d   1      52.888  32.947  53.615  0.00  0.00     0.166 A 
ATOM      2  C   UNL d   1      52.564  33.685  53.781  0.00  0.00     0.117 A 
ATOM      3  N   UNL d   1      52.348  32.561  53.122  0.00  0.00    -0.288 N 
ATOM      4  C   UNL d   1      51.853  33.753  53.405  0.00  0.00     0.038 A 
ATOM      5  N   UNL d   1      53.621  32.719  53.927  0.00  0.00    -0.225 NA
ATOM      6  C   UNL d   1      51.718  33.051  52.993  0.00  0.00     0.067 A 
ATOM      7  N   UNL d   1      52.998  34.185  54.269  0.00  0.00    -0.241 NA
ATOM      8  C   UNL d   1      54.031  33.232  54.408  0.00  0.00     0.101 A 
ATOM      9  C   UNL d   1      53.708  33.966  54.572  0.00  0.00     0.099 A 
ATOM     10  C   UNL d   1      51.028  32.958  52.553  0.00  0.00     0.018 A 
ATOM     11  C   UNL d   1      51.297  34.362  53.377  0.00  0.00     0.015 A 
ATOM     12  C   UNL d   1      50.607  34.268  52.935  0.00  0.00     0.058 A 
ATOM     13  C   UNL d   1      52.442  31.815  52.819  0.00  0.00     0.101 C 
ATOM     14  C   UNL d   1      50.472  33.566  52.523  0.00  0.00     0.013 A 
ATOM     15 CL   UNL d   1      50.050  34.877  52.906  0.00  0.00    -0.082 Cl
ATOM     16  C   UNL d   1      54.743  33.013  54.712  0.00  0.00     0.021 A 
ATOM     17  C   UNL d   1      54.118  34.479  55.052  0.00  0.00     0.021 A 
ATOM     18  C   UNL d   1      54.856  34.276  55.379  0.00  0.00     0.002 A 
ATOM     19  C   UNL d   1      55.153  33.545  55.201  0.00  0.00     0.002 A 
ENDROOT
TORSDOF 0
ENDMDL
