MODEL 1
REMARK VINA RESULT:      -5.3      0.000      0.000
REMARK  1 active torsions:
REMARK  status: ('A' for Active; 'I' for Inactive)
REMARK    1  A    between atoms: C_9  and  C_1 
ROOT
ATOM      1  C   UNL d   1      57.705   0.009  31.079  0.00  0.00     0.064 A 
ATOM      2  C   UNL d   1      57.210  -0.626  31.287  0.00  0.00     0.199 A 
ATOM      3  C   UNL d   1      56.798  -0.594  32.008  0.00  0.00     0.062 A 
ATOM      4  C   UNL d   1      57.787   0.656  31.579  0.00  0.00     0.126 A 
ATOM      5  C   UNL d   1      56.879   0.053  32.508  0.00  0.00     0.106 A 
ATOM      6  O   UNL d   1      57.374   0.682  32.296  0.00  0.00    -0.305 OA
ATOM      7  C   UNL d   1      56.306  -1.226  32.211  0.00  0.00     0.009 A 
ATOM      8  C   UNL d   1      56.471   0.082  33.220  0.00  0.00     0.067 A 
ATOM      9  O   UNL d   1      57.129  -1.271  30.789  0.00  0.00    -0.286 OA
ATOM     10  C   UNL d   1      55.976  -0.547  33.432  0.00  0.00     0.198 A 
ATOM     11  C   UNL d   1      55.894  -1.194  32.933  0.00  0.00     0.042 A 
ATOM     12  O   UNL d   1      55.550  -0.530  34.162  0.00  0.00    -0.286 OA
ENDROOT
BRANCH   1  13
ATOM     13  C   UNL d   1      58.115  -0.025  30.360  0.00  0.00     0.005 A 
ATOM     14  C   UNL d   1      58.778  -0.497  30.278  0.00  0.00     0.000 A 
ATOM     15  C   UNL d   1      59.188  -0.529  29.555  0.00  0.00     0.000 A 
ATOM     16  C   UNL d   1      58.911  -0.076  28.924  0.00  0.00     0.000 A 
ATOM     17  C   UNL d   1      58.248   0.397  29.005  0.00  0.00     0.000 A 
ATOM     18  C   UNL d   1      57.839   0.431  29.721  0.00  0.00     0.000 A 
ENDBRANCH   1  13
TORSDOF 1
ENDMDL
MODEL 2
REMARK VINA RESULT:      -5.2      1.208      3.717
REMARK  1 active torsions:
REMARK  status: ('A' for Active; 'I' for Inactive)
REMARK    1  A    between atoms: C_9  and  C_1 
ROOT
ATOM      1  C   UNL d   1      57.188   0.230  32.257  0.00  0.00     0.064 A 
ATOM      2  C   UNL d   1      57.194   0.075  31.440  0.00  0.00     0.199 A 
ATOM      3  C   UNL d   1      57.887   0.230  31.007  0.00  0.00     0.062 A 
ATOM      4  C   UNL d   1      57.856   0.530  32.630  0.00  0.00     0.126 A 
ATOM      5  C   UNL d   1      58.554   0.530  31.380  0.00  0.00     0.106 A 
ATOM      6  O   UNL d   1      58.543   0.682  32.193  0.00  0.00    -0.305 OA
ATOM      7  C   UNL d   1      57.889   0.075  30.196  0.00  0.00     0.009 A 
ATOM      8  C   UNL d   1      59.237   0.682  30.949  0.00  0.00     0.067 A 
ATOM      9  O   UNL d   1      56.529  -0.224  31.069  0.00  0.00    -0.286 OA
ATOM     10  C   UNL d   1      59.249   0.530  30.136  0.00  0.00     0.198 A 
ATOM     11  C   UNL d   1      58.581   0.230  29.763  0.00  0.00     0.042 A 
ATOM     12  O   UNL d   1      59.945   0.682  29.682  0.00  0.00    -0.286 OA
ENDROOT
BRANCH   1  13
ATOM     13  C   UNL d   1      56.497   0.075  32.687  0.00  0.00     0.005 A 
ATOM     14  C   UNL d   1      55.989   0.682  32.893  0.00  0.00     0.000 A 
ATOM     15  C   UNL d   1      55.295   0.524  33.325  0.00  0.00     0.000 A 
ATOM     16  C   UNL d   1      55.132  -0.256  33.539  0.00  0.00     0.000 A 
ATOM     17  C   UNL d   1      55.641  -0.863  33.333  0.00  0.00     0.000 A 
ATOM     18  C   UNL d   1      56.329  -0.711  32.906  0.00  0.00     0.000 A 
ENDBRANCH   1  13
TORSDOF 1
ENDMDL
MODEL 3
REMARK VINA RESULT:      -4.7      0.847      1.106
REMARK  1 active torsions:
REMARK  status: ('A' for Active; 'I' for Inactive)
REMARK    1  A    between atoms: C_9  and  C_1 
ROOT
ATOM      1  C   UNL d   1      57.360   0.144  31.861  0.00  0.00     0.064 A 
ATOM      2  C   UNL d   1      56.594  -0.131  32.031  0.00  0.00     0.199 A 
ATOM      3  C   UNL d   1      56.276   0.008  32.786  0.00  0.00     0.062 A 
ATOM      4  C   UNL d   1      57.796   0.547  32.430  0.00  0.00     0.126 A 
ATOM      5  C   UNL d   1      56.712   0.411  33.356  0.00  0.00     0.106 A 
ATOM      6  O   UNL d   1      57.474   0.682  33.180  0.00  0.00    -0.305 OA
ATOM      7  C   UNL d   1      55.515  -0.266  32.952  0.00  0.00     0.009 A 
ATOM      8  C   UNL d   1      56.395   0.547  34.101  0.00  0.00     0.067 A 
ATOM      9  O   UNL d   1      56.161  -0.532  31.464  0.00  0.00    -0.286 OA
ATOM     10  C   UNL d   1      55.633   0.276  34.277  0.00  0.00     0.198 A 
ATOM     11  C   UNL d   1      55.197  -0.127  33.708  0.00  0.00     0.042 A 
ATOM     12  O   UNL d   1      55.295   0.409  35.040  0.00  0.00    -0.286 OA
ENDROOT
BRANCH   1  13
ATOM     13  C   UNL d   1      57.675   0.004  31.108  0.00  0.00     0.005 A 
ATOM     14  C   UNL d   1      57.851  -0.756  30.863  0.00  0.00     0.000 A 
ATOM     15  C   UNL d   1      58.167  -0.894  30.105  0.00  0.00     0.000 A 
ATOM     16  C   UNL d   1      58.300  -0.249  29.609  0.00  0.00     0.000 A 
ATOM     17  C   UNL d   1      58.124   0.512  29.854  0.00  0.00     0.000 A 
ATOM     18  C   UNL d   1      57.810   0.653  30.604  0.00  0.00     0.000 A 
ENDBRANCH   1  13
TORSDOF 1
ENDMDL
MODEL 4
REMARK VINA RESULT:      -2.6      9.478     10.246
REMARK  1 active torsions:
REMARK  status: ('A' for Active; 'I' for Inactive)
REMARK    1  A    between atoms: C_9  and  C_1 
ROOT
ATOM      1  C   UNL d   1      59.683  -9.264  34.261  0.00  0.00     0.064 A 
ATOM      2  C   UNL d   1      60.071  -9.452  33.549  0.00  0.00     0.199 A 
ATOM      3  C   UNL d   1      59.618  -9.541  32.857  0.00  0.00     0.062 A 
ATOM      4  C   UNL d   1      58.866  -9.168  34.279  0.00  0.00     0.126 A 
ATOM      5  C   UNL d   1      58.802  -9.446  32.876  0.00  0.00     0.106 A 
ATOM      6  O   UNL d   1      58.422  -9.259  33.587  0.00  0.00    -0.305 OA
ATOM      7  C   UNL d   1      60.007  -9.728  32.153  0.00  0.00     0.009 A 
ATOM      8  C   UNL d   1      58.358  -9.535  32.190  0.00  0.00     0.067 A 
ATOM      9  O   UNL d   1      60.883  -9.547  33.531  0.00  0.00    -0.286 OA
ATOM     10  C   UNL d   1      58.738  -9.722  31.479  0.00  0.00     0.198 A 
ATOM     11  C   UNL d   1      59.554  -9.818  31.461  0.00  0.00     0.042 A 
ATOM     12  O   UNL d   1      58.293  -9.817  30.767  0.00  0.00    -0.286 OA
ENDROOT
BRANCH   1  13
ATOM     13  C   UNL d   1      60.135  -9.175  34.949  0.00  0.00     0.005 A 
ATOM     14  C   UNL d   1      60.531  -8.476  35.101  0.00  0.00     0.000 A 
ATOM     15  C   UNL d   1      60.985  -8.389  35.794  0.00  0.00     0.000 A 
ATOM     16  C   UNL d   1      61.025  -9.021  36.321  0.00  0.00     0.000 A 
ATOM     17  C   UNL d   1      60.629  -9.720  36.169  0.00  0.00     0.000 A 
ATOM     18  C   UNL d   1      60.178  -9.811  35.484  0.00  0.00     0.000 A 
ENDBRANCH   1  13
TORSDOF 1
ENDMDL
