MODEL 1
REMARK VINA RESULT:      -4.4      0.000      0.000
REMARK  3 active torsions:
REMARK  status: ('A' for Active; 'I' for Inactive)
REMARK    1  A    between atoms: N_6  and  C_1 
REMARK    2  A    between atoms: C_14  and  N_4 
REMARK    3  A    between atoms: C_9  and  N_6 
ROOT
ATOM      1  C   UNL d   1      58.240   0.246  30.641  0.00  0.00     0.157 A 
ATOM      2  C   UNL d   1      57.476   0.064  30.884  0.00  0.00     0.298 A 
ATOM      3  N   UNL d   1      58.196   0.411  31.956  0.00  0.00    -0.238 N 
ATOM      4  N   UNL d   1      57.449   0.168  31.708  0.00  0.00    -0.209 N 
ATOM      5  C   UNL d   1      58.692   0.460  31.290  0.00  0.00     0.104 A 
ATOM      6  O   UNL d   1      56.846  -0.177  30.409  0.00  0.00    -0.263 OA
ATOM      7  C   UNL d   1      58.413   0.578  32.739  0.00  0.00     0.120 C 
ATOM      8  C   UNL d   1      59.482   0.682  31.287  0.00  0.00     0.022 C 
ENDROOT
BRANCH   1   9
ATOM      9  N   UNL d   1      58.512   0.215  29.854  0.00  0.00    -0.239 NA
BRANCH   9  10
ATOM     10  C   UNL d   1      58.914  -0.454  29.579  0.00  0.00     0.082 A 
ATOM     11  C   UNL d   1      59.720  -0.402  29.373  0.00  0.00     0.022 A 
ATOM     12  C   UNL d   1      60.112  -1.063  29.103  0.00  0.00     0.041 A 
ATOM     13  C   UNL d   1      60.915  -1.013  28.897  0.00  0.00     0.003 C 
ATOM     14  C   UNL d   1      59.719  -1.794  29.031  0.00  0.00     0.196 A 
ATOM     15  C   UNL d   1      58.920  -1.842  29.237  0.00  0.00     0.041 A 
ATOM     16  O   UNL d   1      60.121  -2.463  28.756  0.00  0.00    -0.287 OA
ATOM     17  C   UNL d   1      58.523  -1.173  29.509  0.00  0.00     0.022 A 
ATOM     18  C   UNL d   1      58.537  -2.564  29.163  0.00  0.00     0.003 C 
ENDBRANCH   9  10
ENDBRANCH   1   9
BRANCH   4  19
ATOM     19  C   UNL d   1      56.791   0.048  32.191  0.00  0.00     0.085 A 
ATOM     20  C   UNL d   1      56.322   0.682  32.413  0.00  0.00     0.019 A 
ATOM     21  C   UNL d   1      55.659   0.566  32.898  0.00  0.00     0.002 A 
ATOM     22  C   UNL d   1      55.472  -0.195  33.158  0.00  0.00     0.000 A 
ATOM     23  C   UNL d   1      55.941  -0.831  32.936  0.00  0.00     0.002 A 
ATOM     24  C   UNL d   1      56.607  -0.716  32.449  0.00  0.00     0.019 A 
ENDBRANCH   4  19
TORSDOF 3
ENDMDL
MODEL 2
REMARK VINA RESULT:      -3.9      1.200      4.198
REMARK  3 active torsions:
REMARK  status: ('A' for Active; 'I' for Inactive)
REMARK    1  A    between atoms: N_6  and  C_1 
REMARK    2  A    between atoms: C_14  and  N_4 
REMARK    3  A    between atoms: C_9  and  N_6 
ROOT
ATOM      1  C   UNL d   1      58.117  -0.533  29.962  0.00  0.00     0.157 A 
ATOM      2  C   UNL d   1      58.233  -1.344  29.884  0.00  0.00     0.298 A 
ATOM      3  N   UNL d   1      59.301  -0.707  29.390  0.00  0.00    -0.238 N 
ATOM      4  N   UNL d   1      58.975  -1.451  29.526  0.00  0.00    -0.209 N 
ATOM      5  C   UNL d   1      58.765  -0.131  29.663  0.00  0.00     0.104 A 
ATOM      6  O   UNL d   1      57.718  -1.946  30.114  0.00  0.00    -0.263 OA
ATOM      7  C   UNL d   1      60.038  -0.560  29.041  0.00  0.00     0.120 C 
ATOM      8  C   UNL d   1      58.869   0.681  29.636  0.00  0.00     0.022 C 
ENDROOT
BRANCH   1   9
ATOM      9  N   UNL d   1      57.441  -0.177  30.296  0.00  0.00    -0.239 NA
BRANCH   9  10
ATOM     10  C   UNL d   1      57.337  -0.174  31.117  0.00  0.00     0.082 A 
ATOM     11  C   UNL d   1      57.861   0.255  31.603  0.00  0.00     0.022 A 
ATOM     12  C   UNL d   1      57.755   0.256  32.411  0.00  0.00     0.041 A 
ATOM     13  C   UNL d   1      58.276   0.682  32.896  0.00  0.00     0.003 C 
ATOM     14  C   UNL d   1      57.129  -0.167  32.760  0.00  0.00     0.196 A 
ATOM     15  C   UNL d   1      56.611  -0.591  32.275  0.00  0.00     0.041 A 
ATOM     16  O   UNL d   1      57.025  -0.164  33.581  0.00  0.00    -0.287 OA
ATOM     17  C   UNL d   1      56.718  -0.592  31.458  0.00  0.00     0.022 A 
ATOM     18  C   UNL d   1      55.995  -1.006  32.625  0.00  0.00     0.003 C 
ENDBRANCH   9  10
ENDBRANCH   1   9
BRANCH   4  19
ATOM     19  C   UNL d   1      59.323  -2.176  29.339  0.00  0.00     0.085 A 
ATOM     20  C   UNL d   1      60.091  -2.337  29.572  0.00  0.00     0.019 A 
ATOM     21  C   UNL d   1      60.444  -3.064  29.387  0.00  0.00     0.002 A 
ATOM     22  C   UNL d   1      60.017  -3.629  28.963  0.00  0.00     0.000 A 
ATOM     23  C   UNL d   1      59.246  -3.469  28.729  0.00  0.00     0.002 A 
ATOM     24  C   UNL d   1      58.890  -2.740  28.914  0.00  0.00     0.019 A 
ENDBRANCH   4  19
TORSDOF 3
ENDMDL
