MODEL 1
REMARK VINA RESULT:      34.6      0.000      0.000
REMARK  5 active torsions:
REMARK  status: ('A' for Active; 'I' for Inactive)
REMARK    1  A    between atoms: C_3  and  C_1 
REMARK    2  A    between atoms: C_9  and  N_2 
REMARK    3  A    between atoms: C_7  and  C_3 
REMARK    4  A    between atoms: C_8  and  C_3 
REMARK    5  A    between atoms: C_20  and  C_6 
ROOT
ATOM      1  C   UNL d   1      14.297  12.542  -1.741  0.00  0.00     0.103 A 
ATOM      2  N   UNL d   1      14.533  13.243  -1.373  0.00  0.00    -0.269 N 
ATOM      3  S   UNL d   1      14.582  11.902  -1.297  0.00  0.00    -0.064 SA
ATOM      4  C   UNL d   1      14.965  13.040  -0.700  0.00  0.00     0.271 A 
ATOM      5  C   UNL d   1      14.998  12.216  -0.648  0.00  0.00     0.087 A 
ATOM      6  O   UNL d   1      15.309  13.571  -0.162  0.00  0.00    -0.266 OA
ENDROOT
BRANCH   2   7
ATOM      7  C   UNL d   1      14.635  14.046  -1.214  0.00  0.00     0.068 A 
ATOM      8  C   UNL d   1      14.773  14.567  -1.836  0.00  0.00     0.020 A 
ATOM      9  C   UNL d   1      14.875  15.369  -1.677  0.00  0.00     0.031 A 
ATOM     10  C   UNL d   1      14.839  15.636  -0.899  0.00  0.00     0.140 A 
ATOM     11  C   UNL d   1      14.702  15.111  -0.284  0.00  0.00     0.031 A 
ATOM     12  F   UNL d   1      14.942  16.446  -0.739  0.00  0.00    -0.204 F 
ATOM     13  C   UNL d   1      14.599  14.309  -0.440  0.00  0.00     0.020 A 
ENDBRANCH   2   7
BRANCH   1  14
ATOM     14  C   UNL d   1      13.851  12.478  -2.437  0.00  0.00     0.103 C 
BRANCH  14  15
ATOM     15  C   UNL d   1      13.161  12.023  -2.433  0.00  0.00     0.300 C 
ATOM     16  O   UNL d   1      12.812  11.794  -1.714  0.00  0.00    -0.264 OA
ATOM     17  N   UNL d   1      12.812  11.794  -3.151  0.00  0.00    -0.102 N 
ENDBRANCH  14  15
BRANCH  14  18
ATOM     18  C   UNL d   1      14.091  12.859  -3.121  0.00  0.00     0.129 C 
ATOM     19  N   UNL d   1      13.809  12.606  -3.858  0.00  0.00    -0.146 N 
ENDBRANCH  14  18
ENDBRANCH   1  14
BRANCH   5  20
ATOM     20  C   UNL d   1      15.375  11.781  -0.058  0.00  0.00     0.011 C 
ATOM     21  C   UNL d   1      16.204  11.780  -0.014  0.00  0.00     0.001 C 
ENDBRANCH   5  20
TORSDOF 5
ENDMDL
MODEL 2
REMARK VINA RESULT:      37.0      1.834      3.232
REMARK  5 active torsions:
REMARK  status: ('A' for Active; 'I' for Inactive)
REMARK    1  A    between atoms: C_3  and  C_1 
REMARK    2  A    between atoms: C_9  and  N_2 
REMARK    3  A    between atoms: C_7  and  C_3 
REMARK    4  A    between atoms: C_8  and  C_3 
REMARK    5  A    between atoms: C_20  and  C_6 
ROOT
ATOM      1  C   UNL d   1      14.468  13.772  -1.587  0.00  0.00     0.103 A 
ATOM      2  N   UNL d   1      14.116  13.385  -2.226  0.00  0.00    -0.269 N 
ATOM      3  S   UNL d   1      14.590  13.221  -0.979  0.00  0.00    -0.064 SA
ATOM      4  C   UNL d   1      14.018  12.593  -2.017  0.00  0.00     0.271 A 
ATOM      5  C   UNL d   1      14.307  12.487  -1.250  0.00  0.00     0.087 A 
ATOM      6  O   UNL d   1      13.685  12.000  -2.492  0.00  0.00    -0.266 OA
ENDROOT
BRANCH   2   7
ATOM      7  C   UNL d   1      13.780  13.246  -2.966  0.00  0.00     0.068 A 
ATOM      8  C   UNL d   1      13.327  13.833  -3.321  0.00  0.00     0.020 A 
ATOM      9  C   UNL d   1      12.990  13.694  -4.061  0.00  0.00     0.031 A 
ATOM     10  C   UNL d   1      13.113  12.970  -4.432  0.00  0.00     0.140 A 
ATOM     11  C   UNL d   1      13.567  12.388  -4.072  0.00  0.00     0.031 A 
ATOM     12  F   UNL d   1      12.774  12.830  -5.178  0.00  0.00    -0.204 F 
ATOM     13  C   UNL d   1      13.904  12.525  -3.333  0.00  0.00     0.020 A 
ENDBRANCH   2   7
BRANCH   1  14
ATOM     14  C   UNL d   1      14.671  14.576  -1.549  0.00  0.00     0.103 C 
BRANCH  14  15
ATOM     15  C   UNL d   1      14.575  14.982  -0.836  0.00  0.00     0.300 C 
ATOM     16  O   UNL d   1      14.163  15.703  -0.814  0.00  0.00    -0.264 OA
ATOM     17  N   UNL d   1      14.891  14.669  -0.135  0.00  0.00    -0.102 N 
ENDBRANCH  14  15
BRANCH  14  18
ATOM     18  C   UNL d   1      14.963  14.962  -2.209  0.00  0.00     0.129 C 
ATOM     19  N   UNL d   1      15.350  15.690  -2.126  0.00  0.00    -0.146 N 
ENDBRANCH  14  18
ENDBRANCH   1  14
BRANCH   5  20
ATOM     20  C   UNL d   1      14.316  11.779  -0.827  0.00  0.00     0.011 C 
ATOM     21  C   UNL d   1      14.480  11.788  -0.014  0.00  0.00     0.001 C 
ENDBRANCH   5  20
TORSDOF 5
ENDMDL
