MODEL 1
REMARK VINA RESULT:      45.9      0.000      0.000
REMARK  6 active torsions:
REMARK  status: ('A' for Active; 'I' for Inactive)
REMARK    1  A    between atoms: S_9  and  C_4 
REMARK    2  A    between atoms: C_15  and  S_9 
REMARK    3  A    between atoms: C_11  and  C_15 
REMARK    4  A    between atoms: O_14  and  C_11 
REMARK    5  A    between atoms: C_17  and  O_14 
REMARK    6  A    between atoms: C_18  and  C_17 
ROOT
ATOM      1  C   UNL d   1     -55.963-102.648 -38.493  0.00  0.00     0.104 A 
ATOM      2  N   UNL d   1     -56.051-102.783 -39.910  0.00  0.00    -0.251 N 
ATOM      3  C   UNL d   1     -56.417-102.722 -39.164  0.00  0.00     0.274 A 
ATOM      4  C   UNL d   1     -55.228-102.768 -39.962  0.00  0.00     0.182 A 
ATOM      5  C   UNL d   1     -55.140-102.633 -38.545  0.00  0.00     0.095 A 
ATOM      6  N   UNL d   1     -54.771-102.692 -39.269  0.00  0.00    -0.222 NA
ATOM      7  S   UNL d   1     -56.166-102.579 -37.699  0.00  0.00    -0.081 SA
ATOM      8  C   UNL d   1     -54.835-102.554 -37.784  0.00  0.00     0.026 A 
ATOM      9  O   UNL d   1     -57.241-102.737 -39.111  0.00  0.00    -0.266 OA
ATOM     10  C   UNL d   1     -55.464-102.521 -37.263  0.00  0.00     0.031 A 
ATOM     11  C   UNL d   1     -56.511-102.858 -40.597  0.00  0.00     0.104 C 
ATOM     12  C   UNL d   1     -55.399-102.443 -36.444  0.00  0.00     0.007 C 
ENDROOT
BRANCH   4  13
ATOM     13  S   UNL d   1     -54.851-102.828 -40.703  0.00  0.00    -0.044 SA
BRANCH  13  14
ATOM     14  C   UNL d   1     -54.744-102.150 -41.162  0.00  0.00     0.107 C 
BRANCH  14  15
ATOM     15  C   UNL d   1     -54.934-102.160 -41.965  0.00  0.00     0.307 C 
ATOM     16  O   UNL d   1     -55.291-102.828 -42.296  0.00  0.00    -0.258 OA
BRANCH  15  17
ATOM     17  O   UNL d   1     -54.768-101.505 -42.438  0.00  0.00    -0.271 OA
BRANCH  17  18
ATOM     18  C   UNL d   1     -55.323-100.898 -42.511  0.00  0.00     0.126 C 
BRANCH  18  19
ATOM     19  C   UNL d   1     -55.340-100.438 -43.190  0.00  0.00     0.025 A 
ATOM     20  C   UNL d   1     -54.802-100.582 -43.799  0.00  0.00     0.002 A 
ATOM     21  C   UNL d   1     -54.819-100.119 -44.482  0.00  0.00     0.000 A 
ATOM     22  C   UNL d   1     -55.373 -99.512 -44.556  0.00  0.00     0.000 A 
ATOM     23  C   UNL d   1     -55.904 -99.373 -43.949  0.00  0.00     0.000 A 
ATOM     24  C   UNL d   1     -55.887 -99.836 -43.267  0.00  0.00     0.002 A 
ENDBRANCH  18  19
ENDBRANCH  17  18
ENDBRANCH  15  17
ENDBRANCH  14  15
ENDBRANCH  13  14
ENDBRANCH   4  13
TORSDOF 6
ENDMDL
