MODEL 1
REMARK VINA RESULT:      -4.8      0.000      0.000
REMARK  7 active torsions:
REMARK  status: ('A' for Active; 'I' for Inactive)
REMARK    1  A    between atoms: C_5  and  N_1 
REMARK    2  A    between atoms: C_3  and  N_2 
REMARK    3  A    between atoms: N_4  and  C_11 
REMARK    4  A    between atoms: C_11  and  C_17 
REMARK    5  A    between atoms: O_16  and  C_18 
REMARK    6  A    between atoms: C_20  and  O_16 
REMARK    7  A    between atoms: C_17  and  C_20 
ROOT
ATOM      1  C   UNL d   1     -46.366  13.370  23.313  0.00  0.00     0.125 C 
ENDROOT
BRANCH   1   2
ATOM      2  N   UNL d   1     -47.124  13.362  23.075  0.00  0.00    -0.297 N 
ATOM      3  C   UNL d   1     -47.618  12.720  23.201  0.00  0.00     0.100 A 
ATOM      4  C   UNL d   1     -48.384  12.712  22.960  0.00  0.00     0.100 A 
ATOM      5  N   UNL d   1     -48.702  13.384  22.563  0.00  0.00    -0.299 N 
ATOM      6  C   UNL d   1     -48.220  14.033  22.431  0.00  0.00     0.100 A 
ATOM      7  C   UNL d   1     -47.441  14.041  22.675  0.00  0.00     0.100 A 
BRANCH   5   8
ATOM      8  C   UNL d   1     -49.489  13.376  22.316  0.00  0.00     0.092 A 
ATOM      9  C   UNL d   1     -49.664  13.128  21.542  0.00  0.00     0.156 A 
ATOM     10  F   UNL d   1     -49.064  12.893  21.023  0.00  0.00    -0.203 F 
ATOM     11  C   UNL d   1     -50.447  13.120  21.296  0.00  0.00     0.031 A 
ATOM     12  C   UNL d   1     -51.049  13.348  21.793  0.00  0.00     0.002 A 
ATOM     13  C   UNL d   1     -50.875  13.598  22.575  0.00  0.00     0.002 A 
ATOM     14  C   UNL d   1     -50.088  13.607  22.822  0.00  0.00     0.020 A 
ENDBRANCH   5   8
ENDBRANCH   1   2
BRANCH   1  15
ATOM     15  C   UNL d   1     -45.835  12.793  23.027  0.00  0.00     0.238 C 
ATOM     16  O   UNL d   1     -45.899  11.927  23.387  0.00  0.00    -0.283 OA
BRANCH  15  17
ATOM     17  C   UNL d   1     -45.288  12.993  22.456  0.00  0.00     0.166 C 
BRANCH  17  18
ATOM     18  O   UNL d   1     -44.661  12.467  22.287  0.00  0.00    -0.302 OA
BRANCH  18  19
ATOM     19  C   UNL d   1     -43.995  12.741  21.902  0.00  0.00     0.100 A 
ATOM     20  C   UNL d   1     -43.986  13.483  21.539  0.00  0.00     0.026 A 
ATOM     21  C   UNL d   1     -43.312  13.765  21.148  0.00  0.00     0.026 A 
ATOM     22  C   UNL d   1     -42.618  13.284  21.118  0.00  0.00     0.127 A 
ATOM     23  C   UNL d   1     -42.627  12.543  21.481  0.00  0.00     0.026 A 
ATOM     24  C   UNL d   1     -43.316  12.267  21.875  0.00  0.00     0.026 A 
BRANCH  22  25
ATOM     25  N   UNL d   1     -41.935  13.544  20.734  0.00  0.00    -0.114 N 
ATOM     26  O   UNL d   1     -41.343  14.003  21.082  0.00  0.00    -0.532 OA
ATOM     27  O   UNL d   1     -41.756  13.379  19.950  0.00  0.00    -0.532 OA
ENDBRANCH  22  25
ENDBRANCH  18  19
ENDBRANCH  17  18
ENDBRANCH  15  17
ENDBRANCH   1  15
TORSDOF 7
ENDMDL
MODEL 2
REMARK VINA RESULT:      -4.4      2.637      6.833
REMARK  7 active torsions:
REMARK  status: ('A' for Active; 'I' for Inactive)
REMARK    1  A    between atoms: C_5  and  N_1 
REMARK    2  A    between atoms: C_3  and  N_2 
REMARK    3  A    between atoms: N_4  and  C_11 
REMARK    4  A    between atoms: C_11  and  C_17 
REMARK    5  A    between atoms: O_16  and  C_18 
REMARK    6  A    between atoms: C_20  and  O_16 
REMARK    7  A    between atoms: C_17  and  C_20 
ROOT
ATOM      1  C   UNL d   1     -43.414  12.959  20.992  0.00  0.00     0.125 C 
ENDROOT
BRANCH   1   2
ATOM      2  N   UNL d   1     -42.714  13.334  21.013  0.00  0.00    -0.297 N 
ATOM      3  C   UNL d   1     -42.003  12.935  21.098  0.00  0.00     0.100 A 
ATOM      4  C   UNL d   1     -41.296  13.314  21.119  0.00  0.00     0.100 A 
ATOM      5  N   UNL d   1     -41.273  14.153  21.053  0.00  0.00    -0.299 N 
ATOM      6  C   UNL d   1     -41.975  14.565  20.968  0.00  0.00     0.100 A 
ATOM      7  C   UNL d   1     -42.694  14.180  20.946  0.00  0.00     0.100 A 
BRANCH   5   8
ATOM      8  C   UNL d   1     -40.546  14.543  21.074  0.00  0.00     0.092 A 
ATOM      9  C   UNL d   1     -40.184  14.758  20.358  0.00  0.00     0.156 A 
ATOM     10  F   UNL d   1     -40.541  14.587  19.631  0.00  0.00    -0.203 F 
ATOM     11  C   UNL d   1     -39.461  15.145  20.379  0.00  0.00     0.031 A 
ATOM     12  C   UNL d   1     -39.096  15.321  21.084  0.00  0.00     0.002 A 
ATOM     13  C   UNL d   1     -39.458  15.105  21.810  0.00  0.00     0.002 A 
ATOM     14  C   UNL d   1     -40.185  14.716  21.788  0.00  0.00     0.020 A 
ENDBRANCH   5   8
ENDBRANCH   1   2
BRANCH   1  15
ATOM     15  C   UNL d   1     -43.818  12.794  21.703  0.00  0.00     0.238 C 
ATOM     16  O   UNL d   1     -43.457  12.132  22.265  0.00  0.00    -0.283 OA
BRANCH  15  17
ATOM     17  C   UNL d   1     -44.500  13.202  21.887  0.00  0.00     0.166 C 
BRANCH  17  18
ATOM     18  O   UNL d   1     -45.096  12.826  22.335  0.00  0.00    -0.302 OA
BRANCH  18  19
ATOM     19  C   UNL d   1     -45.814  13.199  22.450  0.00  0.00     0.100 A 
ATOM     20  C   UNL d   1     -45.862  13.913  22.861  0.00  0.00     0.026 A 
ATOM     21  C   UNL d   1     -46.588  14.296  22.980  0.00  0.00     0.026 A 
ATOM     22  C   UNL d   1     -47.295  13.947  22.675  0.00  0.00     0.127 A 
ATOM     23  C   UNL d   1     -47.247  13.232  22.264  0.00  0.00     0.026 A 
ATOM     24  C   UNL d   1     -46.504  12.854  22.150  0.00  0.00     0.026 A 
BRANCH  22  25
ATOM     25  N   UNL d   1     -48.029  14.309  22.782  0.00  0.00    -0.114 N 
ATOM     26  O   UNL d   1     -48.263  15.016  22.425  0.00  0.00    -0.532 OA
ATOM     27  O   UNL d   1     -48.626  14.011  23.260  0.00  0.00    -0.532 OA
ENDBRANCH  22  25
ENDBRANCH  18  19
ENDBRANCH  17  18
ENDBRANCH  15  17
ENDBRANCH   1  15
TORSDOF 7
ENDMDL
MODEL 3
REMARK VINA RESULT:      -4.3      1.112      1.412
REMARK  7 active torsions:
REMARK  status: ('A' for Active; 'I' for Inactive)
REMARK    1  A    between atoms: C_5  and  N_1 
REMARK    2  A    between atoms: C_3  and  N_2 
REMARK    3  A    between atoms: N_4  and  C_11 
REMARK    4  A    between atoms: C_11  and  C_17 
REMARK    5  A    between atoms: O_16  and  C_18 
REMARK    6  A    between atoms: C_20  and  O_16 
REMARK    7  A    between atoms: C_17  and  C_20 
ROOT
ATOM      1  C   UNL d   1     -45.471  13.345  22.564  0.00  0.00     0.125 C 
ENDROOT
BRANCH   1   2
ATOM      2  N   UNL d   1     -46.242  13.168  22.648  0.00  0.00    -0.297 N 
ATOM      3  C   UNL d   1     -46.546  12.844  23.337  0.00  0.00     0.100 A 
ATOM      4  C   UNL d   1     -47.324  12.665  23.422  0.00  0.00     0.100 A 
ATOM      5  N   UNL d   1     -47.856  12.812  22.785  0.00  0.00    -0.299 N 
ATOM      6  C   UNL d   1     -47.565  13.135  22.091  0.00  0.00     0.100 A 
ATOM      7  C   UNL d   1     -46.775  13.317  22.004  0.00  0.00     0.100 A 
BRANCH   5   8
ATOM      8  C   UNL d   1     -48.655  12.628  22.873  0.00  0.00     0.092 A 
ATOM      9  C   UNL d   1     -49.174  13.215  23.150  0.00  0.00     0.156 A 
ATOM     10  F   UNL d   1     -48.901  13.973  23.336  0.00  0.00    -0.203 F 
ATOM     11  C   UNL d   1     -49.969  13.032  23.237  0.00  0.00     0.031 A 
ATOM     12  C   UNL d   1     -50.255  12.293  23.058  0.00  0.00     0.002 A 
ATOM     13  C   UNL d   1     -49.734  11.697  22.778  0.00  0.00     0.002 A 
ATOM     14  C   UNL d   1     -48.935  11.881  22.691  0.00  0.00     0.020 A 
ENDBRANCH   5   8
ENDBRANCH   1   2
BRANCH   1  15
ATOM     15  C   UNL d   1     -44.930  12.750  22.341  0.00  0.00     0.238 C 
ATOM     16  O   UNL d   1     -44.986  11.924  22.785  0.00  0.00    -0.283 OA
BRANCH  15  17
ATOM     17  C   UNL d   1     -44.381  12.899  21.756  0.00  0.00     0.166 C 
BRANCH  17  18
ATOM     18  O   UNL d   1     -43.625  12.548  21.805  0.00  0.00    -0.302 OA
BRANCH  18  19
ATOM     19  C   UNL d   1     -42.986  12.911  21.448  0.00  0.00     0.100 A 
ATOM     20  C   UNL d   1     -43.054  13.259  20.703  0.00  0.00     0.026 A 
ATOM     21  C   UNL d   1     -42.408  13.628  20.337  0.00  0.00     0.026 A 
ATOM     22  C   UNL d   1     -41.663  13.650  20.735  0.00  0.00     0.127 A 
ATOM     23  C   UNL d   1     -41.595  13.302  21.481  0.00  0.00     0.026 A 
ATOM     24  C   UNL d   1     -42.257  12.930  21.842  0.00  0.00     0.026 A 
BRANCH  22  25
ATOM     25  N   UNL d   1     -41.006  14.012  20.391  0.00  0.00    -0.114 N 
ATOM     26  O   UNL d   1     -40.478  14.508  20.787  0.00  0.00    -0.532 OA
ATOM     27  O   UNL d   1     -40.791  13.925  19.603  0.00  0.00    -0.532 OA
ENDBRANCH  22  25
ENDBRANCH  18  19
ENDBRANCH  17  18
ENDBRANCH  15  17
ENDBRANCH   1  15
TORSDOF 7
ENDMDL
MODEL 4
REMARK VINA RESULT:      -4.0      2.892      7.192
REMARK  7 active torsions:
REMARK  status: ('A' for Active; 'I' for Inactive)
REMARK    1  A    between atoms: C_5  and  N_1 
REMARK    2  A    between atoms: C_3  and  N_2 
REMARK    3  A    between atoms: N_4  and  C_11 
REMARK    4  A    between atoms: C_11  and  C_17 
REMARK    5  A    between atoms: O_16  and  C_18 
REMARK    6  A    between atoms: C_20  and  O_16 
REMARK    7  A    between atoms: C_17  and  C_20 
ROOT
ATOM      1  C   UNL d   1     -42.159  13.431  21.457  0.00  0.00     0.125 C 
ENDROOT
BRANCH   1   2
ATOM      2  N   UNL d   1     -41.673  13.840  20.979  0.00  0.00    -0.297 N 
ATOM      3  C   UNL d   1     -41.798  14.628  20.795  0.00  0.00     0.100 A 
ATOM      4  C   UNL d   1     -41.308  15.042  20.312  0.00  0.00     0.100 A 
ATOM      5  N   UNL d   1     -40.637  14.659  19.976  0.00  0.00    -0.299 N 
ATOM      6  C   UNL d   1     -40.499  13.871  20.151  0.00  0.00     0.100 A 
ATOM      7  C   UNL d   1     -40.998  13.451  20.642  0.00  0.00     0.100 A 
BRANCH   5   8
ATOM      8  C   UNL d   1     -40.133  15.084  19.479  0.00  0.00     0.092 A 
ATOM      9  C   UNL d   1     -40.300  15.109  18.666  0.00  0.00     0.156 A 
ATOM     10  F   UNL d   1     -40.958  14.719  18.352  0.00  0.00    -0.203 F 
ATOM     11  C   UNL d   1     -39.799  15.532  18.171  0.00  0.00     0.031 A 
ATOM     12  C   UNL d   1     -39.148  15.922  18.463  0.00  0.00     0.002 A 
ATOM     13  C   UNL d   1     -38.976  15.898  19.284  0.00  0.00     0.002 A 
ATOM     14  C   UNL d   1     -39.480  15.473  19.781  0.00  0.00     0.020 A 
ENDBRANCH   5   8
ENDBRANCH   1   2
BRANCH   1  15
ATOM     15  C   UNL d   1     -42.868  13.112  21.154  0.00  0.00     0.238 C 
ATOM     16  O   UNL d   1     -42.818  12.625  20.352  0.00  0.00    -0.283 OA
BRANCH  15  17
ATOM     17  C   UNL d   1     -43.569  13.230  21.555  0.00  0.00     0.166 C 
BRANCH  17  18
ATOM     18  O   UNL d   1     -44.051  12.573  21.740  0.00  0.00    -0.302 OA
BRANCH  18  19
ATOM     19  C   UNL d   1     -44.774  12.689  22.102  0.00  0.00     0.100 A 
ATOM     20  C   UNL d   1     -45.040  12.181  22.696  0.00  0.00     0.026 A 
ATOM     21  C   UNL d   1     -45.773  12.296  23.067  0.00  0.00     0.026 A 
ATOM     22  C   UNL d   1     -46.258  12.946  22.833  0.00  0.00     0.127 A 
ATOM     23  C   UNL d   1     -45.992  13.454  22.239  0.00  0.00     0.026 A 
ATOM     24  C   UNL d   1     -45.247  13.328  21.870  0.00  0.00     0.026 A 
BRANCH  22  25
ATOM     25  N   UNL d   1     -46.992  13.080  23.188  0.00  0.00    -0.114 N 
ATOM     26  O   UNL d   1     -47.291  13.823  23.388  0.00  0.00    -0.532 OA
ATOM     27  O   UNL d   1     -47.522  12.486  23.389  0.00  0.00    -0.532 OA
ENDBRANCH  22  25
ENDBRANCH  18  19
ENDBRANCH  17  18
ENDBRANCH  15  17
ENDBRANCH   1  15
TORSDOF 7
ENDMDL
MODEL 5
REMARK VINA RESULT:      -3.9      1.666      2.739
REMARK  7 active torsions:
REMARK  status: ('A' for Active; 'I' for Inactive)
REMARK    1  A    between atoms: C_5  and  N_1 
REMARK    2  A    between atoms: C_3  and  N_2 
REMARK    3  A    between atoms: N_4  and  C_11 
REMARK    4  A    between atoms: C_11  and  C_17 
REMARK    5  A    between atoms: O_16  and  C_18 
REMARK    6  A    between atoms: C_20  and  O_16 
REMARK    7  A    between atoms: C_17  and  C_20 
ROOT
ATOM      1  C   UNL d   1     -43.919  12.722  22.169  0.00  0.00     0.125 C 
ENDROOT
BRANCH   1   2
ATOM      2  N   UNL d   1     -44.701  12.831  22.259  0.00  0.00    -0.297 N 
ATOM      3  C   UNL d   1     -45.068  13.544  22.092  0.00  0.00     0.100 A 
ATOM      4  C   UNL d   1     -45.858  13.654  22.183  0.00  0.00     0.100 A 
ATOM      5  N   UNL d   1     -46.337  13.018  22.459  0.00  0.00    -0.299 N 
ATOM      6  C   UNL d   1     -45.984  12.299  22.629  0.00  0.00     0.100 A 
ATOM      7  C   UNL d   1     -45.181  12.187  22.537  0.00  0.00     0.100 A 
BRANCH   5   8
ATOM      8  C   UNL d   1     -47.149  13.131  22.552  0.00  0.00     0.092 A 
ATOM      9  C   UNL d   1     -47.642  13.062  21.886  0.00  0.00     0.156 A 
ATOM     10  F   UNL d   1     -47.332  12.882  21.141  0.00  0.00    -0.203 F 
ATOM     11  C   UNL d   1     -48.450  13.174  21.979  0.00  0.00     0.031 A 
ATOM     12  C   UNL d   1     -48.773  13.351  22.704  0.00  0.00     0.002 A 
ATOM     13  C   UNL d   1     -48.277  13.421  23.378  0.00  0.00     0.002 A 
ATOM     14  C   UNL d   1     -47.465  13.308  23.285  0.00  0.00     0.020 A 
ENDBRANCH   5   8
ENDBRANCH   1   2
BRANCH   1  15
ATOM     15  C   UNL d   1     -43.549  12.939  21.454  0.00  0.00     0.238 C 
ATOM     16  O   UNL d   1     -43.866  12.543  20.663  0.00  0.00    -0.283 OA
BRANCH  15  17
ATOM     17  C   UNL d   1     -42.936  13.478  21.461  0.00  0.00     0.166 C 
BRANCH  17  18
ATOM     18  O   UNL d   1     -42.253  13.328  21.003  0.00  0.00    -0.302 OA
BRANCH  18  19
ATOM     19  C   UNL d   1     -41.623  13.847  21.034  0.00  0.00     0.100 A 
ATOM     20  C   UNL d   1     -41.678  14.604  20.710  0.00  0.00     0.026 A 
ATOM     21  C   UNL d   1     -41.041  15.134  20.738  0.00  0.00     0.026 A 
ATOM     22  C   UNL d   1     -40.319  14.895  21.107  0.00  0.00     0.127 A 
ATOM     23  C   UNL d   1     -40.264  14.137  21.431  0.00  0.00     0.026 A 
ATOM     24  C   UNL d   1     -40.917  13.608  21.396  0.00  0.00     0.026 A 
BRANCH  22  25
ATOM     25  N   UNL d   1     -39.671  15.405  21.148  0.00  0.00    -0.114 N 
ATOM     26  O   UNL d   1     -39.081  15.466  20.574  0.00  0.00    -0.532 OA
ATOM     27  O   UNL d   1     -39.529  15.922  21.770  0.00  0.00    -0.532 OA
ENDBRANCH  22  25
ENDBRANCH  18  19
ENDBRANCH  17  18
ENDBRANCH  15  17
ENDBRANCH   1  15
TORSDOF 7
ENDMDL
MODEL 6
REMARK VINA RESULT:      -3.8      5.238      9.035
REMARK  7 active torsions:
REMARK  status: ('A' for Active; 'I' for Inactive)
REMARK    1  A    between atoms: C_5  and  N_1 
REMARK    2  A    between atoms: C_3  and  N_2 
REMARK    3  A    between atoms: N_4  and  C_11 
REMARK    4  A    between atoms: C_11  and  C_17 
REMARK    5  A    between atoms: O_16  and  C_18 
REMARK    6  A    between atoms: C_20  and  O_16 
REMARK    7  A    between atoms: C_17  and  C_20 
ROOT
ATOM      1  C   UNL d   1     -39.677  15.922  19.046  0.00  0.00     0.125 C 
ENDROOT
BRANCH   1   2
ATOM      2  N   UNL d   1     -39.390  15.599  18.379  0.00  0.00    -0.297 N 
ATOM      3  C   UNL d   1     -38.590  15.462  18.265  0.00  0.00     0.100 A 
ATOM      4  C   UNL d   1     -38.300  15.136  17.591  0.00  0.00     0.100 A 
ATOM      5  N   UNL d   1     -38.829  14.922  16.972  0.00  0.00    -0.299 N 
ATOM      6  C   UNL d   1     -39.632  15.053  17.072  0.00  0.00     0.100 A 
ATOM      7  C   UNL d   1     -39.927  15.385  17.756  0.00  0.00     0.100 A 
BRANCH   5   8
ATOM      8  C   UNL d   1     -38.531  14.587  16.280  0.00  0.00     0.092 A 
ATOM      9  C   UNL d   1     -38.483  13.759  16.223  0.00  0.00     0.156 A 
ATOM     10  F   UNL d   1     -38.728  13.273  16.846  0.00  0.00    -0.203 F 
ATOM     11  C   UNL d   1     -38.186  13.425  15.535  0.00  0.00     0.031 A 
ATOM     12  C   UNL d   1     -37.940  13.887  14.913  0.00  0.00     0.002 A 
ATOM     13  C   UNL d   1     -37.987  14.724  14.966  0.00  0.00     0.002 A 
ATOM     14  C   UNL d   1     -38.286  15.059  15.659  0.00  0.00     0.020 A 
ENDBRANCH   5   8
ENDBRANCH   1   2
BRANCH   1  15
ATOM     15  C   UNL d   1     -39.762  15.453  19.731  0.00  0.00     0.238 C 
ATOM     16  O   UNL d   1     -39.006  15.346  20.279  0.00  0.00    -0.283 OA
BRANCH  15  17
ATOM     17  C   UNL d   1     -40.482  15.109  19.901  0.00  0.00     0.166 C 
BRANCH  17  18
ATOM     18  O   UNL d   1     -40.682  14.950  20.697  0.00  0.00    -0.302 OA
BRANCH  18  19
ATOM     19  C   UNL d   1     -41.275  14.414  20.866  0.00  0.00     0.100 A 
ATOM     20  C   UNL d   1     -41.991  14.660  21.196  0.00  0.00     0.026 A 
ATOM     21  C   UNL d   1     -42.595  14.119  21.369  0.00  0.00     0.026 A 
ATOM     22  C   UNL d   1     -42.477  13.299  21.205  0.00  0.00     0.127 A 
ATOM     23  C   UNL d   1     -41.761  13.053  20.875  0.00  0.00     0.026 A 
ATOM     24  C   UNL d   1     -41.155  13.611  20.703  0.00  0.00     0.026 A 
BRANCH  22  25
ATOM     25  N   UNL d   1     -43.065  12.743  21.369  0.00  0.00    -0.114 N 
ATOM     26  O   UNL d   1     -43.059  12.225  22.012  0.00  0.00    -0.532 OA
ATOM     27  O   UNL d   1     -43.736  12.631  20.909  0.00  0.00    -0.532 OA
ENDBRANCH  22  25
ENDBRANCH  18  19
ENDBRANCH  17  18
ENDBRANCH  15  17
ENDBRANCH   1  15
TORSDOF 7
ENDMDL
MODEL 7
REMARK VINA RESULT:      -3.1      7.845      9.768
REMARK  7 active torsions:
REMARK  status: ('A' for Active; 'I' for Inactive)
REMARK    1  A    between atoms: C_5  and  N_1 
REMARK    2  A    between atoms: C_3  and  N_2 
REMARK    3  A    between atoms: N_4  and  C_11 
REMARK    4  A    between atoms: C_11  and  C_17 
REMARK    5  A    between atoms: O_16  and  C_18 
REMARK    6  A    between atoms: C_20  and  O_16 
REMARK    7  A    between atoms: C_17  and  C_20 
ROOT
ATOM      1  C   UNL d   1     -39.040  15.712  18.460  0.00  0.00     0.125 C 
ENDROOT
BRANCH   1   2
ATOM      2  N   UNL d   1     -38.860  15.416  17.745  0.00  0.00    -0.297 N 
ATOM      3  C   UNL d   1     -38.486  15.859  17.166  0.00  0.00     0.100 A 
ATOM      4  C   UNL d   1     -38.303  15.560  16.444  0.00  0.00     0.100 A 
ATOM      5  N   UNL d   1     -38.500  14.761  16.264  0.00  0.00    -0.299 N 
ATOM      6  C   UNL d   1     -38.874  14.306  16.833  0.00  0.00     0.100 A 
ATOM      7  C   UNL d   1     -39.060  14.610  17.567  0.00  0.00     0.100 A 
BRANCH   5   8
ATOM      8  C   UNL d   1     -38.313  14.454  15.522  0.00  0.00     0.092 A 
ATOM      9  C   UNL d   1     -38.240  13.630  15.435  0.00  0.00     0.156 A 
ATOM     10  F   UNL d   1     -38.351  13.122  16.078  0.00  0.00    -0.203 F 
ATOM     11  C   UNL d   1     -38.053  13.324  14.697  0.00  0.00     0.031 A 
ATOM     12  C   UNL d   1     -37.940  13.809  14.054  0.00  0.00     0.002 A 
ATOM     13  C   UNL d   1     -38.013  14.641  14.138  0.00  0.00     0.002 A 
ATOM     14  C   UNL d   1     -38.200  14.949  14.880  0.00  0.00     0.020 A 
ENDBRANCH   5   8
ENDBRANCH   1   2
BRANCH   1  15
ATOM     15  C   UNL d   1     -39.703  15.420  18.875  0.00  0.00     0.238 C 
ATOM     16  O   UNL d   1     -40.549  15.548  18.488  0.00  0.00    -0.283 OA
BRANCH  15  17
ATOM     17  C   UNL d   1     -39.599  15.039  19.589  0.00  0.00     0.166 C 
BRANCH  17  18
ATOM     18  O   UNL d   1     -39.835  15.420  20.295  0.00  0.00    -0.302 OA
BRANCH  18  19
ATOM     19  C   UNL d   1     -39.560  15.147  21.014  0.00  0.00     0.100 A 
ATOM     20  C   UNL d   1     -39.551  14.340  21.189  0.00  0.00     0.026 A 
ATOM     21  C   UNL d   1     -39.273  14.059  21.918  0.00  0.00     0.026 A 
ATOM     22  C   UNL d   1     -38.992  14.610  22.494  0.00  0.00     0.127 A 
ATOM     23  C   UNL d   1     -39.001  15.416  22.319  0.00  0.00     0.026 A 
ATOM     24  C   UNL d   1     -39.286  15.690  21.576  0.00  0.00     0.026 A 
BRANCH  22  25
ATOM     25  N   UNL d   1     -38.710  14.353  23.227  0.00  0.00    -0.114 N 
ATOM     26  O   UNL d   1     -39.057  13.759  23.685  0.00  0.00    -0.532 OA
ATOM     27  O   UNL d   1     -38.044  14.657  23.597  0.00  0.00    -0.532 OA
ENDBRANCH  22  25
ENDBRANCH  18  19
ENDBRANCH  17  18
ENDBRANCH  15  17
ENDBRANCH   1  15
TORSDOF 7
ENDMDL
