MODEL 1
REMARK VINA RESULT:      62.7      0.000      0.000
REMARK  3 active torsions:
REMARK  status: ('A' for Active; 'I' for Inactive)
REMARK    1  A    between atoms: C_6  and  C_1 
REMARK    2  A    between atoms: C_5  and  N_2 
REMARK    3  A    between atoms: N_4  and  C_6 
ROOT
ATOM      1  N   UNL d   1     -57.310 -99.246 -45.011  0.00  0.00    -0.299 N 
ATOM      2  N   UNL d   1     -55.827 -99.562 -44.476  0.00  0.00    -0.300 N 
ATOM      3  C   UNL d   1     -56.695 -98.759 -45.217  0.00  0.00     0.100 A 
ATOM      4  C   UNL d   1     -57.188 -99.904 -44.530  0.00  0.00     0.100 A 
ATOM      5  C   UNL d   1     -55.954 -98.917 -44.950  0.00  0.00     0.100 A 
ATOM      6  C   UNL d   1     -56.446-100.062 -44.262  0.00  0.00     0.100 A 
ENDROOT
BRANCH   2   7
ATOM      7  C   UNL d   1     -55.056 -99.741 -44.188  0.00  0.00     0.084 C 
BRANCH   7   8
ATOM      8  C   UNL d   1     -54.939-100.264 -43.535  0.00  0.00     0.057 A 
ATOM      9  C   UNL d   1     -54.887-101.047 -43.694  0.00  0.00     0.004 A 
ATOM     10  C   UNL d   1     -54.768-101.590 -43.034  0.00  0.00     0.000 A 
ATOM     11  C   UNL d   1     -54.943-101.344 -44.462  0.00  0.00     0.000 A 
ATOM     12  C   UNL d   1     -54.712-102.398 -43.184  0.00  0.00     0.000 A 
ATOM     13  C   UNL d   1     -54.713-101.300 -42.286  0.00  0.00     0.003 A 
ATOM     14  C   UNL d   1     -54.774-102.652 -43.968  0.00  0.00     0.000 A 
ATOM     15  C   UNL d   1     -54.880-102.186 -44.573  0.00  0.00     0.000 A 
ATOM     16  C   UNL d   1     -54.775-100.453 -42.159  0.00  0.00     0.042 A 
ATOM     17  C   UNL d   1     -54.881 -99.988 -42.763  0.00  0.00     0.197 A 
ATOM     18  O   UNL d   1     -54.938 -99.156 -42.608  0.00  0.00    -0.286 OA
ENDBRANCH   7   8
ENDBRANCH   2   7
BRANCH   1  19
ATOM     19  C   UNL d   1     -58.086 -99.081 -45.292  0.00  0.00     0.092 A 
ATOM     20  C   UNL d   1     -58.716 -99.081 -44.753  0.00  0.00     0.156 A 
ATOM     21  F   UNL d   1     -58.603 -99.239 -43.952  0.00  0.00    -0.203 F 
ATOM     22  C   UNL d   1     -59.500 -98.914 -45.036  0.00  0.00     0.031 A 
ATOM     23  C   UNL d   1     -59.611 -98.756 -45.842  0.00  0.00     0.002 A 
ATOM     24  C   UNL d   1     -58.989 -98.758 -46.360  0.00  0.00     0.002 A 
ATOM     25  C   UNL d   1     -58.205 -98.925 -46.077  0.00  0.00     0.020 A 
ENDBRANCH   1  19
TORSDOF 3
ENDMDL
