MODEL 1
REMARK VINA RESULT:      22.4      0.000      0.000
REMARK  4 active torsions:
REMARK  status: ('A' for Active; 'I' for Inactive)
REMARK    1  A    between atoms: N_6  and  C_1 
REMARK    2  A    between atoms: C_7  and  N_2 
REMARK    3  A    between atoms: C_11  and  N_6 
REMARK    4  A    between atoms: C_14  and  C_11 
ROOT
ATOM      1  C   UNL d   1      58.772  49.639  50.549  0.00  0.00     0.735 A 
ATOM      2  N   UNL d   1      58.021  49.663  50.890  0.00  0.00    -0.139 N 
ATOM      3  N   UNL d   1      58.663  49.636  49.707  0.00  0.00    -0.059 NA
ATOM      4  C   UNL d   1      57.465  49.676  50.308  0.00  0.00     0.100 A 
ATOM      5  C   UNL d   1      57.870  49.659  49.562  0.00  0.00     0.116 A 
ATOM      6  C   UNL d   1      56.642  49.701  50.330  0.00  0.00     0.020 A 
ATOM      7  C   UNL d   1      57.385  49.668  48.896  0.00  0.00     0.021 A 
ATOM      8  C   UNL d   1      56.233  49.708  49.640  0.00  0.00     0.002 A 
ATOM      9  C   UNL d   1      56.627  49.691  48.914  0.00  0.00     0.002 A 
ENDROOT
BRANCH   1  10
ATOM     10  N   UNL d   1      59.511  49.619  50.916  0.00  0.00    -0.056 NA
BRANCH  10  11
ATOM     11  C   UNL d   1      60.123  49.265  50.537  0.00  0.00     0.163 C 
BRANCH  11  12
ATOM     12  C   UNL d   1      60.875  49.295  50.877  0.00  0.00     0.255 C 
ATOM     13  O   UNL d   1      61.533  49.505  50.403  0.00  0.00    -0.281 OA
ENDBRANCH  11  12
ENDBRANCH  10  11
ENDBRANCH   1  10
BRANCH   2  14
ATOM     14  C   UNL d   1      58.057  49.668  51.688  0.00  0.00     0.082 C 
ATOM     15  C   UNL d   1      57.353  49.632  52.124  0.00  0.00     0.020 C 
ATOM     16  C   UNL d   1      58.793  49.708  52.060  0.00  0.00     0.020 C 
ENDBRANCH   2  14
TORSDOF 4
ENDMDL
MODEL 2
REMARK VINA RESULT:      24.7      1.553      3.062
REMARK  4 active torsions:
REMARK  status: ('A' for Active; 'I' for Inactive)
REMARK    1  A    between atoms: N_6  and  C_1 
REMARK    2  A    between atoms: C_7  and  N_2 
REMARK    3  A    between atoms: C_11  and  N_6 
REMARK    4  A    between atoms: C_14  and  C_11 
ROOT
ATOM      1  C   UNL d   1      58.322  49.672  50.568  0.00  0.00     0.735 A 
ATOM      2  N   UNL d   1      58.778  49.651  51.256  0.00  0.00    -0.139 N 
ATOM      3  N   UNL d   1      58.863  49.687  49.913  0.00  0.00    -0.059 NA
ATOM      4  C   UNL d   1      59.558  49.651  51.059  0.00  0.00     0.100 A 
ATOM      5  C   UNL d   1      59.611  49.674  50.212  0.00  0.00     0.116 A 
ATOM      6  C   UNL d   1      60.244  49.634  51.515  0.00  0.00     0.020 A 
ATOM      7  C   UNL d   1      60.376  49.677  49.906  0.00  0.00     0.021 A 
ATOM      8  C   UNL d   1      60.957  49.640  51.148  0.00  0.00     0.002 A 
ATOM      9  C   UNL d   1      61.009  49.662  50.325  0.00  0.00     0.002 A 
ENDROOT
BRANCH   1  10
ATOM     10  N   UNL d   1      57.501  49.680  50.486  0.00  0.00    -0.056 NA
BRANCH  10  11
ATOM     11  C   UNL d   1      57.163  49.215  49.926  0.00  0.00     0.163 C 
BRANCH  11  12
ATOM     12  C   UNL d   1      56.349  49.273  49.797  0.00  0.00     0.255 C 
ATOM     13  O   UNL d   1      56.070  49.638  49.097  0.00  0.00    -0.281 OA
ENDBRANCH  11  12
ENDBRANCH  10  11
ENDBRANCH   1  10
BRANCH   2  14
ATOM     14  C   UNL d   1      58.323  49.636  51.914  0.00  0.00     0.082 C 
ATOM     15  C   UNL d   1      58.686  49.557  52.654  0.00  0.00     0.020 C 
ATOM     16  C   UNL d   1      57.503  49.699  51.839  0.00  0.00     0.020 C 
ENDBRANCH   2  14
TORSDOF 4
ENDMDL
