MODEL 1
REMARK VINA RESULT:      77.2      0.000      0.000
REMARK  5 active torsions:
REMARK  status: ('A' for Active; 'I' for Inactive)
REMARK    1  A    between atoms: N_9  and  C_2 
REMARK    2  A    between atoms: N_11  and  C_6 
REMARK    3  A    between atoms: C_16  and  N_11 
REMARK    4  A    between atoms: C_15  and  N_12 
REMARK    5  A    between atoms: C_24  and  C_15 
ROOT
ATOM      1  N   UNL d   1     -55.127-101.563 -42.984  0.00  0.00    -0.041 NA
ATOM      2  C   UNL d   1     -55.256-101.069 -42.391  0.00  0.00     0.738 A 
ATOM      3  C   UNL d   1     -55.257-101.331 -43.720  0.00  0.00     0.187 A 
ATOM      4  N   UNL d   1     -55.516-100.339 -42.535  0.00  0.00    -0.041 NA
ATOM      5  C   UNL d   1     -55.517-100.602 -43.867  0.00  0.00     0.094 A 
ATOM      6  C   UNL d   1     -55.649-100.100 -43.272  0.00  0.00     0.185 A 
ATOM      7  N   UNL d   1     -55.258-101.596 -45.064  0.00  0.00    -0.162 NA
ATOM      8  N   UNL d   1     -55.126-101.833 -44.315  0.00  0.00    -0.208 N 
ATOM      9  C   UNL d   1     -55.519-100.866 -45.208  0.00  0.00     0.127 A 
ATOM     10  C   UNL d   1     -54.867-102.559 -44.172  0.00  0.00     0.123 C 
ENDROOT
BRANCH   2  11
ATOM     11  N   UNL d   1     -55.119-101.312 -41.609  0.00  0.00    -0.134 N 
ATOM     12  C   UNL d   1     -55.209-102.112 -41.403  0.00  0.00     0.117 A 
ATOM     13  C   UNL d   1     -55.072-102.357 -40.617  0.00  0.00     0.100 A 
ATOM     14  N   UNL d   1     -54.849-101.809 -40.050  0.00  0.00    -0.300 N 
ATOM     15  C   UNL d   1     -54.759-101.008 -40.255  0.00  0.00     0.100 A 
ATOM     16  C   UNL d   1     -54.892-100.760 -41.028  0.00  0.00     0.117 A 
BRANCH  14  17
ATOM     17  C   UNL d   1     -54.711-102.042 -39.267  0.00  0.00     0.080 C 
BRANCH  17  18
ATOM     18  C   UNL d   1     -54.832-101.927 -38.458  0.00  0.00     0.018 A 
ATOM     19  C   UNL d   1     -54.727-101.174 -38.123  0.00  0.00     0.002 A 
ATOM     20  C   UNL d   1     -54.850-101.068 -37.320  0.00  0.00     0.000 A 
ATOM     21  C   UNL d   1     -55.077-101.698 -36.836  0.00  0.00     0.000 A 
ATOM     22  C   UNL d   1     -55.182-102.451 -37.171  0.00  0.00     0.000 A 
ATOM     23  C   UNL d   1     -55.058-102.564 -37.987  0.00  0.00     0.002 A 
ENDBRANCH  17  18
ENDBRANCH  14  17
ENDBRANCH   2  11
BRANCH   6  24
ATOM     24  N   UNL d   1     -55.919 -99.340 -43.413  0.00  0.00    -0.226 NA
BRANCH  24  25
ATOM     25  C   UNL d   1     -56.510 -99.206 -43.967  0.00  0.00     0.083 A 
ATOM     26  C   UNL d   1     -57.299 -99.189 -43.733  0.00  0.00     0.021 A 
ATOM     27  C   UNL d   1     -57.899 -99.053 -44.293  0.00  0.00     0.031 A 
ATOM     28  C   UNL d   1     -57.709 -98.935 -45.084  0.00  0.00     0.140 A 
ATOM     29  C   UNL d   1     -56.915 -98.951 -45.328  0.00  0.00     0.031 A 
ATOM     30  F   UNL d   1     -58.306 -98.802 -45.632  0.00  0.00    -0.204 F 
ATOM     31  C   UNL d   1     -56.323 -99.086 -44.769  0.00  0.00     0.021 A 
ENDBRANCH  24  25
ENDBRANCH   6  24
TORSDOF 5
ENDMDL
