MODEL 1
REMARK VINA RESULT:      53.9      0.000      0.000
REMARK  4 active torsions:
REMARK  status: ('A' for Active; 'I' for Inactive)
REMARK    1  A    between atoms: C_2  and  C_1 
REMARK    2  A    between atoms: N_8  and  C_3 
REMARK    3  A    between atoms: C_15  and  N_8 
REMARK    4  A    between atoms: O_18  and  C_16 
ROOT
ATOM      1  C   UNL d   1      14.121  14.025  -2.861  0.00  0.00     0.077 A 
ATOM      2  C   UNL d   1      14.310  13.679  -2.137  0.00  0.00     0.185 A 
ATOM      3  C   UNL d   1      14.229  14.831  -2.973  0.00  0.00     0.009 A 
ATOM      4  O   UNL d   1      14.607  14.139  -1.524  0.00  0.00    -0.289 OA
ATOM      5  C   UNL d   1      14.527  15.298  -2.359  0.00  0.00     0.025 A 
ATOM      6  C   UNL d   1      14.716  14.952  -1.635  0.00  0.00     0.102 A 
ATOM      7  C   UNL d   1      14.628  16.084  -2.479  0.00  0.00     0.026 A 
ATOM      8  C   UNL d   1      15.006  15.391  -1.030  0.00  0.00     0.027 A 
ATOM      9  C   UNL d   1      14.928  16.555  -1.863  0.00  0.00     0.094 A 
ATOM     10  C   UNL d   1      15.117  16.208  -1.139  0.00  0.00     0.026 A 
ENDROOT
BRANCH   1  11
ATOM     11  C   UNL d   1      13.828  13.567  -3.466  0.00  0.00     0.166 A 
ATOM     12  N   UNL d   1      13.823  13.775  -4.232  0.00  0.00    -0.225 NA
ATOM     13  C   UNL d   1      13.496  13.197  -4.668  0.00  0.00     0.101 A 
ATOM     14  C   UNL d   1      13.340  13.091  -5.478  0.00  0.00     0.021 A 
ATOM     15  C   UNL d   1      13.287  12.593  -4.130  0.00  0.00     0.101 A 
ATOM     16  C   UNL d   1      12.973  12.375  -5.728  0.00  0.00     0.002 A 
ATOM     17  C   UNL d   1      12.769  11.779  -5.180  0.00  0.00     0.002 A 
ATOM     18  C   UNL d   1      12.911  11.868  -4.414  0.00  0.00     0.021 A 
ATOM     19  N   UNL d   1      13.506  12.848  -3.369  0.00  0.00    -0.225 NA
ENDBRANCH   1  11
BRANCH   2  20
ATOM     20  N   UNL d   1      14.201  12.867  -2.026  0.00  0.00    -0.222 NA
BRANCH  20  21
ATOM     21  C   UNL d   1      14.495  12.505  -1.360  0.00  0.00     0.084 A 
ATOM     22  C   UNL d   1      14.018  12.435  -0.704  0.00  0.00     0.019 A 
ATOM     23  C   UNL d   1      14.310  12.075  -0.042  0.00  0.00     0.002 A 
ATOM     24  C   UNL d   1      15.071  11.781  -0.014  0.00  0.00     0.000 A 
ATOM     25  C   UNL d   1      15.536  11.859  -0.679  0.00  0.00     0.002 A 
ATOM     26  C   UNL d   1      15.248  12.225  -1.361  0.00  0.00     0.019 A 
ENDBRANCH  20  21
ENDBRANCH   2  20
BRANCH   9  27
ATOM     27  O   UNL d   1      15.032  17.343  -1.976  0.00  0.00    -0.328 OA
ATOM     28  C   UNL d   1      15.417  17.777  -1.438  0.00  0.00     0.181 C 
ENDBRANCH   9  27
TORSDOF 4
ENDMDL
MODEL 2
REMARK VINA RESULT:      54.5      1.286      3.895
REMARK  4 active torsions:
REMARK  status: ('A' for Active; 'I' for Inactive)
REMARK    1  A    between atoms: C_2  and  C_1 
REMARK    2  A    between atoms: N_8  and  C_3 
REMARK    3  A    between atoms: C_15  and  N_8 
REMARK    4  A    between atoms: O_18  and  C_16 
ROOT
ATOM      1  C   UNL d   1      14.078  14.020  -2.619  0.00  0.00     0.077 A 
ATOM      2  C   UNL d   1      13.924  13.407  -2.088  0.00  0.00     0.185 A 
ATOM      3  C   UNL d   1      13.929  13.918  -3.420  0.00  0.00     0.009 A 
ATOM      4  O   UNL d   1      13.621  12.693  -2.358  0.00  0.00    -0.289 OA
ATOM      5  C   UNL d   1      13.623  13.201  -3.696  0.00  0.00     0.025 A 
ATOM      6  C   UNL d   1      13.469  12.588  -3.165  0.00  0.00     0.102 A 
ATOM      7  C   UNL d   1      13.481  13.112  -4.479  0.00  0.00     0.026 A 
ATOM      8  C   UNL d   1      13.174  11.888  -3.417  0.00  0.00     0.027 A 
ATOM      9  C   UNL d   1      13.175  12.392  -4.759  0.00  0.00     0.094 A 
ATOM     10  C   UNL d   1      13.021  11.780  -4.228  0.00  0.00     0.026 A 
ENDROOT
BRANCH   1  11
ATOM     11  C   UNL d   1      14.378  14.726  -2.348  0.00  0.00     0.166 A 
ATOM     12  N   UNL d   1      14.517  15.363  -2.801  0.00  0.00    -0.225 NA
ATOM     13  C   UNL d   1      14.810  15.953  -2.356  0.00  0.00     0.101 A 
ATOM     14  C   UNL d   1      15.057  16.733  -2.506  0.00  0.00     0.021 A 
ATOM     15  C   UNL d   1      14.852  15.654  -1.577  0.00  0.00     0.101 A 
ATOM     16  C   UNL d   1      15.342  17.197  -1.863  0.00  0.00     0.002 A 
ATOM     17  C   UNL d   1      15.379  16.886  -1.089  0.00  0.00     0.002 A 
ATOM     18  C   UNL d   1      15.149  16.153  -0.935  0.00  0.00     0.021 A 
ATOM     19  N   UNL d   1      14.573  14.871  -1.593  0.00  0.00    -0.225 NA
ENDBRANCH   1  11
BRANCH   2  20
ATOM     20  N   UNL d   1      14.075  13.512  -1.282  0.00  0.00    -0.222 NA
BRANCH  20  21
ATOM     21  C   UNL d   1      14.473  12.938  -0.866  0.00  0.00     0.084 A 
ATOM     22  C   UNL d   1      14.048  12.400  -0.428  0.00  0.00     0.019 A 
ATOM     23  C   UNL d   1      14.444  11.829  -0.014  0.00  0.00     0.002 A 
ATOM     24  C   UNL d   1      15.258  11.780  -0.024  0.00  0.00     0.000 A 
ATOM     25  C   UNL d   1      15.669  12.327  -0.468  0.00  0.00     0.002 A 
ATOM     26  C   UNL d   1      15.276  12.913  -0.894  0.00  0.00     0.019 A 
ENDBRANCH  20  21
ENDBRANCH   2  20
BRANCH   9  27
ATOM     27  O   UNL d   1      13.030  12.296  -5.543  0.00  0.00    -0.328 OA
ATOM     28  C   UNL d   1      13.599  12.036  -6.026  0.00  0.00     0.181 C 
ENDBRANCH   9  27
TORSDOF 4
ENDMDL
