MODEL 1
REMARK VINA RESULT:      24.5      0.000      0.000
REMARK  5 active torsions:
REMARK  status: ('A' for Active; 'I' for Inactive)
REMARK    1  A    between atoms: N_2  and  S_1 
REMARK    2  A    between atoms: C_4  and  S_1 
REMARK    3  A    between atoms: C_3  and  C_6 
REMARK    4  A    between atoms: C_12  and  N_5 
REMARK    5  A    between atoms: O_24  and  C_20 
ROOT
ATOM      1  N   UNL d   1      45.979 -13.922  44.379  0.00  0.00    -0.226 N 
ATOM      2  N   UNL d   1      45.980 -15.559  44.208  0.00  0.00    -0.301 N 
ATOM      3  C   UNL d   1      46.418 -14.275  43.775  0.00  0.00     0.111 A 
ATOM      4  C   UNL d   1      45.536 -14.397  44.903  0.00  0.00     0.111 A 
ATOM      5  C   UNL d   1      45.541 -15.217  44.812  0.00  0.00     0.100 A 
ATOM      6  C   UNL d   1      46.415 -15.088  43.694  0.00  0.00     0.100 A 
ENDROOT
BRANCH   1   7
ATOM      7  S   UNL d   1      45.974 -13.114  44.469  0.00  0.00     0.271 S 
ATOM      8  O   UNL d   1      45.970 -12.294  44.560  0.00  0.00    -0.200 OA
ATOM      9  O   UNL d   1      46.631 -13.160  44.953  0.00  0.00    -0.200 OA
BRANCH   7  10
ATOM     10  C   UNL d   1      45.311 -13.063  43.981  0.00  0.00     0.104 A 
ATOM     11  C   UNL d   1      45.373 -12.744  43.221  0.00  0.00     0.017 A 
ATOM     12  C   UNL d   1      44.709 -12.693  42.733  0.00  0.00     0.072 A 
ATOM     13  C   UNL d   1      43.979 -12.961  43.000  0.00  0.00     0.004 A 
ATOM     14  C   UNL d   1      43.906 -13.284  43.762  0.00  0.00     0.001 A 
ATOM     15  C   UNL d   1      44.576 -13.335  44.255  0.00  0.00     0.013 A 
BRANCH  12  16
ATOM     16  C   UNL d   1      44.777 -12.374  41.976  0.00  0.00     0.419 C 
ATOM     17  F   UNL d   1      44.158 -12.094  41.453  0.00  0.00    -0.166 F 
ATOM     18  F   UNL d   1      45.484 -12.235  41.505  0.00  0.00    -0.166 F 
ATOM     19  F   UNL d   1      44.836 -12.082  41.283  0.00  0.00    -0.166 F 
ENDBRANCH  12  16
ENDBRANCH   7  10
ENDBRANCH   1   7
BRANCH   2  20
ATOM     20  C   UNL d   1      45.984 -16.378  44.117  0.00  0.00     0.064 A 
ATOM     21  C   UNL d   1      46.058 -16.866  44.777  0.00  0.00     0.020 A 
ATOM     22  C   UNL d   1      46.062 -17.686  44.686  0.00  0.00     0.026 A 
ATOM     23  C   UNL d   1      45.993 -18.018  43.935  0.00  0.00     0.094 A 
ATOM     24  C   UNL d   1      45.919 -17.522  43.273  0.00  0.00     0.026 A 
ATOM     25  C   UNL d   1      45.915 -16.702  43.368  0.00  0.00     0.020 A 
BRANCH  23  26
ATOM     26  O   UNL d   1      45.997 -18.837  43.840  0.00  0.00    -0.328 OA
ATOM     27  C   UNL d   1      46.352 -19.177  43.170  0.00  0.00     0.181 C 
ENDBRANCH  23  26
ENDBRANCH   2  20
TORSDOF 5
ENDMDL
