MODEL 1
REMARK VINA RESULT:      -7.5      0.000      0.000
REMARK  4 active torsions:
REMARK  status: ('A' for Active; 'I' for Inactive)
REMARK    1  A    between atoms: N_10  and  C_3 
REMARK    2  A    between atoms: C_12  and  C_5 
REMARK    3  A    between atoms: C_11  and  C_8 
REMARK    4  A    between atoms: C_13  and  N_10 
ROOT
ATOM      1  C   UNL d   1     -48.416  14.151  22.753  0.00  0.00     0.168 A 
ATOM      2  N   UNL d   1     -47.600  13.988  22.654  0.00  0.00    -0.184 N 
ATOM      3  C   UNL d   1     -47.360  13.219  22.647  0.00  0.00     0.217 A 
ATOM      4  N   UNL d   1     -48.946  13.535  22.840  0.00  0.00    -0.231 NA
ATOM      5  C   UNL d   1     -48.679  14.916  22.763  0.00  0.00     0.057 A 
ATOM      6  N   UNL d   1     -47.348  15.363  22.578  0.00  0.00    -0.160 NA
ATOM      7  C   UNL d   1     -47.883  12.593  22.734  0.00  0.00     0.067 A 
ATOM      8  C   UNL d   1     -48.686  12.753  22.831  0.00  0.00     0.064 A 
ATOM      9  C   UNL d   1     -48.152  15.523  22.676  0.00  0.00     0.124 A 
ENDROOT
BRANCH   5  10
ATOM     10  C   UNL d   1     -49.483  15.076  22.860  0.00  0.00     0.004 A 
ATOM     11  C   UNL d   1     -49.965  15.078  22.210  0.00  0.00     0.000 A 
ATOM     12  C   UNL d   1     -50.768  15.238  22.307  0.00  0.00     0.000 A 
ATOM     13  C   UNL d   1     -51.064  15.392  23.052  0.00  0.00     0.000 A 
ATOM     14  C   UNL d   1     -50.570  15.386  23.694  0.00  0.00     0.000 A 
ATOM     15  C   UNL d   1     -49.767  15.226  23.596  0.00  0.00     0.000 A 
ENDBRANCH   5  10
BRANCH   3  16
ATOM     16  N   UNL d   1     -46.531  13.053  22.546  0.00  0.00    -0.383 NA
BRANCH  16  17
ATOM     17  C   UNL d   1     -45.707  12.891  22.443  0.00  0.00     0.134 C 
ATOM     18  C   UNL d   1     -45.272  13.299  21.841  0.00  0.00     0.035 C 
ATOM     19  C   UNL d   1     -45.320  12.320  22.947  0.00  0.00     0.035 C 
ENDBRANCH  16  17
ENDBRANCH   3  16
BRANCH   8  20
ATOM     20  C   UNL d   1     -49.242  12.113  22.922  0.00  0.00     0.036 C 
ATOM     21  C   UNL d   1     -49.393  11.793  23.696  0.00  0.00     0.006 C 
ATOM     22  C   UNL d   1     -49.644  11.797  22.237  0.00  0.00     0.006 C 
ATOM     23  C   UNL d   1     -49.792  11.481  23.007  0.00  0.00     0.006 C 
ENDBRANCH   8  20
TORSDOF 4
ENDMDL
MODEL 2
REMARK VINA RESULT:      -7.1      0.972      1.393
REMARK  4 active torsions:
REMARK  status: ('A' for Active; 'I' for Inactive)
REMARK    1  A    between atoms: N_10  and  C_3 
REMARK    2  A    between atoms: C_12  and  C_5 
REMARK    3  A    between atoms: C_11  and  C_8 
REMARK    4  A    between atoms: C_13  and  N_10 
ROOT
ATOM      1  C   UNL d   1     -47.705  13.462  22.927  0.00  0.00     0.168 A 
ATOM      2  N   UNL d   1     -47.011  13.002  23.024  0.00  0.00    -0.184 N 
ATOM      3  C   UNL d   1     -47.088  12.202  23.099  0.00  0.00     0.217 A 
ATOM      4  N   UNL d   1     -48.435  13.096  22.909  0.00  0.00    -0.231 NA
ATOM      5  C   UNL d   1     -47.652  14.265  22.850  0.00  0.00     0.057 A 
ATOM      6  N   UNL d   1     -46.244  14.170  22.965  0.00  0.00    -0.160 NA
ATOM      7  C   UNL d   1     -47.815  11.825  23.082  0.00  0.00     0.067 A 
ATOM      8  C   UNL d   1     -48.498  12.278  22.986  0.00  0.00     0.064 A 
ATOM      9  C   UNL d   1     -46.927  14.623  22.869  0.00  0.00     0.124 A 
ENDROOT
BRANCH   5  10
ATOM     10  C   UNL d   1     -48.335  14.718  22.754  0.00  0.00     0.004 A 
ATOM     11  C   UNL d   1     -48.599  14.876  22.005  0.00  0.00     0.000 A 
ATOM     12  C   UNL d   1     -49.282  15.329  21.909  0.00  0.00     0.000 A 
ATOM     13  C   UNL d   1     -49.679  15.609  22.565  0.00  0.00     0.000 A 
ATOM     14  C   UNL d   1     -49.403  15.443  23.307  0.00  0.00     0.000 A 
ATOM     15  C   UNL d   1     -48.721  14.990  23.403  0.00  0.00     0.000 A 
ENDBRANCH   5  10
BRANCH   3  16
ATOM     16  N   UNL d   1     -46.383  11.735  23.198  0.00  0.00    -0.383 NA
BRANCH  16  17
ATOM     17  C   UNL d   1     -45.681  11.273  23.299  0.00  0.00     0.134 C 
ATOM     18  C   UNL d   1     -45.725  10.526  23.697  0.00  0.00     0.035 C 
ATOM     19  C   UNL d   1     -44.935  11.563  23.000  0.00  0.00     0.035 C 
ENDBRANCH  16  17
ENDBRANCH   3  16
BRANCH   8  20
ATOM     20  C   UNL d   1     -49.263  11.901  22.966  0.00  0.00     0.036 C 
ATOM     21  C   UNL d   1     -49.580  11.630  22.225  0.00  0.00     0.006 C 
ATOM     22  C   UNL d   1     -49.705  11.798  23.691  0.00  0.00     0.006 C 
ATOM     23  C   UNL d   1     -50.018  11.529  22.952  0.00  0.00     0.006 C 
ENDBRANCH   8  20
TORSDOF 4
ENDMDL
MODEL 3
REMARK VINA RESULT:      -6.9      0.812      3.583
REMARK  4 active torsions:
REMARK  status: ('A' for Active; 'I' for Inactive)
REMARK    1  A    between atoms: N_10  and  C_3 
REMARK    2  A    between atoms: C_12  and  C_5 
REMARK    3  A    between atoms: C_11  and  C_8 
REMARK    4  A    between atoms: C_13  and  N_10 
ROOT
ATOM      1  C   UNL d   1     -47.909  13.976  22.752  0.00  0.00     0.168 A 
ATOM      2  N   UNL d   1     -48.522  14.545  22.801  0.00  0.00    -0.184 N 
ATOM      3  C   UNL d   1     -49.280  14.285  22.892  0.00  0.00     0.217 A 
ATOM      4  N   UNL d   1     -48.088  13.180  22.797  0.00  0.00    -0.231 NA
ATOM      5  C   UNL d   1     -47.141  14.213  22.661  0.00  0.00     0.057 A 
ATOM      6  N   UNL d   1     -47.572  15.562  22.666  0.00  0.00    -0.160 NA
ATOM      7  C   UNL d   1     -49.472  13.490  22.937  0.00  0.00     0.067 A 
ATOM      8  C   UNL d   1     -48.868  12.930  22.889  0.00  0.00     0.064 A 
ATOM      9  C   UNL d   1     -46.968  15.002  22.618  0.00  0.00     0.124 A 
ENDROOT
BRANCH   5  10
ATOM     10  C   UNL d   1     -46.537  13.653  22.613  0.00  0.00     0.004 A 
ATOM     11  C   UNL d   1     -46.274  13.421  21.884  0.00  0.00     0.000 A 
ATOM     12  C   UNL d   1     -45.670  12.861  21.836  0.00  0.00     0.000 A 
ATOM     13  C   UNL d   1     -45.348  12.551  22.519  0.00  0.00     0.000 A 
ATOM     14  C   UNL d   1     -45.621  12.793  23.241  0.00  0.00     0.000 A 
ATOM     15  C   UNL d   1     -46.225  13.353  23.289  0.00  0.00     0.000 A 
ENDBRANCH   5  10
BRANCH   3  16
ATOM     16  N   UNL d   1     -49.904  14.864  22.941  0.00  0.00    -0.383 NA
BRANCH  16  17
ATOM     17  C   UNL d   1     -50.522  15.438  22.994  0.00  0.00     0.134 C 
ATOM     18  C   UNL d   1     -50.598  15.908  23.696  0.00  0.00     0.035 C 
ATOM     19  C   UNL d   1     -51.064  15.540  22.342  0.00  0.00     0.035 C 
ENDBRANCH  16  17
ENDBRANCH   3  16
BRANCH   8  20
ATOM     20  C   UNL d   1     -49.051  12.098  22.936  0.00  0.00     0.036 C 
ATOM     21  C   UNL d   1     -49.190  11.657  22.221  0.00  0.00     0.006 C 
ATOM     22  C   UNL d   1     -49.093  11.713  23.698  0.00  0.00     0.006 C 
ATOM     23  C   UNL d   1     -49.231  11.277  22.986  0.00  0.00     0.006 C 
ENDBRANCH   8  20
TORSDOF 4
ENDMDL
MODEL 4
REMARK VINA RESULT:      -6.5      1.171      2.806
REMARK  4 active torsions:
REMARK  status: ('A' for Active; 'I' for Inactive)
REMARK    1  A    between atoms: N_10  and  C_3 
REMARK    2  A    between atoms: C_12  and  C_5 
REMARK    3  A    between atoms: C_11  and  C_8 
REMARK    4  A    between atoms: C_13  and  N_10 
ROOT
ATOM      1  C   UNL d   1     -48.153  12.564  22.702  0.00  0.00     0.168 A 
ATOM      2  N   UNL d   1     -47.330  12.430  22.620  0.00  0.00    -0.184 N 
ATOM      3  C   UNL d   1     -46.845  13.068  22.530  0.00  0.00     0.217 A 
ATOM      4  N   UNL d   1     -48.444  13.327  22.689  0.00  0.00    -0.231 NA
ATOM      5  C   UNL d   1     -48.659  11.940  22.794  0.00  0.00     0.057 A 
ATOM      6  N   UNL d   1     -47.556  11.054  22.726  0.00  0.00    -0.160 NA
ATOM      7  C   UNL d   1     -47.125  13.838  22.515  0.00  0.00     0.067 A 
ATOM      8  C   UNL d   1     -47.936  13.969  22.596  0.00  0.00     0.064 A 
ATOM      9  C   UNL d   1     -48.367  11.185  22.807  0.00  0.00     0.124 A 
ENDROOT
BRANCH   5  10
ATOM     10  C   UNL d   1     -49.469  12.071  22.875  0.00  0.00     0.004 A 
ATOM     11  C   UNL d   1     -49.793  12.085  23.617  0.00  0.00     0.000 A 
ATOM     12  C   UNL d   1     -50.603  12.217  23.698  0.00  0.00     0.000 A 
ATOM     13  C   UNL d   1     -51.064  12.330  23.034  0.00  0.00     0.000 A 
ATOM     14  C   UNL d   1     -50.727  12.314  22.299  0.00  0.00     0.000 A 
ATOM     15  C   UNL d   1     -49.917  12.182  22.218  0.00  0.00     0.000 A 
ENDBRANCH   5  10
BRANCH   3  16
ATOM     16  N   UNL d   1     -46.008  12.932  22.446  0.00  0.00    -0.383 NA
BRANCH  16  17
ATOM     17  C   UNL d   1     -45.176  12.800  22.366  0.00  0.00     0.134 C 
ATOM     18  C   UNL d   1     -44.802  12.196  22.828  0.00  0.00     0.035 C 
ATOM     19  C   UNL d   1     -44.721  13.276  21.822  0.00  0.00     0.035 C 
ENDBRANCH  16  17
ENDBRANCH   3  16
BRANCH   8  20
ATOM     20  C   UNL d   1     -48.244  14.765  22.582  0.00  0.00     0.036 C 
ATOM     21  C   UNL d   1     -48.261  15.197  21.850  0.00  0.00     0.006 C 
ATOM     22  C   UNL d   1     -48.532  15.122  23.304  0.00  0.00     0.006 C 
ATOM     23  C   UNL d   1     -48.549  15.550  22.574  0.00  0.00     0.006 C 
ENDBRANCH   8  20
TORSDOF 4
ENDMDL
MODEL 5
REMARK VINA RESULT:      -5.6      7.674      9.705
REMARK  4 active torsions:
REMARK  status: ('A' for Active; 'I' for Inactive)
REMARK    1  A    between atoms: N_10  and  C_3 
REMARK    2  A    between atoms: C_12  and  C_5 
REMARK    3  A    between atoms: C_11  and  C_8 
REMARK    4  A    between atoms: C_13  and  N_10 
ROOT
ATOM      1  C   UNL d   1     -39.349  14.272  19.689  0.00  0.00     0.168 A 
ATOM      2  N   UNL d   1     -38.880  13.953  20.306  0.00  0.00    -0.184 N 
ATOM      3  C   UNL d   1     -39.146  14.022  21.064  0.00  0.00     0.217 A 
ATOM      4  N   UNL d   1     -40.056  14.641  19.865  0.00  0.00    -0.231 NA
ATOM      5  C   UNL d   1     -39.102  14.215  18.921  0.00  0.00     0.057 A 
ATOM      6  N   UNL d   1     -37.940  13.536  19.358  0.00  0.00    -0.160 NA
ATOM      7  C   UNL d   1     -39.853  14.389  21.253  0.00  0.00     0.067 A 
ATOM      8  C   UNL d   1     -40.315  14.703  20.645  0.00  0.00     0.064 A 
ATOM      9  C   UNL d   1     -38.401  13.849  18.751  0.00  0.00     0.124 A 
ENDROOT
BRANCH   5  10
ATOM     10  C   UNL d   1     -39.564  14.529  18.313  0.00  0.00     0.004 A 
ATOM     11  C   UNL d   1     -39.435  15.292  18.076  0.00  0.00     0.000 A 
ATOM     12  C   UNL d   1     -39.897  15.606  17.468  0.00  0.00     0.000 A 
ATOM     13  C   UNL d   1     -40.472  15.146  17.117  0.00  0.00     0.000 A 
ATOM     14  C   UNL d   1     -40.590  14.385  17.365  0.00  0.00     0.000 A 
ATOM     15  C   UNL d   1     -40.128  14.071  17.972  0.00  0.00     0.000 A 
ENDBRANCH   5  10
BRANCH   3  16
ATOM     16  N   UNL d   1     -38.669  13.698  21.692  0.00  0.00    -0.383 NA
BRANCH  16  17
ATOM     17  C   UNL d   1     -38.194  13.380  22.316  0.00  0.00     0.134 C 
ATOM     18  C   UNL d   1     -37.975  13.874  22.969  0.00  0.00     0.035 C 
ATOM     19  C   UNL d   1     -37.939  12.565  22.282  0.00  0.00     0.035 C 
ENDBRANCH  16  17
ENDBRANCH   3  16
BRANCH   8  20
ATOM     20  C   UNL d   1     -41.054  15.089  20.825  0.00  0.00     0.036 C 
ATOM     21  C   UNL d   1     -41.064  15.922  20.996  0.00  0.00     0.006 C 
ATOM     22  C   UNL d   1     -41.780  14.636  20.831  0.00  0.00     0.006 C 
ATOM     23  C   UNL d   1     -41.787  15.465  21.001  0.00  0.00     0.006 C 
ENDBRANCH   8  20
TORSDOF 4
ENDMDL
MODEL 6
REMARK VINA RESULT:      -5.6      1.502      2.897
REMARK  4 active torsions:
REMARK  status: ('A' for Active; 'I' for Inactive)
REMARK    1  A    between atoms: N_10  and  C_3 
REMARK    2  A    between atoms: C_12  and  C_5 
REMARK    3  A    between atoms: C_11  and  C_8 
REMARK    4  A    between atoms: C_13  and  N_10 
ROOT
ATOM      1  C   UNL d   1     -47.938  12.260  23.078  0.00  0.00     0.168 A 
ATOM      2  N   UNL d   1     -47.241  11.805  23.173  0.00  0.00    -0.184 N 
ATOM      3  C   UNL d   1     -46.528  12.176  23.104  0.00  0.00     0.217 A 
ATOM      4  N   UNL d   1     -47.884  13.060  22.919  0.00  0.00    -0.231 NA
ATOM      5  C   UNL d   1     -48.664  11.909  23.144  0.00  0.00     0.057 A 
ATOM      6  N   UNL d   1     -48.027  10.669  23.394  0.00  0.00    -0.160 NA
ATOM      7  C   UNL d   1     -46.462  12.978  22.944  0.00  0.00     0.067 A 
ATOM      8  C   UNL d   1     -47.148  13.425  22.851  0.00  0.00     0.064 A 
ATOM      9  C   UNL d   1     -48.714  11.117  23.301  0.00  0.00     0.124 A 
ENDROOT
BRANCH   5  10
ATOM     10  C   UNL d   1     -49.351  12.357  23.050  0.00  0.00     0.004 A 
ATOM     11  C   UNL d   1     -49.675  12.718  23.698  0.00  0.00     0.000 A 
ATOM     12  C   UNL d   1     -50.362  13.166  23.605  0.00  0.00     0.000 A 
ATOM     13  C   UNL d   1     -50.702  13.238  22.866  0.00  0.00     0.000 A 
ATOM     14  C   UNL d   1     -50.367  12.871  22.228  0.00  0.00     0.000 A 
ATOM     15  C   UNL d   1     -49.680  12.423  22.321  0.00  0.00     0.000 A 
ENDBRANCH   5  10
BRANCH   3  16
ATOM     16  N   UNL d   1     -45.819  11.714  23.200  0.00  0.00    -0.383 NA
BRANCH  16  17
ATOM     17  C   UNL d   1     -45.117  11.252  23.296  0.00  0.00     0.134 C 
ATOM     18  C   UNL d   1     -44.380  11.542  22.993  0.00  0.00     0.035 C 
ATOM     19  C   UNL d   1     -45.156  10.498  23.696  0.00  0.00     0.035 C 
ENDBRANCH  16  17
ENDBRANCH   3  16
BRANCH   8  20
ATOM     20  C   UNL d   1     -47.096  14.260  22.685  0.00  0.00     0.036 C 
ATOM     21  C   UNL d   1     -47.327  14.553  21.921  0.00  0.00     0.006 C 
ATOM     22  C   UNL d   1     -46.811  14.797  23.287  0.00  0.00     0.006 C 
ATOM     23  C   UNL d   1     -47.042  15.086  22.526  0.00  0.00     0.006 C 
ENDBRANCH   8  20
TORSDOF 4
ENDMDL
MODEL 7
REMARK VINA RESULT:      -5.1      8.594     10.082
REMARK  4 active torsions:
REMARK  status: ('A' for Active; 'I' for Inactive)
REMARK    1  A    between atoms: N_10  and  C_3 
REMARK    2  A    between atoms: C_12  and  C_5 
REMARK    3  A    between atoms: C_11  and  C_8 
REMARK    4  A    between atoms: C_13  and  N_10 
ROOT
ATOM      1  C   UNL d   1     -40.042  14.887  19.282  0.00  0.00     0.168 A 
ATOM      2  N   UNL d   1     -40.518  15.235  18.687  0.00  0.00    -0.184 N 
ATOM      3  C   UNL d   1     -40.373  15.044  17.917  0.00  0.00     0.217 A 
ATOM      4  N   UNL d   1     -39.447  14.367  19.073  0.00  0.00    -0.231 NA
ATOM      5  C   UNL d   1     -40.170  15.064  20.060  0.00  0.00     0.057 A 
ATOM      6  N   UNL d   1     -41.230  15.922  19.677  0.00  0.00    -0.160 NA
ATOM      7  C   UNL d   1     -39.779  14.524  17.696  0.00  0.00     0.067 A 
ATOM      8  C   UNL d   1     -39.310  14.181  18.282  0.00  0.00     0.064 A 
ATOM      9  C   UNL d   1     -40.761  15.579  20.262  0.00  0.00     0.124 A 
ENDROOT
BRANCH   5  10
ATOM     10  C   UNL d   1     -39.701  14.721  20.646  0.00  0.00     0.004 A 
ATOM     11  C   UNL d   1     -38.980  15.048  20.813  0.00  0.00     0.000 A 
ATOM     12  C   UNL d   1     -38.511  14.705  21.399  0.00  0.00     0.000 A 
ATOM     13  C   UNL d   1     -38.778  14.046  21.799  0.00  0.00     0.000 A 
ATOM     14  C   UNL d   1     -39.501  13.730  21.621  0.00  0.00     0.000 A 
ATOM     15  C   UNL d   1     -39.970  14.073  21.035  0.00  0.00     0.000 A 
ENDBRANCH   5  10
BRANCH   3  16
ATOM     16  N   UNL d   1     -40.857  15.398  17.312  0.00  0.00    -0.383 NA
BRANCH  16  17
ATOM     17  C   UNL d   1     -41.336  15.748  16.709  0.00  0.00     0.134 C 
ATOM     18  C   UNL d   1     -40.995  15.922  15.953  0.00  0.00     0.035 C 
ATOM     19  C   UNL d   1     -42.157  15.922  16.866  0.00  0.00     0.035 C 
ENDBRANCH  16  17
ENDBRANCH   3  16
BRANCH   8  20
ATOM     20  C   UNL d   1     -38.687  13.638  18.069  0.00  0.00     0.036 C 
ATOM     21  C   UNL d   1     -38.795  12.804  18.195  0.00  0.00     0.006 C 
ATOM     22  C   UNL d   1     -37.961  13.935  17.730  0.00  0.00     0.006 C 
ATOM     23  C   UNL d   1     -38.070  13.106  17.856  0.00  0.00     0.006 C 
ENDBRANCH   8  20
TORSDOF 4
ENDMDL
