MODEL 1
REMARK VINA RESULT:       3.1      0.000      0.000
REMARK  6 active torsions:
REMARK  status: ('A' for Active; 'I' for Inactive)
REMARK    1  A    between atoms: C_10  and  N_6 
REMARK    2  A    between atoms: S_14  and  C_9 
REMARK    3  A    between atoms: C_17  and  C_10 
REMARK    4  A    between atoms: N_13  and  C_25 
REMARK    5  A    between atoms: C_20  and  S_14 
REMARK    6  A    between atoms: C_25  and  C_20 
ROOT
ATOM      1  C   UNL d   1      32.422  21.402 -21.030  0.00  0.00     0.174 A 
ATOM      2  C   UNL d   1      32.629  22.137 -21.357  0.00  0.00     0.158 A 
ATOM      3  N   UNL d   1      32.626  20.816 -21.574  0.00  0.00    -0.203 NA
ATOM      4  N   UNL d   1      32.076  21.369 -20.278  0.00  0.00    -0.240 N 
ATOM      5  N   UNL d   1      32.143  22.796 -20.185  0.00  0.00    -0.223 N 
ATOM      6  N   UNL d   1      32.959  22.000 -22.101  0.00  0.00    -0.279 N 
ATOM      7  C   UNL d   1      31.936  22.060 -19.858  0.00  0.00     0.343 A 
ATOM      8  C   UNL d   1      32.487  22.833 -20.930  0.00  0.00     0.287 A 
ATOM      9  C   UNL d   1      32.954  21.185 -22.227  0.00  0.00     0.181 A 
ATOM     10  O   UNL d   1      31.587  22.026 -19.102  0.00  0.00    -0.245 OA
ATOM     11  O   UNL d   1      32.693  23.563 -21.256  0.00  0.00    -0.265 OA
ATOM     12  C   UNL d   1      31.870  20.638 -19.953  0.00  0.00     0.105 C 
ATOM     13  C   UNL d   1      32.003  23.489 -19.762  0.00  0.00     0.107 C 
ENDROOT
BRANCH   9  14
ATOM     14  S   UNL d   1      33.237  20.796 -22.910  0.00  0.00    -0.048 SA
BRANCH  14  15
ATOM     15  C   UNL d   1      33.170  19.982 -22.978  0.00  0.00     0.057 C 
BRANCH  15  16
ATOM     16  C   UNL d   1      33.209  19.632 -23.723  0.00  0.00     0.087 C 
BRANCH  16  17
ATOM     17  N   UNL d   1      32.863  18.897 -23.840  0.00  0.00    -0.302 N 
ATOM     18  C   UNL d   1      33.147  18.242 -23.434  0.00  0.00     0.080 A 
ATOM     19  C   UNL d   1      32.801  17.507 -23.552  0.00  0.00     0.019 A 
ATOM     20  C   UNL d   1      32.174  17.427 -24.072  0.00  0.00     0.003 A 
ATOM     21  C   UNL d   1      31.891  18.081 -24.478  0.00  0.00     0.019 A 
ATOM     22  C   UNL d   1      32.233  18.820 -24.365  0.00  0.00     0.080 A 
ENDBRANCH  16  17
ENDBRANCH  15  16
ENDBRANCH  14  15
ENDBRANCH   9  14
BRANCH   6  23
ATOM     23  C   UNL d   1      33.241  22.578 -22.618  0.00  0.00     0.082 C 
BRANCH  23  24
ATOM     24  C   UNL d   1      32.765  22.859 -23.237  0.00  0.00     0.018 A 
ATOM     25  C   UNL d   1      32.983  22.690 -24.016  0.00  0.00     0.002 A 
ATOM     26  C   UNL d   1      32.518  22.964 -24.638  0.00  0.00     0.011 A 
ATOM     27  C   UNL d   1      31.836  23.407 -24.477  0.00  0.00     0.058 A 
ATOM     28  C   UNL d   1      31.623  23.573 -23.687  0.00  0.00     0.011 A 
ATOM     29 CL   UNL d   1      31.367  23.684 -25.097  0.00  0.00    -0.082 Cl
ATOM     30  C   UNL d   1      32.096  23.293 -23.075  0.00  0.00     0.002 A 
ENDBRANCH  23  24
ENDBRANCH   6  23
TORSDOF 6
ENDMDL
MODEL 2
REMARK VINA RESULT:       3.2      3.703      6.253
REMARK  6 active torsions:
REMARK  status: ('A' for Active; 'I' for Inactive)
REMARK    1  A    between atoms: C_10  and  N_6 
REMARK    2  A    between atoms: S_14  and  C_9 
REMARK    3  A    between atoms: C_17  and  C_10 
REMARK    4  A    between atoms: N_13  and  C_25 
REMARK    5  A    between atoms: C_20  and  S_14 
REMARK    6  A    between atoms: C_25  and  C_20 
ROOT
ATOM      1  C   UNL d   1      29.390  17.763 -24.353  0.00  0.00     0.174 A 
ATOM      2  C   UNL d   1      29.710  17.004 -24.463  0.00  0.00     0.158 A 
ATOM      3  N   UNL d   1      29.964  18.314 -24.572  0.00  0.00    -0.203 NA
ATOM      4  N   UNL d   1      28.617  17.846 -24.067  0.00  0.00    -0.240 N 
ATOM      5  N   UNL d   1      28.488  16.422 -24.003  0.00  0.00    -0.223 N 
ATOM      6  N   UNL d   1      30.479  17.092 -24.749  0.00  0.00    -0.279 N 
ATOM      7  C   UNL d   1      28.168  17.181 -23.893  0.00  0.00     0.343 A 
ATOM      8  C   UNL d   1      29.255  16.335 -24.286  0.00  0.00     0.287 A 
ATOM      9  C   UNL d   1      30.628  17.901 -24.813  0.00  0.00     0.181 A 
ATOM     10  O   UNL d   1      27.391  17.266 -23.606  0.00  0.00    -0.245 OA
ATOM     11  O   UNL d   1      29.573  15.581 -24.395  0.00  0.00    -0.265 OA
ATOM     12  C   UNL d   1      28.299  18.600 -23.958  0.00  0.00     0.105 C 
ATOM     13  C   UNL d   1      28.036  15.755 -23.828  0.00  0.00     0.107 C 
ENDROOT
BRANCH   9  14
ATOM     14  S   UNL d   1      31.340  18.245 -25.081  0.00  0.00    -0.048 SA
BRANCH  14  15
ATOM     15  C   UNL d   1      31.783  18.718 -24.579  0.00  0.00     0.057 C 
BRANCH  15  16
ATOM     16  C   UNL d   1      32.397  19.174 -24.887  0.00  0.00     0.087 C 
BRANCH  16  17
ATOM     17  N   UNL d   1      32.678  19.813 -24.455  0.00  0.00    -0.302 N 
ATOM     18  C   UNL d   1      32.802  20.535 -24.826  0.00  0.00     0.080 A 
ATOM     19  C   UNL d   1      33.084  21.173 -24.394  0.00  0.00     0.019 A 
ATOM     20  C   UNL d   1      33.240  21.091 -23.595  0.00  0.00     0.003 A 
ATOM     21  C   UNL d   1      33.116  20.370 -23.224  0.00  0.00     0.019 A 
ATOM     22  C   UNL d   1      32.835  19.726 -23.652  0.00  0.00     0.080 A 
ENDBRANCH  16  17
ENDBRANCH  15  16
ENDBRANCH  14  15
ENDBRANCH   9  14
BRANCH   6  23
ATOM     23  C   UNL d   1      30.998  16.478 -24.934  0.00  0.00     0.082 C 
BRANCH  23  24
ATOM     24  C   UNL d   1      31.567  16.226 -24.384  0.00  0.00     0.018 A 
ATOM     25  C   UNL d   1      31.371  16.220 -23.581  0.00  0.00     0.002 A 
ATOM     26  C   UNL d   1      31.928  15.972 -23.028  0.00  0.00     0.011 A 
ATOM     27  C   UNL d   1      32.679  15.730 -23.280  0.00  0.00     0.058 A 
ATOM     28  C   UNL d   1      32.869  15.739 -24.094  0.00  0.00     0.011 A 
ATOM     29 CL   UNL d   1      33.240  15.480 -22.729  0.00  0.00    -0.082 Cl
ATOM     30  C   UNL d   1      32.304  15.989 -24.637  0.00  0.00     0.002 A 
ENDBRANCH  23  24
ENDBRANCH   6  23
TORSDOF 6
ENDMDL
