MODEL 1
REMARK VINA RESULT:      -7.9      0.000      0.000
REMARK  1 active torsions:
REMARK  status: ('A' for Active; 'I' for Inactive)
REMARK       I    between atoms: N_3  and  C_1 
REMARK       I    between atoms: N_5  and  C_1 
REMARK       I    between atoms: C_2  and  N_4 
REMARK    1  A    between atoms: C_6  and  C_2 
ROOT
ATOM      1  C   UNL d   1      50.131  34.792  52.874  0.00  0.00     0.340 C 
ATOM      2  C   UNL d   1      52.882  32.979  53.099  0.00  0.00     0.265 C 
ATOM      3  N   UNL d   1      50.870  34.424  52.905  0.00  0.00    -0.254 N 
ATOM      4  N   UNL d   1      52.188  33.453  53.046  0.00  0.00    -0.269 N 
ATOM      5  N   UNL d   1      49.702  34.804  52.169  0.00  0.00    -0.253 N 
ATOM      6  O   UNL d   1      49.824  35.150  53.556  0.00  0.00    -0.245 OA
ATOM      7  C   UNL d   1      51.287  34.387  53.617  0.00  0.00     0.104 A 
ATOM      8  C   UNL d   1      51.134  33.981  52.252  0.00  0.00     0.104 A 
ATOM      9  C   UNL d   1      51.955  33.884  53.697  0.00  0.00     0.102 A 
ATOM     10  C   UNL d   1      51.798  33.497  52.318  0.00  0.00     0.102 A 
ATOM     11  O   UNL d   1      53.139  32.539  52.446  0.00  0.00    -0.267 OA
ATOM     12  O   UNL d   1      48.715  34.580  50.842  0.00  0.00    -0.300 OA
ATOM     13  C   UNL d   1      49.886  34.195  51.569  0.00  0.00     0.111 C 
ATOM     14  C   UNL d   1      48.840  34.921  52.221  0.00  0.00     0.111 C 
ATOM     15  C   UNL d   1      48.410  34.935  51.520  0.00  0.00     0.142 C 
ATOM     16  C   UNL d   1      49.453  34.210  50.864  0.00  0.00     0.142 C 
ENDROOT
BRANCH   2  17
ATOM     17  C   UNL d   1      53.295  32.934  53.814  0.00  0.00     0.057 C 
ATOM     18  C   UNL d   1      53.997  33.381  53.899  0.00  0.00     0.011 C 
ATOM     19  C   UNL d   1      54.441  33.317  54.601  0.00  0.00     0.035 C 
ATOM     20 BR   UNL d   1      55.048  33.866  54.754  0.00  0.00    -0.049 Br
ATOM     21  C   UNL d   1      54.278  32.713  55.139  0.00  0.00     0.007 C 
ATOM     22  C   UNL d   1      53.670  32.170  54.979  0.00  0.00     0.001 C 
ATOM     23  C   UNL d   1      53.229  32.235  54.280  0.00  0.00     0.005 C 
ENDBRANCH   2  17
TORSDOF 1
ENDMDL
MODEL 2
REMARK VINA RESULT:      -7.4      1.944      3.092
REMARK  1 active torsions:
REMARK  status: ('A' for Active; 'I' for Inactive)
REMARK       I    between atoms: N_3  and  C_1 
REMARK       I    between atoms: N_5  and  C_1 
REMARK       I    between atoms: C_2  and  N_4 
REMARK    1  A    between atoms: C_6  and  C_2 
ROOT
ATOM      1  C   UNL d   1      47.585  36.125  53.255  0.00  0.00     0.340 C 
ATOM      2  C   UNL d   1      50.178  34.357  52.227  0.00  0.00     0.265 C 
ATOM      3  N   UNL d   1      48.280  35.773  52.980  0.00  0.00    -0.254 N 
ATOM      4  N   UNL d   1      49.526  34.818  52.494  0.00  0.00    -0.269 N 
ATOM      5  N   UNL d   1      46.975  36.305  52.730  0.00  0.00    -0.253 N 
ATOM      6  O   UNL d   1      47.505  36.296  54.063  0.00  0.00    -0.245 OA
ATOM      7  C   UNL d   1      48.879  35.566  53.510  0.00  0.00     0.104 A 
ATOM      8  C   UNL d   1      48.322  35.510  52.192  0.00  0.00     0.104 A 
ATOM      9  C   UNL d   1      49.513  35.070  53.268  0.00  0.00     0.102 A 
ATOM     10  C   UNL d   1      48.949  35.035  51.943  0.00  0.00     0.102 A 
ATOM     11  O   UNL d   1      50.214  34.098  51.441  0.00  0.00    -0.267 OA
ATOM     12  O   UNL d   1      45.640  36.402  51.732  0.00  0.00    -0.300 OA
ATOM     13  C   UNL d   1      46.946  35.867  51.973  0.00  0.00     0.111 C 
ATOM     14  C   UNL d   1      46.171  36.391  53.056  0.00  0.00     0.111 C 
ATOM     15  C   UNL d   1      45.561  36.572  52.535  0.00  0.00     0.142 C 
ATOM     16  C   UNL d   1      46.331  36.050  51.449  0.00  0.00     0.142 C 
ENDROOT
BRANCH   2  17
ATOM     17  C   UNL d   1      50.774  34.143  52.758  0.00  0.00     0.057 C 
ATOM     18  C   UNL d   1      51.516  34.525  52.703  0.00  0.00     0.011 C 
ATOM     19  C   UNL d   1      52.136  34.294  53.209  0.00  0.00     0.035 C 
ATOM     20 BR   UNL d   1      52.818  34.767  53.266  0.00  0.00    -0.049 Br
ATOM     21  C   UNL d   1      52.070  33.599  53.651  0.00  0.00     0.007 C 
ATOM     22  C   UNL d   1      51.385  33.133  53.589  0.00  0.00     0.001 C 
ATOM     23  C   UNL d   1      50.770  33.365  53.085  0.00  0.00     0.005 C 
ENDBRANCH   2  17
TORSDOF 1
ENDMDL
MODEL 3
REMARK VINA RESULT:      -6.7      2.087      4.846
REMARK  1 active torsions:
REMARK  status: ('A' for Active; 'I' for Inactive)
REMARK       I    between atoms: N_3  and  C_1 
REMARK       I    between atoms: N_5  and  C_1 
REMARK       I    between atoms: C_2  and  N_4 
REMARK    1  A    between atoms: C_6  and  C_2 
ROOT
ATOM      1  C   UNL d   1      53.440  34.712  54.337  0.00  0.00     0.340 C 
ATOM      2  C   UNL d   1      50.635  33.649  52.956  0.00  0.00     0.265 C 
ATOM      3  N   UNL d   1      52.692  34.480  54.076  0.00  0.00    -0.254 N 
ATOM      4  N   UNL d   1      51.343  33.931  53.315  0.00  0.00    -0.269 N 
ATOM      5  N   UNL d   1      53.909  34.191  54.772  0.00  0.00    -0.253 N 
ATOM      6  O   UNL d   1      53.717  35.474  54.159  0.00  0.00    -0.245 OA
ATOM      7  C   UNL d   1      52.234  34.992  53.617  0.00  0.00     0.104 A 
ATOM      8  C   UNL d   1      52.454  33.689  54.168  0.00  0.00     0.104 A 
ATOM      9  C   UNL d   1      51.549  34.713  53.218  0.00  0.00     0.102 A 
ATOM     10  C   UNL d   1      51.775  33.411  53.791  0.00  0.00     0.102 A 
ATOM     11  O   UNL d   1      50.404  32.860  53.050  0.00  0.00    -0.267 OA
ATOM     12  O   UNL d   1      54.965  33.055  55.390  0.00  0.00    -0.300 OA
ATOM     13  C   UNL d   1      53.744  33.335  54.697  0.00  0.00     0.111 C 
ATOM     14  C   UNL d   1      54.770  34.329  54.780  0.00  0.00     0.111 C 
ATOM     15  C   UNL d   1      55.240  33.812  55.213  0.00  0.00     0.142 C 
ATOM     16  C   UNL d   1      54.218  32.815  55.133  0.00  0.00     0.142 C 
ENDROOT
BRANCH   2  17
ATOM     17  C   UNL d   1      50.180  34.158  52.490  0.00  0.00     0.057 C 
ATOM     18  C   UNL d   1      49.506  34.519  52.830  0.00  0.00     0.011 C 
ATOM     19  C   UNL d   1      49.021  35.005  52.360  0.00  0.00     0.035 C 
ATOM     20 BR   UNL d   1      48.444  35.483  52.723  0.00  0.00    -0.049 Br
ATOM     21  C   UNL d   1      49.113  35.011  51.539  0.00  0.00     0.007 C 
ATOM     22  C   UNL d   1      49.690  34.531  51.185  0.00  0.00     0.001 C 
ATOM     23  C   UNL d   1      50.173  34.047  51.654  0.00  0.00     0.005 C 
ENDBRANCH   2  17
TORSDOF 1
ENDMDL
MODEL 4
REMARK VINA RESULT:      -6.7      1.261      1.785
REMARK  1 active torsions:
REMARK  status: ('A' for Active; 'I' for Inactive)
REMARK       I    between atoms: N_3  and  C_1 
REMARK       I    between atoms: N_5  and  C_1 
REMARK       I    between atoms: C_2  and  N_4 
REMARK    1  A    between atoms: C_6  and  C_2 
ROOT
ATOM      1  C   UNL d   1      49.749  34.379  51.899  0.00  0.00     0.340 C 
ATOM      2  C   UNL d   1      52.279  33.771  53.932  0.00  0.00     0.265 C 
ATOM      3  N   UNL d   1      50.336  34.138  52.428  0.00  0.00    -0.254 N 
ATOM      4  N   UNL d   1      51.633  33.912  53.411  0.00  0.00    -0.269 N 
ATOM      5  N   UNL d   1      49.097  34.806  52.169  0.00  0.00    -0.253 N 
ATOM      6  O   UNL d   1      49.820  34.190  51.095  0.00  0.00    -0.245 OA
ATOM      7  C   UNL d   1      51.003  33.736  52.153  0.00  0.00     0.104 A 
ATOM      8  C   UNL d   1      50.317  34.411  53.213  0.00  0.00     0.104 A 
ATOM      9  C   UNL d   1      51.672  33.626  52.650  0.00  0.00     0.102 A 
ATOM     10  C   UNL d   1      50.964  34.295  53.711  0.00  0.00     0.102 A 
ATOM     11  O   UNL d   1      52.255  34.047  54.713  0.00  0.00    -0.267 OA
ATOM     12  O   UNL d   1      47.939  35.906  52.656  0.00  0.00    -0.300 OA
ATOM     13  C   UNL d   1      49.178  35.240  52.924  0.00  0.00     0.111 C 
ATOM     14  C   UNL d   1      48.662  35.292  51.590  0.00  0.00     0.111 C 
ATOM     15  C   UNL d   1      48.010  35.718  51.857  0.00  0.00     0.142 C 
ATOM     16  C   UNL d   1      48.522  35.669  53.191  0.00  0.00     0.142 C 
ENDROOT
BRANCH   2  17
ATOM     17  C   UNL d   1      52.950  33.376  53.657  0.00  0.00     0.057 C 
ATOM     18  C   UNL d   1      53.038  32.563  53.834  0.00  0.00     0.011 C 
ATOM     19  C   UNL d   1      53.727  32.162  53.592  0.00  0.00     0.035 C 
ATOM     20 BR   UNL d   1      53.752  31.331  53.628  0.00  0.00    -0.049 Br
ATOM     21  C   UNL d   1      54.378  32.589  53.318  0.00  0.00     0.007 C 
ATOM     22  C   UNL d   1      54.344  33.418  53.285  0.00  0.00     0.001 C 
ATOM     23  C   UNL d   1      53.658  33.816  53.526  0.00  0.00     0.005 C 
ENDBRANCH   2  17
TORSDOF 1
ENDMDL
MODEL 5
REMARK VINA RESULT:      -5.1     11.271     11.860
REMARK  1 active torsions:
REMARK  status: ('A' for Active; 'I' for Inactive)
REMARK       I    between atoms: N_3  and  C_1 
REMARK       I    between atoms: N_5  and  C_1 
REMARK       I    between atoms: C_2  and  N_4 
REMARK    1  A    between atoms: C_6  and  C_2 
ROOT
ATOM      1  C   UNL d   1      44.375  29.293  60.738  0.00  0.00     0.340 C 
ATOM      2  C   UNL d   1      44.990  26.655  58.851  0.00  0.00     0.265 C 
ATOM      3  N   UNL d   1      44.427  28.626  60.255  0.00  0.00    -0.254 N 
ATOM      4  N   UNL d   1      44.821  27.330  59.324  0.00  0.00    -0.269 N 
ATOM      5  N   UNL d   1      44.316  29.210  61.557  0.00  0.00    -0.253 N 
ATOM      6  O   UNL d   1      44.382  30.049  60.395  0.00  0.00    -0.245 OA
ATOM      7  C   UNL d   1      44.515  28.710  59.438  0.00  0.00     0.104 A 
ATOM      8  C   UNL d   1      44.520  27.876  60.601  0.00  0.00     0.104 A 
ATOM      9  C   UNL d   1      44.726  28.052  58.959  0.00  0.00     0.102 A 
ATOM     10  C   UNL d   1      44.713  27.222  60.136  0.00  0.00     0.102 A 
ATOM     11  O   UNL d   1      45.082  25.911  59.202  0.00  0.00    -0.267 OA
ATOM     12  O   UNL d   1      44.490  29.056  63.210  0.00  0.00    -0.300 OA
ATOM     13  C   UNL d   1      44.601  28.463  61.912  0.00  0.00     0.111 C 
ATOM     14  C   UNL d   1      44.556  29.886  62.053  0.00  0.00     0.111 C 
ATOM     15  C   UNL d   1      44.497  29.806  62.869  0.00  0.00     0.142 C 
ATOM     16  C   UNL d   1      44.541  28.383  62.734  0.00  0.00     0.142 C 
ENDROOT
BRANCH   2  17
ATOM     17  C   UNL d   1      45.085  26.739  58.034  0.00  0.00     0.057 C 
ATOM     18  C   UNL d   1      44.695  26.201  57.526  0.00  0.00     0.011 C 
ATOM     19  C   UNL d   1      44.812  26.253  56.704  0.00  0.00     0.035 C 
ATOM     20 BR   UNL d   1      44.314  25.827  56.190  0.00  0.00    -0.049 Br
ATOM     21  C   UNL d   1      45.417  26.726  56.402  0.00  0.00     0.007 C 
ATOM     22  C   UNL d   1      45.909  27.149  56.922  0.00  0.00     0.001 C 
ATOM     23  C   UNL d   1      45.792  27.095  57.741  0.00  0.00     0.005 C 
ENDBRANCH   2  17
TORSDOF 1
ENDMDL
