MODEL 1
REMARK VINA RESULT:      -7.9      0.000      0.000
REMARK  3 active torsions:
REMARK  status: ('A' for Active; 'I' for Inactive)
REMARK    1  A    between atoms: C_5  and  C_1 
REMARK    2  A    between atoms: N_6  and  C_2 
REMARK       I    between atoms: C_8  and  N_6 
REMARK    3  A    between atoms: C_9  and  C_8 
ROOT
ATOM      1  C   UNL d   1     -45.909  11.817  23.320  0.00  0.00     0.231 A 
ATOM      2  C   UNL d   1     -47.167  12.261  23.398  0.00  0.00     0.297 A 
ATOM      3  O   UNL d   1     -46.693  11.587  23.455  0.00  0.00    -0.252 OA
ATOM      4  N   UNL d   1     -45.906  12.625  23.182  0.00  0.00    -0.117 NA
ATOM      5  N   UNL d   1     -46.682  12.899  23.230  0.00  0.00    -0.101 NA
ENDROOT
BRANCH   2   6
ATOM      6  N   UNL d   1     -47.985  12.277  23.496  0.00  0.00    -0.165 NA
ATOM      7  C   UNL d   1     -48.479  12.209  22.849  0.00  0.00     0.282 C 
ATOM      8  O   UNL d   1     -48.165  12.122  22.087  0.00  0.00    -0.265 OA
BRANCH   7   9
ATOM      9  C   UNL d   1     -49.298  12.225  22.946  0.00  0.00     0.060 A 
ATOM     10  C   UNL d   1     -49.763  12.670  22.444  0.00  0.00     0.034 A 
ATOM     11  C   UNL d   1     -50.581  12.684  22.544  0.00  0.00     0.140 A 
ATOM     12  F   UNL d   1     -51.064  13.136  22.035  0.00  0.00    -0.204 F 
ATOM     13  C   UNL d   1     -50.930  12.249  23.152  0.00  0.00     0.030 A 
ATOM     14  C   UNL d   1     -50.453  11.801  23.657  0.00  0.00     0.003 A 
ATOM     15  C   UNL d   1     -49.633  11.790  23.552  0.00  0.00     0.005 A 
ENDBRANCH   7   9
ENDBRANCH   2   6
BRANCH   1  16
ATOM     16  C   UNL d   1     -45.251  11.313  23.326  0.00  0.00     0.168 A 
ATOM     17  O   UNL d   1     -45.305  10.579  23.692  0.00  0.00    -0.297 OA
ATOM     18  C   UNL d   1     -44.657  10.082  23.698  0.00  0.00     0.149 A 
ATOM     19  C   UNL d   1     -43.955  10.311  23.340  0.00  0.00     0.149 A 
ATOM     20  O   UNL d   1     -43.890  11.042  22.971  0.00  0.00    -0.299 OA
ATOM     21  C   UNL d   1     -44.540  11.542  22.965  0.00  0.00     0.151 A 
ENDBRANCH   1  16
TORSDOF 3
ENDMDL
MODEL 2
REMARK VINA RESULT:      -7.5      1.202      1.549
REMARK  3 active torsions:
REMARK  status: ('A' for Active; 'I' for Inactive)
REMARK    1  A    between atoms: C_5  and  C_1 
REMARK    2  A    between atoms: N_6  and  C_2 
REMARK       I    between atoms: C_8  and  N_6 
REMARK    3  A    between atoms: C_9  and  C_8 
ROOT
ATOM      1  C   UNL d   1     -45.753  12.944  22.782  0.00  0.00     0.231 A 
ATOM      2  C   UNL d   1     -47.064  13.025  23.026  0.00  0.00     0.297 A 
ATOM      3  O   UNL d   1     -46.504  12.821  22.456  0.00  0.00    -0.252 OA
ATOM      4  N   UNL d   1     -45.856  13.221  23.547  0.00  0.00    -0.117 NA
ATOM      5  N   UNL d   1     -46.665  13.271  23.697  0.00  0.00    -0.101 NA
ENDROOT
BRANCH   2   6
ATOM      6  N   UNL d   1     -47.882  12.985  22.928  0.00  0.00    -0.165 NA
ATOM      7  C   UNL d   1     -48.291  12.315  23.150  0.00  0.00     0.282 C 
ATOM      8  O   UNL d   1     -47.892  11.667  23.477  0.00  0.00    -0.265 OA
BRANCH   7   9
ATOM      9  C   UNL d   1     -49.109  12.275  23.051  0.00  0.00     0.060 A 
ATOM     10  C   UNL d   1     -49.444  12.417  22.320  0.00  0.00     0.034 A 
ATOM     11  C   UNL d   1     -50.261  12.376  22.226  0.00  0.00     0.140 A 
ATOM     12  F   UNL d   1     -50.610  12.519  21.481  0.00  0.00    -0.204 F 
ATOM     13  C   UNL d   1     -50.742  12.191  22.870  0.00  0.00     0.030 A 
ATOM     14  C   UNL d   1     -50.398  12.049  23.607  0.00  0.00     0.003 A 
ATOM     15  C   UNL d   1     -49.577  12.092  23.697  0.00  0.00     0.005 A 
ENDBRANCH   7   9
ENDBRANCH   2   6
BRANCH   1  16
ATOM     16  C   UNL d   1     -45.032  12.808  22.397  0.00  0.00     0.168 A 
ATOM     17  O   UNL d   1     -44.767  13.341  21.830  0.00  0.00    -0.297 OA
ATOM     18  C   UNL d   1     -44.057  13.207  21.450  0.00  0.00     0.149 A 
ATOM     19  C   UNL d   1     -43.608  12.544  21.632  0.00  0.00     0.149 A 
ATOM     20  O   UNL d   1     -43.863  12.004  22.196  0.00  0.00    -0.299 OA
ATOM     21  C   UNL d   1     -44.576  12.138  22.578  0.00  0.00     0.151 A 
ENDBRANCH   1  16
TORSDOF 3
ENDMDL
MODEL 3
REMARK VINA RESULT:      -6.8      2.587      5.061
REMARK  3 active torsions:
REMARK  status: ('A' for Active; 'I' for Inactive)
REMARK    1  A    between atoms: C_5  and  C_1 
REMARK    2  A    between atoms: N_6  and  C_2 
REMARK       I    between atoms: C_8  and  N_6 
REMARK    3  A    between atoms: C_9  and  C_8 
ROOT
ATOM      1  C   UNL d   1     -48.744  14.741  22.971  0.00  0.00     0.231 A 
ATOM      2  C   UNL d   1     -47.602  14.049  23.011  0.00  0.00     0.297 A 
ATOM      3  O   UNL d   1     -48.373  14.079  23.303  0.00  0.00    -0.252 OA
ATOM      4  N   UNL d   1     -48.201  15.110  22.480  0.00  0.00    -0.117 NA
ATOM      5  N   UNL d   1     -47.497  14.683  22.504  0.00  0.00    -0.101 NA
ENDROOT
BRANCH   2   6
ATOM      6  N   UNL d   1     -47.042  13.474  23.202  0.00  0.00    -0.165 NA
ATOM      7  C   UNL d   1     -47.050  12.750  22.825  0.00  0.00     0.282 C 
ATOM      8  O   UNL d   1     -47.618  12.582  22.247  0.00  0.00    -0.265 OA
BRANCH   7   9
ATOM      9  C   UNL d   1     -46.490  12.175  23.016  0.00  0.00     0.060 A 
ATOM     10  C   UNL d   1     -45.729  12.228  22.725  0.00  0.00     0.034 A 
ATOM     11  C   UNL d   1     -45.173  11.653  22.918  0.00  0.00     0.140 A 
ATOM     12  F   UNL d   1     -44.392  11.700  22.624  0.00  0.00    -0.204 F 
ATOM     13  C   UNL d   1     -45.383  11.022  23.406  0.00  0.00     0.030 A 
ATOM     14  C   UNL d   1     -46.154  10.973  23.698  0.00  0.00     0.003 A 
ATOM     15  C   UNL d   1     -46.709  11.554  23.501  0.00  0.00     0.005 A 
ENDBRANCH   7   9
ENDBRANCH   2   6
BRANCH   1  16
ATOM     16  C   UNL d   1     -49.524  14.979  23.116  0.00  0.00     0.168 A 
ATOM     17  O   UNL d   1     -49.667  15.674  23.532  0.00  0.00    -0.297 OA
ATOM     18  C   UNL d   1     -50.435  15.908  23.675  0.00  0.00     0.149 A 
ATOM     19  C   UNL d   1     -51.064  15.455  23.405  0.00  0.00     0.149 A 
ATOM     20  O   UNL d   1     -50.934  14.760  22.988  0.00  0.00    -0.299 OA
ATOM     21  C   UNL d   1     -50.163  14.523  22.844  0.00  0.00     0.151 A 
ENDBRANCH   1  16
TORSDOF 3
ENDMDL
MODEL 4
REMARK VINA RESULT:      -6.3      2.224      5.032
REMARK  3 active torsions:
REMARK  status: ('A' for Active; 'I' for Inactive)
REMARK    1  A    between atoms: C_5  and  C_1 
REMARK    2  A    between atoms: N_6  and  C_2 
REMARK       I    between atoms: C_8  and  N_6 
REMARK    3  A    between atoms: C_9  and  C_8 
ROOT
ATOM      1  C   UNL d   1     -48.770  13.509  22.936  0.00  0.00     0.231 A 
ATOM      2  C   UNL d   1     -47.480  13.574  22.594  0.00  0.00     0.297 A 
ATOM      3  O   UNL d   1     -48.147  13.088  22.589  0.00  0.00    -0.252 OA
ATOM      4  N   UNL d   1     -48.483  14.246  23.151  0.00  0.00    -0.117 NA
ATOM      5  N   UNL d   1     -47.687  14.286  22.940  0.00  0.00    -0.101 NA
ENDROOT
BRANCH   2   6
ATOM      6  N   UNL d   1     -46.738  13.368  22.299  0.00  0.00    -0.165 NA
ATOM      7  C   UNL d   1     -46.159  13.085  22.800  0.00  0.00     0.282 C 
ATOM      8  O   UNL d   1     -46.308  13.000  23.610  0.00  0.00    -0.265 OA
BRANCH   7   9
ATOM      9  C   UNL d   1     -45.417  12.879  22.505  0.00  0.00     0.060 A 
ATOM     10  C   UNL d   1     -45.044  12.201  22.764  0.00  0.00     0.034 A 
ATOM     11  C   UNL d   1     -44.303  11.999  22.467  0.00  0.00     0.140 A 
ATOM     12  F   UNL d   1     -43.914  11.307  22.727  0.00  0.00    -0.204 F 
ATOM     13  C   UNL d   1     -43.936  12.482  21.907  0.00  0.00     0.030 A 
ATOM     14  C   UNL d   1     -44.319  13.166  21.648  0.00  0.00     0.003 A 
ATOM     15  C   UNL d   1     -45.063  13.365  21.949  0.00  0.00     0.005 A 
ENDBRANCH   7   9
ENDBRANCH   2   6
BRANCH   1  16
ATOM     16  C   UNL d   1     -49.541  13.226  23.043  0.00  0.00     0.168 A 
ATOM     17  O   UNL d   1     -49.684  12.630  23.591  0.00  0.00    -0.297 OA
ATOM     18  C   UNL d   1     -50.444  12.352  23.697  0.00  0.00     0.149 A 
ATOM     19  C   UNL d   1     -51.064  12.664  23.259  0.00  0.00     0.149 A 
ATOM     20  O   UNL d   1     -50.934  13.259  22.708  0.00  0.00    -0.299 OA
ATOM     21  C   UNL d   1     -50.171  13.540  22.601  0.00  0.00     0.151 A 
ENDBRANCH   1  16
TORSDOF 3
ENDMDL
MODEL 5
REMARK VINA RESULT:      -6.3      8.593      9.624
REMARK  3 active torsions:
REMARK  status: ('A' for Active; 'I' for Inactive)
REMARK    1  A    between atoms: C_5  and  C_1 
REMARK    2  A    between atoms: N_6  and  C_2 
REMARK       I    between atoms: C_8  and  N_6 
REMARK    3  A    between atoms: C_9  and  C_8 
ROOT
ATOM      1  C   UNL d   1     -40.587  14.712  18.180  0.00  0.00     0.231 A 
ATOM      2  C   UNL d   1     -40.109  14.399  19.388  0.00  0.00     0.297 A 
ATOM      3  O   UNL d   1     -40.088  14.968  18.791  0.00  0.00    -0.252 OA
ATOM      4  N   UNL d   1     -40.908  13.993  18.406  0.00  0.00    -0.117 NA
ATOM      5  N   UNL d   1     -40.614  13.800  19.151  0.00  0.00    -0.101 NA
ENDROOT
BRANCH   2   6
ATOM      6  N   UNL d   1     -39.690  14.438  20.098  0.00  0.00    -0.165 NA
ATOM      7  C   UNL d   1     -40.062  14.680  20.783  0.00  0.00     0.282 C 
ATOM      8  O   UNL d   1     -40.863  14.890  20.776  0.00  0.00    -0.265 OA
BRANCH   7   9
ATOM      9  C   UNL d   1     -39.643  14.718  21.492  0.00  0.00     0.060 A 
ATOM     10  C   UNL d   1     -39.388  14.035  21.858  0.00  0.00     0.034 A 
ATOM     11  C   UNL d   1     -38.970  14.077  22.566  0.00  0.00     0.140 A 
ATOM     12  F   UNL d   1     -38.705  13.382  22.947  0.00  0.00    -0.204 F 
ATOM     13  C   UNL d   1     -38.809  14.811  22.908  0.00  0.00     0.030 A 
ATOM     14  C   UNL d   1     -39.069  15.499  22.533  0.00  0.00     0.003 A 
ATOM     15  C   UNL d   1     -39.489  15.451  21.822  0.00  0.00     0.005 A 
ENDBRANCH   7   9
ENDBRANCH   2   6
BRANCH   1  16
ATOM     16  C   UNL d   1     -40.728  15.118  17.472  0.00  0.00     0.168 A 
ATOM     17  O   UNL d   1     -41.475  15.427  17.322  0.00  0.00    -0.297 OA
ATOM     18  C   UNL d   1     -41.615  15.827  16.625  0.00  0.00     0.149 A 
ATOM     19  C   UNL d   1     -41.014  15.922  16.074  0.00  0.00     0.149 A 
ATOM     20  O   UNL d   1     -40.263  15.618  16.212  0.00  0.00    -0.299 OA
ATOM     21  C   UNL d   1     -40.122  15.216  16.913  0.00  0.00     0.151 A 
ENDBRANCH   1  16
TORSDOF 3
ENDMDL
MODEL 6
REMARK VINA RESULT:      -6.1      8.547      9.137
REMARK  3 active torsions:
REMARK  status: ('A' for Active; 'I' for Inactive)
REMARK    1  A    between atoms: C_5  and  C_1 
REMARK    2  A    between atoms: N_6  and  C_2 
REMARK       I    between atoms: C_8  and  N_6 
REMARK    3  A    between atoms: C_9  and  C_8 
ROOT
ATOM      1  C   UNL d   1     -39.855  14.493  21.057  0.00  0.00     0.231 A 
ATOM      2  C   UNL d   1     -40.347  14.977  19.913  0.00  0.00     0.297 A 
ATOM      3  O   UNL d   1     -39.652  14.857  20.341  0.00  0.00    -0.252 OA
ATOM      4  N   UNL d   1     -40.669  14.393  21.062  0.00  0.00    -0.117 NA
ATOM      5  N   UNL d   1     -40.972  14.691  20.357  0.00  0.00    -0.101 NA
ENDROOT
BRANCH   2   6
ATOM      6  N   UNL d   1     -40.392  15.326  19.167  0.00  0.00    -0.165 NA
ATOM      7  C   UNL d   1     -40.476  14.864  18.500  0.00  0.00     0.282 C 
ATOM      8  O   UNL d   1     -40.515  14.039  18.562  0.00  0.00    -0.265 OA
BRANCH   7   9
ATOM      9  C   UNL d   1     -40.521  15.213  17.754  0.00  0.00     0.060 A 
ATOM     10  C   UNL d   1     -41.247  15.389  17.425  0.00  0.00     0.034 A 
ATOM     11  C   UNL d   1     -41.289  15.738  16.680  0.00  0.00     0.140 A 
ATOM     12  F   UNL d   1     -42.028  15.922  16.337  0.00  0.00    -0.204 F 
ATOM     13  C   UNL d   1     -40.597  15.909  16.265  0.00  0.00     0.030 A 
ATOM     14  C   UNL d   1     -39.865  15.727  16.602  0.00  0.00     0.003 A 
ATOM     15  C   UNL d   1     -39.829  15.377  17.351  0.00  0.00     0.005 A 
ENDBRANCH   7   9
ENDBRANCH   2   6
BRANCH   1  16
ATOM     16  C   UNL d   1     -39.324  14.273  21.653  0.00  0.00     0.168 A 
ATOM     17  O   UNL d   1     -38.951  13.541  21.617  0.00  0.00    -0.297 OA
ATOM     18  C   UNL d   1     -38.428  13.325  22.204  0.00  0.00     0.149 A 
ATOM     19  C   UNL d   1     -38.273  13.833  22.830  0.00  0.00     0.149 A 
ATOM     20  O   UNL d   1     -38.640  14.566  22.877  0.00  0.00    -0.299 OA
ATOM     21  C   UNL d   1     -39.165  14.785  22.288  0.00  0.00     0.151 A 
ENDBRANCH   1  16
TORSDOF 3
ENDMDL
MODEL 7
REMARK VINA RESULT:      -6.0      2.062      4.942
REMARK  3 active torsions:
REMARK  status: ('A' for Active; 'I' for Inactive)
REMARK    1  A    between atoms: C_5  and  C_1 
REMARK    2  A    between atoms: N_6  and  C_2 
REMARK       I    between atoms: C_8  and  N_6 
REMARK    3  A    between atoms: C_9  and  C_8 
ROOT
ATOM      1  C   UNL d   1     -49.308  12.498  22.648  0.00  0.00     0.231 A 
ATOM      2  C   UNL d   1     -48.258  11.741  22.980  0.00  0.00     0.297 A 
ATOM      3  O   UNL d   1     -48.528  12.308  22.444  0.00  0.00    -0.252 OA
ATOM      4  N   UNL d   1     -49.510  12.050  23.304  0.00  0.00    -0.117 NA
ATOM      5  N   UNL d   1     -48.863  11.583  23.509  0.00  0.00    -0.101 NA
ENDROOT
BRANCH   2   6
ATOM      6  N   UNL d   1     -47.508  11.400  22.976  0.00  0.00    -0.165 NA
ATOM      7  C   UNL d   1     -46.879  11.782  23.330  0.00  0.00     0.282 C 
ATOM      8  O   UNL d   1     -46.986  12.516  23.698  0.00  0.00    -0.265 OA
BRANCH   7   9
ATOM      9  C   UNL d   1     -46.128  11.441  23.325  0.00  0.00     0.060 A 
ATOM     10  C   UNL d   1     -45.506  11.818  22.954  0.00  0.00     0.034 A 
ATOM     11  C   UNL d   1     -44.758  11.474  22.951  0.00  0.00     0.140 A 
ATOM     12  F   UNL d   1     -44.117  11.853  22.574  0.00  0.00    -0.204 F 
ATOM     13  C   UNL d   1     -44.636  10.748  23.324  0.00  0.00     0.030 A 
ATOM     14  C   UNL d   1     -45.268  10.372  23.698  0.00  0.00     0.003 A 
ATOM     15  C   UNL d   1     -46.018  10.721  23.698  0.00  0.00     0.005 A 
ENDBRANCH   7   9
ENDBRANCH   2   6
BRANCH   1  16
ATOM     16  C   UNL d   1     -49.789  13.045  22.253  0.00  0.00     0.168 A 
ATOM     17  O   UNL d   1     -49.805  13.828  22.503  0.00  0.00    -0.297 OA
ATOM     18  C   UNL d   1     -50.279  14.366  22.114  0.00  0.00     0.149 A 
ATOM     19  C   UNL d   1     -50.738  14.131  21.476  0.00  0.00     0.149 A 
ATOM     20  O   UNL d   1     -50.730  13.351  21.217  0.00  0.00    -0.299 OA
ATOM     21  C   UNL d   1     -50.255  12.809  21.607  0.00  0.00     0.151 A 
ENDBRANCH   1  16
TORSDOF 3
ENDMDL
MODEL 8
REMARK VINA RESULT:      -5.5      8.574     10.044
REMARK  3 active torsions:
REMARK  status: ('A' for Active; 'I' for Inactive)
REMARK    1  A    between atoms: C_5  and  C_1 
REMARK    2  A    between atoms: N_6  and  C_2 
REMARK       I    between atoms: C_8  and  N_6 
REMARK    3  A    between atoms: C_9  and  C_8 
ROOT
ATOM      1  C   UNL d   1     -39.461  14.288  17.087  0.00  0.00     0.231 A 
ATOM      2  C   UNL d   1     -40.079  14.587  18.233  0.00  0.00     0.297 A 
ATOM      3  O   UNL d   1     -39.497  14.838  17.705  0.00  0.00    -0.252 OA
ATOM      4  N   UNL d   1     -40.018  13.707  17.239  0.00  0.00    -0.117 NA
ATOM      5  N   UNL d   1     -40.399  13.891  17.946  0.00  0.00    -0.101 NA
ENDROOT
BRANCH   2   6
ATOM      6  N   UNL d   1     -40.293  14.978  18.927  0.00  0.00    -0.165 NA
ATOM      7  C   UNL d   1     -39.998  14.731  19.647  0.00  0.00     0.282 C 
ATOM      8  O   UNL d   1     -39.480  14.086  19.691  0.00  0.00    -0.265 OA
BRANCH   7   9
ATOM      9  C   UNL d   1     -40.212  15.121  20.341  0.00  0.00     0.060 A 
ATOM     10  C   UNL d   1     -39.722  15.101  20.993  0.00  0.00     0.034 A 
ATOM     11  C   UNL d   1     -39.939  15.492  21.685  0.00  0.00     0.140 A 
ATOM     12  F   UNL d   1     -39.443  15.476  22.357  0.00  0.00    -0.204 F 
ATOM     13  C   UNL d   1     -40.653  15.905  21.719  0.00  0.00     0.030 A 
ATOM     14  C   UNL d   1     -41.145  15.922  21.056  0.00  0.00     0.003 A 
ATOM     15  C   UNL d   1     -40.922  15.528  20.364  0.00  0.00     0.005 A 
ENDBRANCH   7   9
ENDBRANCH   2   6
BRANCH   1  16
ATOM     16  C   UNL d   1     -38.949  14.328  16.436  0.00  0.00     0.168 A 
ATOM     17  O   UNL d   1     -38.766  15.058  16.106  0.00  0.00    -0.297 OA
ATOM     18  C   UNL d   1     -38.263  15.097  15.465  0.00  0.00     0.149 A 
ATOM     19  C   UNL d   1     -37.940  14.412  15.149  0.00  0.00     0.149 A 
ATOM     20  O   UNL d   1     -38.115  13.676  15.470  0.00  0.00    -0.299 OA
ATOM     21  C   UNL d   1     -38.621  13.636  16.114  0.00  0.00     0.151 A 
ENDBRANCH   1  16
TORSDOF 3
ENDMDL
MODEL 9
REMARK VINA RESULT:      -5.4      8.820     10.730
REMARK  3 active torsions:
REMARK  status: ('A' for Active; 'I' for Inactive)
REMARK    1  A    between atoms: C_5  and  C_1 
REMARK    2  A    between atoms: N_6  and  C_2 
REMARK       I    between atoms: C_8  and  N_6 
REMARK    3  A    between atoms: C_9  and  C_8 
ROOT
ATOM      1  C   UNL d   1     -40.082  14.562  19.336  0.00  0.00     0.231 A 
ATOM      2  C   UNL d   1     -39.833  14.500  18.025  0.00  0.00     0.297 A 
ATOM      3  O   UNL d   1     -39.588  14.844  18.733  0.00  0.00    -0.252 OA
ATOM      4  N   UNL d   1     -40.623  14.050  18.995  0.00  0.00    -0.117 NA
ATOM      5  N   UNL d   1     -40.470  14.011  18.186  0.00  0.00    -0.101 NA
ENDROOT
BRANCH   2   6
ATOM      6  N   UNL d   1     -39.490  14.631  17.287  0.00  0.00    -0.165 NA
ATOM      7  C   UNL d   1     -38.969  14.087  16.971  0.00  0.00     0.282 C 
ATOM      8  O   UNL d   1     -38.779  13.396  17.387  0.00  0.00    -0.265 OA
BRANCH   7   9
ATOM      9  C   UNL d   1     -38.626  14.219  16.233  0.00  0.00     0.060 A 
ATOM     10  C   UNL d   1     -38.468  14.979  15.982  0.00  0.00     0.034 A 
ATOM     11  C   UNL d   1     -38.125  15.107  15.244  0.00  0.00     0.140 A 
ATOM     12  F   UNL d   1     -37.960  15.882  14.980  0.00  0.00    -0.204 F 
ATOM     13  C   UNL d   1     -37.940  14.467  14.758  0.00  0.00     0.030 A 
ATOM     14  C   UNL d   1     -38.101  13.700  15.018  0.00  0.00     0.003 A 
ATOM     15  C   UNL d   1     -38.446  13.577  15.760  0.00  0.00     0.005 A 
ENDBRANCH   7   9
ENDBRANCH   2   6
BRANCH   1  16
ATOM     16  C   UNL d   1     -40.029  14.768  20.137  0.00  0.00     0.168 A 
ATOM     17  O   UNL d   1     -39.427  14.452  20.600  0.00  0.00    -0.297 OA
ATOM     18  C   UNL d   1     -39.376  14.654  21.388  0.00  0.00     0.149 A 
ATOM     19  C   UNL d   1     -39.921  15.170  21.721  0.00  0.00     0.149 A 
ATOM     20  O   UNL d   1     -40.526  15.492  21.269  0.00  0.00    -0.299 OA
ATOM     21  C   UNL d   1     -40.579  15.290  20.476  0.00  0.00     0.151 A 
ENDBRANCH   1  16
TORSDOF 3
ENDMDL
