MODEL 1
REMARK VINA RESULT:      71.0      0.000      0.000
REMARK  8 active torsions:
REMARK  status: ('A' for Active; 'I' for Inactive)
REMARK    1  A    between atoms: N_6  and  S_1 
REMARK    2  A    between atoms: C_18  and  S_1 
REMARK    3  A    between atoms: N_2  and  C_4 
REMARK    4  A    between atoms: C_7  and  N_3 
REMARK    5  A    between atoms: C_4  and  C_5 
REMARK    6  A    between atoms: C_10  and  C_4 
REMARK    7  A    between atoms: C_5  and  N_6 
REMARK    8  A    between atoms: O_23  and  C_19 
ROOT
ATOM      1  N   UNL d   1     -48.384  29.305  34.688  0.00  0.00    -0.300 N 
ATOM      2  N   UNL d   1     -49.347  28.050  34.231  0.00  0.00    -0.301 N 
ATOM      3  C   UNL d   1     -48.444  28.639  35.165  0.00  0.00     0.100 A 
ATOM      4  C   UNL d   1     -48.805  29.345  33.982  0.00  0.00     0.100 A 
ATOM      5  C   UNL d   1     -49.286  28.720  33.753  0.00  0.00     0.100 A 
ATOM      6  C   UNL d   1     -48.926  28.010  34.937  0.00  0.00     0.100 A 
ENDROOT
BRANCH   1   7
ATOM      7  C   UNL d   1     -47.895  29.938  34.922  0.00  0.00     0.086 C 
BRANCH   7   8
ATOM      8  C   UNL d   1     -47.829  30.604  34.440  0.00  0.00     0.130 C 
BRANCH   8   9
ATOM      9  N   UNL d   1     -48.144  31.331  34.691  0.00  0.00    -0.155 NA
BRANCH   9  10
ATOM     10  S   UNL d   1     -47.945  32.024  34.298  0.00  0.00     0.286 S 
ATOM     11  O   UNL d   1     -47.319  32.141  34.828  0.00  0.00    -0.198 OA
ATOM     12  O   UNL d   1     -48.571  31.903  33.771  0.00  0.00    -0.198 OA
BRANCH  10  13
ATOM     13  C   UNL d   1     -47.749  32.719  33.901  0.00  0.00     0.117 C 
ATOM     14  C   UNL d   1     -48.276  33.045  33.346  0.00  0.00     0.014 C 
ENDBRANCH  10  13
ENDBRANCH   9  10
ENDBRANCH   8   9
ENDBRANCH   7   8
BRANCH   7  15
ATOM     15  C   UNL d   1     -47.480  29.900  35.632  0.00  0.00     0.037 A 
ATOM     16  C   UNL d   1     -47.881  29.982  36.348  0.00  0.00     0.100 A 
ATOM     17  N   UNL d   1     -47.463  29.945  37.061  0.00  0.00    -0.242 NA
ATOM     18  C   UNL d   1     -46.647  29.826  37.054  0.00  0.00     0.099 A 
ATOM     19  C   UNL d   1     -46.249  29.744  36.340  0.00  0.00     0.021 A 
ATOM     20  C   UNL d   1     -46.667  29.782  35.626  0.00  0.00     0.005 A 
ENDBRANCH   7  15
ENDBRANCH   1   7
BRANCH   2  21
ATOM     21  C   UNL d   1     -49.828  27.426  34.002  0.00  0.00     0.064 A 
ATOM     22  C   UNL d   1     -50.647  27.474  34.102  0.00  0.00     0.020 A 
ATOM     23  C   UNL d   1     -51.128  26.849  33.872  0.00  0.00     0.026 A 
ATOM     24  C   UNL d   1     -50.793  26.167  33.540  0.00  0.00     0.094 A 
ATOM     25  C   UNL d   1     -49.974  26.119  33.441  0.00  0.00     0.026 A 
ATOM     26  C   UNL d   1     -49.493  26.743  33.670  0.00  0.00     0.020 A 
BRANCH  24  27
ATOM     27  O   UNL d   1     -51.275  25.530  33.306  0.00  0.00    -0.328 OA
ATOM     28  C   UNL d   1     -51.549  24.976  33.864  0.00  0.00     0.181 C 
ENDBRANCH  24  27
ENDBRANCH   2  21
TORSDOF 8
ENDMDL
MODEL 2
REMARK VINA RESULT:      72.6      2.121      5.854
REMARK  8 active torsions:
REMARK  status: ('A' for Active; 'I' for Inactive)
REMARK    1  A    between atoms: N_6  and  S_1 
REMARK    2  A    between atoms: C_18  and  S_1 
REMARK    3  A    between atoms: N_2  and  C_4 
REMARK    4  A    between atoms: C_7  and  N_3 
REMARK    5  A    between atoms: C_4  and  C_5 
REMARK    6  A    between atoms: C_10  and  C_4 
REMARK    7  A    between atoms: C_5  and  N_6 
REMARK    8  A    between atoms: O_23  and  C_19 
ROOT
ATOM      1  N   UNL d   1     -49.859  27.109  34.002  0.00  0.00    -0.300 N 
ATOM      2  N   UNL d   1     -48.901  28.292  34.630  0.00  0.00    -0.301 N 
ATOM      3  C   UNL d   1     -49.377  26.947  34.646  0.00  0.00     0.100 A 
ATOM      4  C   UNL d   1     -49.865  27.862  33.670  0.00  0.00     0.100 A 
ATOM      5  C   UNL d   1     -49.387  28.453  33.983  0.00  0.00     0.100 A 
ATOM      6  C   UNL d   1     -48.896  27.539  34.962  0.00  0.00     0.100 A 
ENDROOT
BRANCH   1   7
ATOM      7  C   UNL d   1     -50.342  26.508  33.687  0.00  0.00     0.086 C 
BRANCH   7   8
ATOM      8  C   UNL d   1     -50.002  25.803  33.426  0.00  0.00     0.130 C 
BRANCH   8   9
ATOM      9  N   UNL d   1     -49.991  25.138  33.924  0.00  0.00    -0.155 NA
BRANCH   9  10
ATOM     10  S   UNL d   1     -49.814  24.397  33.618  0.00  0.00     0.286 S 
ATOM     11  O   UNL d   1     -50.621  24.263  33.487  0.00  0.00    -0.198 OA
ATOM     12  O   UNL d   1     -49.010  24.536  33.750  0.00  0.00    -0.198 OA
BRANCH  10  13
ATOM     13  C   UNL d   1     -49.634  23.654  33.311  0.00  0.00     0.117 C 
ATOM     14  C   UNL d   1     -49.038  23.192  33.663  0.00  0.00     0.014 C 
ENDBRANCH  10  13
ENDBRANCH   9  10
ENDBRANCH   8   9
ENDBRANCH   7   8
BRANCH   7  15
ATOM     15  C   UNL d   1     -51.157  26.615  33.636  0.00  0.00     0.037 A 
ATOM     16  C   UNL d   1     -51.666  26.007  33.863  0.00  0.00     0.100 A 
ATOM     17  N   UNL d   1     -52.485  26.114  33.811  0.00  0.00    -0.242 NA
ATOM     18  C   UNL d   1     -52.790  26.828  33.533  0.00  0.00     0.099 A 
ATOM     19  C   UNL d   1     -52.281  27.432  33.307  0.00  0.00     0.021 A 
ATOM     20  C   UNL d   1     -51.462  27.325  33.359  0.00  0.00     0.005 A 
ENDBRANCH   7  15
ENDBRANCH   1   7
BRANCH   2  21
ATOM     21  C   UNL d   1     -48.425  28.883  34.942  0.00  0.00     0.064 A 
ATOM     22  C   UNL d   1     -48.202  28.859  35.738  0.00  0.00     0.020 A 
ATOM     23  C   UNL d   1     -47.724  29.451  36.050  0.00  0.00     0.026 A 
ATOM     24  C   UNL d   1     -47.465  30.073  35.568  0.00  0.00     0.094 A 
ATOM     25  C   UNL d   1     -47.688  30.096  34.772  0.00  0.00     0.026 A 
ATOM     26  C   UNL d   1     -48.165  29.505  34.460  0.00  0.00     0.020 A 
BRANCH  24  27
ATOM     27  O   UNL d   1     -46.980  30.675  35.878  0.00  0.00    -0.328 OA
ATOM     28  C   UNL d   1     -46.784  31.341  35.418  0.00  0.00     0.181 C 
ENDBRANCH  24  27
ENDBRANCH   2  21
TORSDOF 8
ENDMDL
