MODEL 1
REMARK VINA RESULT:      69.3      0.000      0.000
REMARK  4 active torsions:
REMARK  status: ('A' for Active; 'I' for Inactive)
REMARK    1  A    between atoms: C_7  and  C_1 
REMARK    2  A    between atoms: C_13  and  N_2 
REMARK    3  A    between atoms: C_8  and  C_7 
REMARK    4  A    between atoms: N_9  and  C_14 
ROOT
ATOM      1  N   UNL d   1     -49.713  27.096  34.764  0.00  0.00    -0.242 N 
ATOM      2  C   UNL d   1     -50.387  26.767  35.126  0.00  0.00     0.267 A 
ATOM      3  C   UNL d   1     -49.607  26.713  34.041  0.00  0.00     0.267 A 
ATOM      4  C   UNL d   1     -50.206  26.152  33.951  0.00  0.00     0.062 A 
ATOM      5  C   UNL d   1     -50.688  26.186  34.620  0.00  0.00     0.066 A 
ATOM      6  O   UNL d   1     -50.693  26.987  35.854  0.00  0.00    -0.267 OA
ATOM      7  O   UNL d   1     -49.001  26.869  33.501  0.00  0.00    -0.267 OA
ENDROOT
BRANCH   4   8
ATOM      8  C   UNL d   1     -50.306  25.649  33.307  0.00  0.00     0.018 C 
BRANCH   8   9
ATOM      9  C   UNL d   1     -50.950  25.150  33.383  0.00  0.00     0.045 A 
ATOM     10  N   UNL d   1     -51.739  25.375  33.383  0.00  0.00    -0.308 N 
ATOM     11  C   UNL d   1     -52.202  24.709  33.473  0.00  0.00     0.060 A 
ATOM     12  C   UNL d   1     -52.016  26.149  33.306  0.00  0.00     0.099 C 
ATOM     13  C   UNL d   1     -53.011  24.603  33.510  0.00  0.00     0.017 A 
ATOM     14  C   UNL d   1     -51.701  24.061  33.529  0.00  0.00    -0.002 A 
ATOM     15  C   UNL d   1     -53.328  23.843  33.605  0.00  0.00     0.002 A 
ATOM     16  C   UNL d   1     -52.815  23.197  33.661  0.00  0.00    -0.000 A 
ATOM     17  C   UNL d   1     -52.011  23.305  33.624  0.00  0.00    -0.003 A 
ATOM     18  C   UNL d   1     -50.924  24.334  33.474  0.00  0.00     0.054 A 
ATOM     19  C   UNL d   1     -50.270  23.828  33.510  0.00  0.00     0.010 C 
ATOM     20  C   UNL d   1     -51.036  23.519  33.569  0.00  0.00     0.010 C 
ENDBRANCH   8   9
ENDBRANCH   4   8
BRANCH   1  21
ATOM     21  C   UNL d   1     -49.241  27.690  35.069  0.00  0.00     0.070 A 
ATOM     22  C   UNL d   1     -48.987  28.313  34.585  0.00  0.00     0.019 A 
ATOM     23  C   UNL d   1     -48.512  28.907  34.898  0.00  0.00     0.025 A 
ATOM     24  C   UNL d   1     -48.291  28.884  35.687  0.00  0.00     0.127 A 
ATOM     25  C   UNL d   1     -48.545  28.261  36.171  0.00  0.00     0.025 A 
ATOM     26  C   UNL d   1     -49.020  27.665  35.862  0.00  0.00     0.019 A 
BRANCH  24  27
ATOM     27  N   UNL d   1     -47.816  29.478  36.001  0.00  0.00    -0.114 N 
ATOM     28  O   UNL d   1     -47.829  29.639  36.808  0.00  0.00    -0.532 OA
ATOM     29  O   UNL d   1     -47.327  29.912  35.508  0.00  0.00    -0.532 OA
ENDBRANCH  24  27
ENDBRANCH   1  21
TORSDOF 4
ENDMDL
