MODEL 1
REMARK VINA RESULT:      14.4      0.000      0.000
REMARK  0 active torsions:
REMARK  status: ('A' for Active; 'I' for Inactive)
ROOT
ATOM      1  C   UNL d   1      22.925  12.878  -2.509  0.00  0.00     0.110 A 
ATOM      2  C   UNL d   1      23.542  12.502  -2.909  0.00  0.00     0.110 A 
ATOM      3  C   UNL d   1      22.918  12.907  -1.680  0.00  0.00     0.207 A 
ATOM      4  C   UNL d   1      24.150  12.156  -2.479  0.00  0.00     0.207 A 
ATOM      5  C   UNL d   1      23.533  12.556  -1.271  0.00  0.00     0.043 A 
ATOM      6  C   UNL d   1      24.149  12.180  -1.671  0.00  0.00     0.043 A 
ATOM      7  O   UNL d   1      22.308  13.278  -1.284  0.00  0.00    -0.286 OA
ATOM      8  O   UNL d   1      24.768  11.779  -2.875  0.00  0.00    -0.286 OA
ATOM      9 CL   UNL d   1      23.539  12.480  -3.725  0.00  0.00    -0.078 Cl
ATOM     10 CL   UNL d   1      22.311  13.227  -2.934  0.00  0.00    -0.078 Cl
ATOM     11  C   UNL d   1      23.525  12.585  -0.442  0.00  0.00     0.003 A 
ATOM     12  C   UNL d   1      24.753  11.837  -1.222  0.00  0.00     0.003 A 
ATOM     13  C   UNL d   1      24.136  12.237  -0.014  0.00  0.00     0.000 A 
ATOM     14  C   UNL d   1      24.768  11.852  -0.408  0.00  0.00     0.000 A 
ENDROOT
TORSDOF 0
ENDMDL
