MODEL 1
REMARK VINA RESULT:      -8.5      0.000      0.000
REMARK  3 active torsions:
REMARK  status: ('A' for Active; 'I' for Inactive)
REMARK    1  A    between atoms: N_2  and  C_1 
REMARK    2  A    between atoms: N_3  and  C_1 
REMARK       I    between atoms: C_4  and  N_3 
REMARK    3  A    between atoms: C_9  and  C_4 
ROOT
ATOM      1  C   UNL d   1     -48.252  13.288  22.186  0.00  0.00     0.209 C 
ATOM      2  S   UNL d   1     -48.509  13.020  21.458  0.00  0.00    -0.038 SA
ENDROOT
BRANCH   1   3
ATOM      3  N   UNL d   1     -47.506  13.082  22.454  0.00  0.00    -0.282 N 
ATOM      4  C   UNL d   1     -47.398  12.376  22.871  0.00  0.00     0.066 A 
ATOM      5  C   UNL d   1     -46.644  12.177  23.138  0.00  0.00     0.016 A 
ATOM      6  C   UNL d   1     -48.039  11.875  23.018  0.00  0.00     0.018 A 
ATOM      7  C   UNL d   1     -46.527  11.478  23.553  0.00  0.00     0.001 A 
ATOM      8  C   UNL d   1     -45.994  12.683  22.989  0.00  0.00     0.003 A 
ATOM      9  C   UNL d   1     -47.160  10.983  23.698  0.00  0.00     0.000 A 
ATOM     10  C   UNL d   1     -47.919  11.182  23.430  0.00  0.00     0.002 A 
ATOM     11  C   UNL d   1     -46.107  13.383  22.575  0.00  0.00     0.019 A 
ATOM     12  C   UNL d   1     -46.857  13.588  22.305  0.00  0.00     0.082 A 
ENDBRANCH   1   3
BRANCH   1  13
ATOM     13  N   UNL d   1     -48.748  13.763  22.641  0.00  0.00    -0.180 NA
ATOM     14  C   UNL d   1     -49.378  14.170  22.279  0.00  0.00     0.281 C 
ATOM     15  O   UNL d   1     -49.501  14.097  21.484  0.00  0.00    -0.265 OA
BRANCH  14  16
ATOM     16  C   UNL d   1     -49.866  14.642  22.749  0.00  0.00     0.058 A 
ATOM     17  C   UNL d   1     -49.676  15.428  22.925  0.00  0.00     0.005 A 
ATOM     18  C   UNL d   1     -50.163  15.892  23.391  0.00  0.00     0.000 A 
ATOM     19  C   UNL d   1     -50.871  15.565  23.697  0.00  0.00     0.000 A 
ATOM     20  C   UNL d   1     -51.064  14.791  23.527  0.00  0.00     0.000 A 
ATOM     21  C   UNL d   1     -50.569  14.307  23.049  0.00  0.00     0.005 A 
ENDBRANCH  14  16
ENDBRANCH   1  13
TORSDOF 3
ENDMDL
MODEL 2
REMARK VINA RESULT:      -7.6      1.187      4.069
REMARK  3 active torsions:
REMARK  status: ('A' for Active; 'I' for Inactive)
REMARK    1  A    between atoms: N_2  and  C_1 
REMARK    2  A    between atoms: N_3  and  C_1 
REMARK       I    between atoms: C_4  and  N_3 
REMARK    3  A    between atoms: C_9  and  C_4 
ROOT
ATOM      1  C   UNL d   1     -48.284  14.546  22.585  0.00  0.00     0.209 C 
ATOM      2  S   UNL d   1     -47.837  15.127  22.225  0.00  0.00    -0.038 SA
ENDROOT
BRANCH   1   3
ATOM      3  N   UNL d   1     -49.067  14.694  22.774  0.00  0.00    -0.282 N 
ATOM      4  C   UNL d   1     -49.671  14.346  22.329  0.00  0.00     0.066 A 
ATOM      5  C   UNL d   1     -50.457  14.501  22.526  0.00  0.00     0.016 A 
ATOM      6  C   UNL d   1     -49.489  13.849  21.694  0.00  0.00     0.018 A 
ATOM      7  C   UNL d   1     -51.063  14.160  22.090  0.00  0.00     0.001 A 
ATOM      8  C   UNL d   1     -50.641  15.004  23.169  0.00  0.00     0.003 A 
ATOM      9  C   UNL d   1     -50.883  13.669  21.462  0.00  0.00     0.000 A 
ATOM     10  C   UNL d   1     -50.094  13.513  21.264  0.00  0.00     0.002 A 
ATOM     11  C   UNL d   1     -50.038  15.347  23.607  0.00  0.00     0.019 A 
ATOM     12  C   UNL d   1     -49.251  15.197  23.416  0.00  0.00     0.082 A 
ENDBRANCH   1   3
BRANCH   1  13
ATOM     13  N   UNL d   1     -47.939  13.816  22.756  0.00  0.00    -0.180 NA
ATOM     14  C   UNL d   1     -47.124  13.771  22.914  0.00  0.00     0.281 C 
ATOM     15  O   UNL d   1     -46.673  14.441  22.901  0.00  0.00    -0.265 OA
BRANCH  14  16
ATOM     16  C   UNL d   1     -46.793  13.033  23.083  0.00  0.00     0.058 A 
ATOM     17  C   UNL d   1     -47.195  12.467  23.533  0.00  0.00     0.005 A 
ATOM     18  C   UNL d   1     -46.864  11.737  23.698  0.00  0.00     0.000 A 
ATOM     19  C   UNL d   1     -46.100  11.558  23.405  0.00  0.00     0.000 A 
ATOM     20  C   UNL d   1     -45.698  12.112  22.961  0.00  0.00     0.000 A 
ATOM     21  C   UNL d   1     -46.032  12.865  22.787  0.00  0.00     0.005 A 
ENDBRANCH  14  16
ENDBRANCH   1  13
TORSDOF 3
ENDMDL
MODEL 3
REMARK VINA RESULT:      -7.6      1.382      4.205
REMARK  3 active torsions:
REMARK  status: ('A' for Active; 'I' for Inactive)
REMARK    1  A    between atoms: N_2  and  C_1 
REMARK    2  A    between atoms: N_3  and  C_1 
REMARK       I    between atoms: C_4  and  N_3 
REMARK    3  A    between atoms: C_9  and  C_4 
ROOT
ATOM      1  C   UNL d   1     -49.515  12.669  23.121  0.00  0.00     0.209 C 
ATOM      2  S   UNL d   1     -49.896  12.187  23.660  0.00  0.00    -0.038 SA
ENDROOT
BRANCH   1   3
ATOM      3  N   UNL d   1     -49.954  13.130  22.607  0.00  0.00    -0.282 N 
ATOM      4  C   UNL d   1     -50.131  13.913  22.802  0.00  0.00     0.066 A 
ATOM      5  C   UNL d   1     -50.574  14.370  22.279  0.00  0.00     0.016 A 
ATOM      6  C   UNL d   1     -49.866  14.235  23.517  0.00  0.00     0.018 A 
ATOM      7  C   UNL d   1     -50.755  15.149  22.465  0.00  0.00     0.001 A 
ATOM      8  C   UNL d   1     -50.843  14.045  21.555  0.00  0.00     0.003 A 
ATOM      9  C   UNL d   1     -50.493  15.467  23.171  0.00  0.00     0.000 A 
ATOM     10  C   UNL d   1     -50.048  15.009  23.698  0.00  0.00     0.002 A 
ATOM     11  C   UNL d   1     -50.664  13.267  21.365  0.00  0.00     0.019 A 
ATOM     12  C   UNL d   1     -50.222  12.804  21.883  0.00  0.00     0.082 A 
ENDBRANCH   1   3
BRANCH   1  13
ATOM     13  N   UNL d   1     -48.690  12.684  23.102  0.00  0.00    -0.180 NA
ATOM     14  C   UNL d   1     -48.260  12.002  23.305  0.00  0.00     0.281 C 
ATOM     15  O   UNL d   1     -48.650  11.327  23.521  0.00  0.00    -0.265 OA
BRANCH  14  16
ATOM     16  C   UNL d   1     -47.435  12.032  23.281  0.00  0.00     0.058 A 
ATOM     17  C   UNL d   1     -47.031  12.620  22.862  0.00  0.00     0.005 A 
ATOM     18  C   UNL d   1     -46.213  12.647  22.841  0.00  0.00     0.000 A 
ATOM     19  C   UNL d   1     -45.774  12.066  23.254  0.00  0.00     0.000 A 
ATOM     20  C   UNL d   1     -46.166  11.483  23.669  0.00  0.00     0.000 A 
ATOM     21  C   UNL d   1     -47.006  11.448  23.696  0.00  0.00     0.005 A 
ENDBRANCH  14  16
ENDBRANCH   1  13
TORSDOF 3
ENDMDL
MODEL 4
REMARK VINA RESULT:      -7.2      1.755      3.849
REMARK  3 active torsions:
REMARK  status: ('A' for Active; 'I' for Inactive)
REMARK    1  A    between atoms: N_2  and  C_1 
REMARK    2  A    between atoms: N_3  and  C_1 
REMARK       I    between atoms: C_4  and  N_3 
REMARK    3  A    between atoms: C_9  and  C_4 
ROOT
ATOM      1  C   UNL d   1     -48.351  13.732  22.582  0.00  0.00     0.209 C 
ATOM      2  S   UNL d   1     -48.351  14.425  23.015  0.00  0.00    -0.038 SA
ENDROOT
BRANCH   1   3
ATOM      3  N   UNL d   1     -49.038  13.485  22.212  0.00  0.00    -0.282 N 
ATOM      4  C   UNL d   1     -49.539  12.945  22.588  0.00  0.00     0.066 A 
ATOM      5  C   UNL d   1     -50.229  12.702  22.207  0.00  0.00     0.016 A 
ATOM      6  C   UNL d   1     -49.350  12.653  23.338  0.00  0.00     0.018 A 
ATOM      7  C   UNL d   1     -50.732  12.166  22.573  0.00  0.00     0.001 A 
ATOM      8  C   UNL d   1     -50.420  12.997  21.448  0.00  0.00     0.003 A 
ATOM      9  C   UNL d   1     -50.545  11.878  23.315  0.00  0.00     0.000 A 
ATOM     10  C   UNL d   1     -49.853  12.122  23.698  0.00  0.00     0.002 A 
ATOM     11  C   UNL d   1     -49.920  13.532  21.078  0.00  0.00     0.019 A 
ATOM     12  C   UNL d   1     -49.229  13.780  21.452  0.00  0.00     0.082 A 
ENDBRANCH   1   3
BRANCH   1  13
ATOM     13  N   UNL d   1     -47.658  13.290  22.525  0.00  0.00    -0.180 NA
ATOM     14  C   UNL d   1     -46.926  13.643  22.705  0.00  0.00     0.281 C 
ATOM     15  O   UNL d   1     -46.898  14.417  22.936  0.00  0.00    -0.265 OA
BRANCH  14  16
ATOM     16  C   UNL d   1     -46.240  13.186  22.643  0.00  0.00     0.058 A 
ATOM     17  C   UNL d   1     -45.625  13.391  22.130  0.00  0.00     0.005 A 
ATOM     18  C   UNL d   1     -44.947  12.935  22.072  0.00  0.00     0.000 A 
ATOM     19  C   UNL d   1     -44.874  12.247  22.542  0.00  0.00     0.000 A 
ATOM     20  C   UNL d   1     -45.478  12.040  23.051  0.00  0.00     0.000 A 
ATOM     21  C   UNL d   1     -46.178  12.502  23.117  0.00  0.00     0.005 A 
ENDBRANCH  14  16
ENDBRANCH   1  13
TORSDOF 3
ENDMDL
MODEL 5
REMARK VINA RESULT:      -6.4      1.327      2.174
REMARK  3 active torsions:
REMARK  status: ('A' for Active; 'I' for Inactive)
REMARK    1  A    between atoms: N_2  and  C_1 
REMARK    2  A    between atoms: N_3  and  C_1 
REMARK       I    between atoms: C_4  and  N_3 
REMARK    3  A    between atoms: C_9  and  C_4 
ROOT
ATOM      1  C   UNL d   1     -47.581  13.250  23.029  0.00  0.00     0.209 C 
ATOM      2  S   UNL d   1     -47.440  14.000  23.321  0.00  0.00    -0.038 SA
ENDROOT
BRANCH   1   3
ATOM      3  N   UNL d   1     -47.022  12.661  23.136  0.00  0.00    -0.282 N 
ATOM      4  C   UNL d   1     -46.273  12.736  22.795  0.00  0.00     0.066 A 
ATOM      5  C   UNL d   1     -45.716  12.139  22.907  0.00  0.00     0.016 A 
ATOM      6  C   UNL d   1     -46.084  13.405  22.346  0.00  0.00     0.018 A 
ATOM      7  C   UNL d   1     -44.969  12.205  22.572  0.00  0.00     0.001 A 
ATOM      8  C   UNL d   1     -45.907  11.462  23.361  0.00  0.00     0.003 A 
ATOM      9  C   UNL d   1     -44.783  12.865  22.129  0.00  0.00     0.000 A 
ATOM     10  C   UNL d   1     -45.341  13.467  22.015  0.00  0.00     0.002 A 
ATOM     11  C   UNL d   1     -46.652  11.391  23.698  0.00  0.00     0.019 A 
ATOM     12  C   UNL d   1     -47.213  11.984  23.590  0.00  0.00     0.082 A 
ENDBRANCH   1   3
BRANCH   1  13
ATOM     13  N   UNL d   1     -48.286  13.095  22.631  0.00  0.00    -0.180 NA
ATOM     14  C   UNL d   1     -48.933  13.612  22.719  0.00  0.00     0.281 C 
ATOM     15  O   UNL d   1     -48.867  14.262  23.194  0.00  0.00    -0.265 OA
BRANCH  14  16
ATOM     16  C   UNL d   1     -49.632  13.443  22.313  0.00  0.00     0.058 A 
ATOM     17  C   UNL d   1     -49.632  13.212  21.518  0.00  0.00     0.005 A 
ATOM     18  C   UNL d   1     -50.327  13.046  21.120  0.00  0.00     0.000 A 
ATOM     19  C   UNL d   1     -51.057  13.112  21.525  0.00  0.00     0.000 A 
ATOM     20  C   UNL d   1     -51.064  13.340  22.309  0.00  0.00     0.000 A 
ATOM     21  C   UNL d   1     -50.354  13.512  22.726  0.00  0.00     0.005 A 
ENDBRANCH  14  16
ENDBRANCH   1  13
TORSDOF 3
ENDMDL
MODEL 6
REMARK VINA RESULT:      -6.1      9.119     10.269
REMARK  3 active torsions:
REMARK  status: ('A' for Active; 'I' for Inactive)
REMARK    1  A    between atoms: N_2  and  C_1 
REMARK    2  A    between atoms: N_3  and  C_1 
REMARK       I    between atoms: C_4  and  N_3 
REMARK    3  A    between atoms: C_9  and  C_4 
ROOT
ATOM      1  C   UNL d   1     -39.962  14.604  18.515  0.00  0.00     0.209 C 
ATOM      2  S   UNL d   1     -40.733  14.345  18.436  0.00  0.00    -0.038 SA
ENDROOT
BRANCH   1   3
ATOM      3  N   UNL d   1     -39.508  14.738  17.846  0.00  0.00    -0.282 N 
ATOM      4  C   UNL d   1     -39.052  14.127  17.527  0.00  0.00     0.066 A 
ATOM      5  C   UNL d   1     -38.598  14.272  16.854  0.00  0.00     0.016 A 
ATOM      6  C   UNL d   1     -39.051  13.379  17.879  0.00  0.00     0.018 A 
ATOM      7  C   UNL d   1     -38.142  13.671  16.529  0.00  0.00     0.001 A 
ATOM      8  C   UNL d   1     -38.599  15.029  16.497  0.00  0.00     0.003 A 
ATOM      9  C   UNL d   1     -38.142  12.932  16.877  0.00  0.00     0.000 A 
ATOM     10  C   UNL d   1     -38.597  12.785  17.553  0.00  0.00     0.002 A 
ATOM     11  C   UNL d   1     -39.053  15.633  16.818  0.00  0.00     0.019 A 
ATOM     12  C   UNL d   1     -39.509  15.496  17.490  0.00  0.00     0.082 A 
ENDBRANCH   1   3
BRANCH   1  13
ATOM     13  N   UNL d   1     -39.650  14.727  19.268  0.00  0.00    -0.180 NA
ATOM     14  C   UNL d   1     -40.159  14.895  19.904  0.00  0.00     0.281 C 
ATOM     15  O   UNL d   1     -40.957  14.938  19.781  0.00  0.00    -0.265 OA
BRANCH  14  16
ATOM     16  C   UNL d   1     -39.832  15.016  20.653  0.00  0.00     0.058 A 
ATOM     17  C   UNL d   1     -39.649  14.386  21.156  0.00  0.00     0.005 A 
ATOM     18  C   UNL d   1     -39.324  14.510  21.897  0.00  0.00     0.000 A 
ATOM     19  C   UNL d   1     -39.174  15.293  22.153  0.00  0.00     0.000 A 
ATOM     20  C   UNL d   1     -39.353  15.919  21.661  0.00  0.00     0.000 A 
ATOM     21  C   UNL d   1     -39.686  15.800  20.898  0.00  0.00     0.005 A 
ENDBRANCH  14  16
ENDBRANCH   1  13
TORSDOF 3
ENDMDL
MODEL 7
REMARK VINA RESULT:      -5.9      8.502      9.900
REMARK  3 active torsions:
REMARK  status: ('A' for Active; 'I' for Inactive)
REMARK    1  A    between atoms: N_2  and  C_1 
REMARK    2  A    between atoms: N_3  and  C_1 
REMARK       I    between atoms: C_4  and  N_3 
REMARK    3  A    between atoms: C_9  and  C_4 
ROOT
ATOM      1  C   UNL d   1     -40.426  14.404  19.525  0.00  0.00     0.209 C 
ATOM      2  S   UNL d   1     -40.963  13.790  19.484  0.00  0.00    -0.038 SA
ENDROOT
BRANCH   1   3
ATOM      3  N   UNL d   1     -40.359  14.839  20.216  0.00  0.00    -0.282 N 
ATOM      4  C   UNL d   1     -39.782  14.641  20.774  0.00  0.00     0.066 A 
ATOM      5  C   UNL d   1     -39.722  15.084  21.467  0.00  0.00     0.016 A 
ATOM      6  C   UNL d   1     -39.272  14.004  20.639  0.00  0.00     0.018 A 
ATOM      7  C   UNL d   1     -39.152  14.894  22.027  0.00  0.00     0.001 A 
ATOM      8  C   UNL d   1     -40.238  15.728  21.604  0.00  0.00     0.003 A 
ATOM      9  C   UNL d   1     -38.648  14.265  21.893  0.00  0.00     0.000 A 
ATOM     10  C   UNL d   1     -38.708  13.819  21.198  0.00  0.00     0.002 A 
ATOM     11  C   UNL d   1     -40.809  15.922  21.047  0.00  0.00     0.019 A 
ATOM     12  C   UNL d   1     -40.876  15.483  20.353  0.00  0.00     0.082 A 
ENDBRANCH   1   3
BRANCH   1  13
ATOM     13  N   UNL d   1     -39.958  14.579  18.869  0.00  0.00    -0.180 NA
ATOM     14  C   UNL d   1     -40.225  14.380  18.107  0.00  0.00     0.281 C 
ATOM     15  O   UNL d   1     -40.940  14.017  18.011  0.00  0.00    -0.265 OA
BRANCH  14  16
ATOM     16  C   UNL d   1     -39.745  14.562  17.459  0.00  0.00     0.058 A 
ATOM     17  C   UNL d   1     -39.194  14.023  17.158  0.00  0.00     0.005 A 
ATOM     18  C   UNL d   1     -38.721  14.208  16.517  0.00  0.00     0.000 A 
ATOM     19  C   UNL d   1     -38.795  14.960  16.156  0.00  0.00     0.000 A 
ATOM     20  C   UNL d   1     -39.336  15.496  16.447  0.00  0.00     0.000 A 
ATOM     21  C   UNL d   1     -39.827  15.314  17.107  0.00  0.00     0.005 A 
ENDBRANCH  14  16
ENDBRANCH   1  13
TORSDOF 3
ENDMDL
MODEL 8
REMARK VINA RESULT:      -5.8      9.403     10.528
REMARK  3 active torsions:
REMARK  status: ('A' for Active; 'I' for Inactive)
REMARK    1  A    between atoms: N_2  and  C_1 
REMARK    2  A    between atoms: N_3  and  C_1 
REMARK       I    between atoms: C_4  and  N_3 
REMARK    3  A    between atoms: C_9  and  C_4 
ROOT
ATOM      1  C   UNL d   1     -38.822  15.152  19.107  0.00  0.00     0.209 C 
ATOM      2  S   UNL d   1     -38.479  15.888  19.202  0.00  0.00    -0.038 SA
ENDROOT
BRANCH   1   3
ATOM      3  N   UNL d   1     -39.042  14.900  18.360  0.00  0.00    -0.282 N 
ATOM      4  C   UNL d   1     -39.756  15.154  18.031  0.00  0.00     0.066 A 
ATOM      5  C   UNL d   1     -39.969  14.895  17.278  0.00  0.00     0.016 A 
ATOM      6  C   UNL d   1     -40.252  15.664  18.454  0.00  0.00     0.018 A 
ATOM      7  C   UNL d   1     -40.677  15.143  16.944  0.00  0.00     0.001 A 
ATOM      8  C   UNL d   1     -39.468  14.379  16.851  0.00  0.00     0.003 A 
ATOM      9  C   UNL d   1     -41.167  15.647  17.361  0.00  0.00     0.000 A 
ATOM     10  C   UNL d   1     -40.953  15.908  18.118  0.00  0.00     0.002 A 
ATOM     11  C   UNL d   1     -38.760  14.129  17.181  0.00  0.00     0.019 A 
ATOM     12  C   UNL d   1     -38.540  14.384  17.932  0.00  0.00     0.082 A 
ENDBRANCH   1   3
BRANCH   1  13
ATOM     13  N   UNL d   1     -38.942  14.673  19.767  0.00  0.00    -0.180 NA
ATOM     14  C   UNL d   1     -38.499  14.803  20.459  0.00  0.00     0.281 C 
ATOM     15  O   UNL d   1     -37.953  15.398  20.482  0.00  0.00    -0.265 OA
BRANCH  14  16
ATOM     16  C   UNL d   1     -38.631  14.314  21.112  0.00  0.00     0.058 A 
ATOM     17  C   UNL d   1     -39.312  14.381  21.577  0.00  0.00     0.005 A 
ATOM     18  C   UNL d   1     -39.438  13.894  22.223  0.00  0.00     0.000 A 
ATOM     19  C   UNL d   1     -38.865  13.315  22.418  0.00  0.00     0.000 A 
ATOM     20  C   UNL d   1     -38.191  13.245  21.963  0.00  0.00     0.000 A 
ATOM     21  C   UNL d   1     -38.054  13.741  21.298  0.00  0.00     0.005 A 
ENDBRANCH  14  16
ENDBRANCH   1  13
TORSDOF 3
ENDMDL
