MODEL 1
REMARK VINA RESULT:      -9.1      0.000      0.000
REMARK  2 active torsions:
REMARK  status: ('A' for Active; 'I' for Inactive)
REMARK    1  A    between atoms: O_3  and  C_1 
REMARK       I    between atoms: N_6  and  C_1 
REMARK    2  A    between atoms: C_5  and  O_3 
ROOT
ATOM      1  C   UNL d   1      53.619  32.927  54.133  0.00  0.00     0.105 A 
ATOM      2  C   UNL d   1      53.420  33.725  54.117  0.00  0.00     0.030 A 
ATOM      3  C   UNL d   1      53.213  32.384  53.641  0.00  0.00     0.122 A 
ATOM      4  N   UNL d   1      54.222  32.658  54.636  0.00  0.00    -0.242 NA
ATOM      5  C   UNL d   1      52.819  33.992  53.615  0.00  0.00     0.059 A 
ATOM      6  C   UNL d   1      52.617  32.649  53.143  0.00  0.00     0.027 A 
ATOM      7  C   UNL d   1      52.413  33.448  53.123  0.00  0.00     0.013 A 
ATOM      8 CL   UNL d   1      52.614  34.797  53.596  0.00  0.00    -0.082 Cl
ATOM      9  C   UNL d   1      53.819  34.261  54.601  0.00  0.00     0.004 A 
ATOM     10  C   UNL d   1      54.621  33.193  55.120  0.00  0.00     0.099 A 
ATOM     11  C   UNL d   1      54.417  33.998  55.101  0.00  0.00     0.021 A 
ENDROOT
BRANCH   3  12
ATOM     12  O   UNL d   1      53.414  31.574  53.655  0.00  0.00    -0.257 OA
BRANCH  12  13
ATOM     13  C   UNL d   1      53.066  31.040  53.115  0.00  0.00     0.378 C 
ATOM     14  N   UNL d   1      53.038  30.240  53.276  0.00  0.00    -0.249 N 
ATOM     15  C   UNL d   1      52.693  29.718  52.738  0.00  0.00     0.104 C 
ATOM     16  C   UNL d   1      53.356  29.950  53.981  0.00  0.00     0.104 C 
ATOM     17  O   UNL d   1      52.744  31.334  52.400  0.00  0.00    -0.237 OA
ENDBRANCH  12  13
ENDBRANCH   3  12
TORSDOF 2
ENDMDL
MODEL 2
REMARK VINA RESULT:      -8.9      1.974      2.831
REMARK  2 active torsions:
REMARK  status: ('A' for Active; 'I' for Inactive)
REMARK    1  A    between atoms: O_3  and  C_1 
REMARK       I    between atoms: N_6  and  C_1 
REMARK    2  A    between atoms: C_5  and  O_3 
ROOT
ATOM      1  C   UNL d   1      53.068  33.305  53.970  0.00  0.00     0.105 A 
ATOM      2  C   UNL d   1      53.614  32.695  54.055  0.00  0.00     0.030 A 
ATOM      3  C   UNL d   1      52.430  33.225  53.433  0.00  0.00     0.122 A 
ATOM      4  N   UNL d   1      53.147  34.000  54.417  0.00  0.00    -0.242 NA
ATOM      5  C   UNL d   1      53.534  32.003  53.609  0.00  0.00     0.059 A 
ATOM      6  C   UNL d   1      52.351  32.538  52.992  0.00  0.00     0.027 A 
ATOM      7  C   UNL d   1      52.895  31.923  53.072  0.00  0.00     0.013 A 
ATOM      8 CL   UNL d   1      54.082  31.385  53.691  0.00  0.00    -0.082 Cl
ATOM      9  C   UNL d   1      54.242  32.773  54.583  0.00  0.00     0.004 A 
ATOM     10  C   UNL d   1      53.775  34.078  54.945  0.00  0.00     0.099 A 
ATOM     11  C   UNL d   1      54.325  33.461  55.028  0.00  0.00     0.021 A 
ENDROOT
BRANCH   3  12
ATOM     12  O   UNL d   1      51.875  33.842  53.346  0.00  0.00    -0.257 OA
BRANCH  12  13
ATOM     13  C   UNL d   1      51.478  33.957  52.620  0.00  0.00     0.378 C 
ATOM     14  N   UNL d   1      50.712  34.241  52.602  0.00  0.00    -0.249 N 
ATOM     15  C   UNL d   1      50.325  34.352  51.882  0.00  0.00     0.104 C 
ATOM     16  C   UNL d   1      50.321  34.417  53.308  0.00  0.00     0.104 C 
ATOM     17  O   UNL d   1      51.874  33.778  51.905  0.00  0.00    -0.237 OA
ENDBRANCH  12  13
ENDBRANCH   3  12
TORSDOF 2
ENDMDL
MODEL 3
REMARK VINA RESULT:      -7.4      1.290      3.138
REMARK  2 active torsions:
REMARK  status: ('A' for Active; 'I' for Inactive)
REMARK    1  A    between atoms: O_3  and  C_1 
REMARK       I    between atoms: N_6  and  C_1 
REMARK    2  A    between atoms: C_5  and  O_3 
ROOT
ATOM      1  C   UNL d   1      53.404  31.855  53.529  0.00  0.00     0.105 A 
ATOM      2  C   UNL d   1      52.674  31.771  53.159  0.00  0.00     0.030 A 
ATOM      3  C   UNL d   1      53.652  32.607  53.804  0.00  0.00     0.122 A 
ATOM      4  N   UNL d   1      53.898  31.196  53.632  0.00  0.00    -0.242 NA
ATOM      5  C   UNL d   1      52.183  32.429  53.058  0.00  0.00     0.059 A 
ATOM      6  C   UNL d   1      53.164  33.259  53.703  0.00  0.00     0.027 A 
ATOM      7  C   UNL d   1      52.431  33.181  53.332  0.00  0.00     0.013 A 
ATOM      8 CL   UNL d   1      51.446  32.349  52.685  0.00  0.00    -0.082 Cl
ATOM      9  C   UNL d   1      52.430  31.031  52.889  0.00  0.00     0.004 A 
ATOM     10  C   UNL d   1      53.655  30.455  53.362  0.00  0.00     0.099 A 
ATOM     11  C   UNL d   1      52.917  30.374  52.989  0.00  0.00     0.021 A 
ENDROOT
BRANCH   3  12
ATOM     12  O   UNL d   1      54.392  32.694  54.179  0.00  0.00    -0.257 OA
BRANCH  12  13
ATOM     13  C   UNL d   1      54.465  33.157  54.871  0.00  0.00     0.378 C 
ATOM     14  N   UNL d   1      55.120  33.631  54.991  0.00  0.00    -0.249 N 
ATOM     15  C   UNL d   1      55.187  34.085  55.676  0.00  0.00     0.104 C 
ATOM     16  C   UNL d   1      55.719  33.656  54.424  0.00  0.00     0.104 C 
ATOM     17  O   UNL d   1      53.857  33.131  55.446  0.00  0.00    -0.237 OA
ENDBRANCH  12  13
ENDBRANCH   3  12
TORSDOF 2
ENDMDL
MODEL 4
REMARK VINA RESULT:      -6.8      1.548      3.121
REMARK  2 active torsions:
REMARK  status: ('A' for Active; 'I' for Inactive)
REMARK    1  A    between atoms: O_3  and  C_1 
REMARK       I    between atoms: N_6  and  C_1 
REMARK    2  A    between atoms: C_5  and  O_3 
ROOT
ATOM      1  C   UNL d   1      52.609  33.259  53.391  0.00  0.00     0.105 A 
ATOM      2  C   UNL d   1      51.867  33.478  53.113  0.00  0.00     0.030 A 
ATOM      3  C   UNL d   1      53.126  33.838  53.708  0.00  0.00     0.122 A 
ATOM      4  N   UNL d   1      52.849  32.465  53.361  0.00  0.00    -0.242 NA
ATOM      5  C   UNL d   1      51.629  34.270  53.144  0.00  0.00     0.059 A 
ATOM      6  C   UNL d   1      52.890  34.623  53.739  0.00  0.00     0.027 A 
ATOM      7  C   UNL d   1      52.146  34.848  53.461  0.00  0.00     0.013 A 
ATOM      8 CL   UNL d   1      50.881  34.495  52.864  0.00  0.00    -0.082 Cl
ATOM      9  C   UNL d   1      51.358  32.908  52.801  0.00  0.00     0.004 A 
ATOM     10  C   UNL d   1      52.340  31.895  53.049  0.00  0.00     0.099 A 
ATOM     11  C   UNL d   1      51.591  32.120  52.768  0.00  0.00     0.021 A 
ENDROOT
BRANCH   3  12
ATOM     12  O   UNL d   1      53.879  33.618  53.991  0.00  0.00    -0.257 OA
BRANCH  12  13
ATOM     13  C   UNL d   1      54.158  33.906  54.724  0.00  0.00     0.378 C 
ATOM     14  N   UNL d   1      54.936  33.795  54.949  0.00  0.00    -0.249 N 
ATOM     15  C   UNL d   1      55.206  34.082  55.674  0.00  0.00     0.104 C 
ATOM     16  C   UNL d   1      55.457  33.394  54.449  0.00  0.00     0.104 C 
ATOM     17  O   UNL d   1      53.631  34.313  55.231  0.00  0.00    -0.237 OA
ENDBRANCH  12  13
ENDBRANCH   3  12
TORSDOF 2
ENDMDL
MODEL 5
REMARK VINA RESULT:      -6.5      1.828      3.619
REMARK  2 active torsions:
REMARK  status: ('A' for Active; 'I' for Inactive)
REMARK    1  A    between atoms: O_3  and  C_1 
REMARK       I    between atoms: N_6  and  C_1 
REMARK    2  A    between atoms: C_5  and  O_3 
ROOT
ATOM      1  C   UNL d   1      52.891  32.289  53.415  0.00  0.00     0.105 A 
ATOM      2  C   UNL d   1      53.331  31.597  53.346  0.00  0.00     0.030 A 
ATOM      3  C   UNL d   1      53.264  33.001  53.652  0.00  0.00     0.122 A 
ATOM      4  N   UNL d   1      52.077  32.285  53.249  0.00  0.00    -0.242 NA
ATOM      5  C   UNL d   1      54.141  31.603  53.511  0.00  0.00     0.059 A 
ATOM      6  C   UNL d   1      54.068  33.006  53.816  0.00  0.00     0.027 A 
ATOM      7  C   UNL d   1      54.513  32.315  53.749  0.00  0.00     0.013 A 
ATOM      8 CL   UNL d   1      54.588  30.907  53.443  0.00  0.00    -0.082 Cl
ATOM      9  C   UNL d   1      52.964  30.896  53.112  0.00  0.00     0.004 A 
ATOM     10  C   UNL d   1      51.711  31.584  53.016  0.00  0.00     0.099 A 
ATOM     11  C   UNL d   1      52.158  30.887  52.947  0.00  0.00     0.021 A 
ENDROOT
BRANCH   3  12
ATOM     12  O   UNL d   1      52.820  33.704  53.723  0.00  0.00    -0.257 OA
BRANCH  12  13
ATOM     13  C   UNL d   1      53.047  34.298  54.266  0.00  0.00     0.378 C 
ATOM     14  N   UNL d   1      52.875  35.084  54.123  0.00  0.00    -0.249 N 
ATOM     15  C   UNL d   1      53.102  35.665  54.662  0.00  0.00     0.104 C 
ATOM     16  C   UNL d   1      52.472  35.299  53.435  0.00  0.00     0.104 C 
ATOM     17  O   UNL d   1      53.456  34.079  54.962  0.00  0.00    -0.237 OA
ENDBRANCH  12  13
ENDBRANCH   3  12
TORSDOF 2
ENDMDL
MODEL 6
REMARK VINA RESULT:      -6.2      9.593     10.030
REMARK  2 active torsions:
REMARK  status: ('A' for Active; 'I' for Inactive)
REMARK    1  A    between atoms: O_3  and  C_1 
REMARK       I    between atoms: N_6  and  C_1 
REMARK    2  A    between atoms: C_5  and  O_3 
ROOT
ATOM      1  C   UNL d   1      44.978  29.610  58.013  0.00  0.00     0.105 A 
ATOM      2  C   UNL d   1      44.834  30.135  57.396  0.00  0.00     0.030 A 
ATOM      3  C   UNL d   1      44.998  28.785  57.866  0.00  0.00     0.122 A 
ATOM      4  N   UNL d   1      45.104  29.895  58.783  0.00  0.00    -0.242 NA
ATOM      5  C   UNL d   1      44.709  29.849  56.630  0.00  0.00     0.059 A 
ATOM      6  C   UNL d   1      44.873  28.503  57.106  0.00  0.00     0.027 A 
ATOM      7  C   UNL d   1      44.729  29.024  56.483  0.00  0.00     0.013 A 
ATOM      8 CL   UNL d   1      44.564  30.375  56.004  0.00  0.00    -0.082 Cl
ATOM      9  C   UNL d   1      44.815  30.947  57.540  0.00  0.00     0.004 A 
ATOM     10  C   UNL d   1      45.084  30.707  58.927  0.00  0.00     0.099 A 
ATOM     11  C   UNL d   1      44.939  31.234  58.301  0.00  0.00     0.021 A 
ENDROOT
BRANCH   3  12
ATOM     12  O   UNL d   1      45.143  28.251  58.491  0.00  0.00    -0.257 OA
BRANCH  12  13
ATOM     13  C   UNL d   1      45.322  27.450  58.332  0.00  0.00     0.378 C 
ATOM     14  N   UNL d   1      45.059  26.856  58.828  0.00  0.00    -0.249 N 
ATOM     15  C   UNL d   1      45.238  26.068  58.666  0.00  0.00     0.104 C 
ATOM     16  C   UNL d   1      44.611  27.045  59.496  0.00  0.00     0.104 C 
ATOM     17  O   UNL d   1      45.775  27.259  57.655  0.00  0.00    -0.237 OA
ENDBRANCH  12  13
ENDBRANCH   3  12
TORSDOF 2
ENDMDL
