MODEL 1
REMARK VINA RESULT:      72.1      0.000      0.000
REMARK  1 active torsions:
REMARK  status: ('A' for Active; 'I' for Inactive)
REMARK    1  A    between atoms: C_15  and  C_10 
ROOT
ATOM      1  C   UNL d   1     -55.989 -99.037 -44.960  0.00  0.00     0.111 A 
ATOM      2  C   UNL d   1     -57.269 -98.951 -44.341  0.00  0.00     0.062 A 
ATOM      3  C   UNL d   1     -56.918 -98.965 -43.613  0.00  0.00     0.105 A 
ATOM      4  C   UNL d   1     -55.638 -99.051 -44.232  0.00  0.00     0.213 A 
ATOM      5  C   UNL d   1     -56.805 -98.987 -45.022  0.00  0.00     0.018 A 
ATOM      6  O   UNL d   1     -56.097 -99.016 -43.553  0.00  0.00    -0.287 OA
ATOM      7  C   UNL d   1     -58.124 -98.899 -44.425  0.00  0.00     0.198 A 
ATOM      8  C   UNL d   1     -55.520 -99.073 -45.644  0.00  0.00     0.105 C 
ATOM      9  C   UNL d   1     -57.385 -98.929 -42.891  0.00  0.00     0.025 A 
ATOM     10  C   UNL d   1     -58.225 -98.877 -42.965  0.00  0.00     0.005 A 
ATOM     11  C   UNL d   1     -58.593 -98.863 -43.730  0.00  0.00     0.042 A 
ATOM     12  N   UNL d   1     -55.061 -99.109 -46.300  0.00  0.00    -0.191 NA
ATOM     13  O   UNL d   1     -58.396 -98.888 -44.990  0.00  0.00    -0.286 OA
ATOM     14  N   UNL d   1     -54.812 -99.102 -44.175  0.00  0.00    -0.120 N 
ATOM     15  C   UNL d   1     -57.208 -98.970 -45.787  0.00  0.00     0.001 C 
ENDROOT
BRANCH  10  16
ATOM     16  C   UNL d   1     -58.675 -98.842 -42.291  0.00  0.00     0.000 A 
ATOM     17  C   UNL d   1     -58.331 -98.852 -41.542  0.00  0.00     0.000 A 
ATOM     18  C   UNL d   1     -58.792 -98.817 -40.880  0.00  0.00     0.000 A 
ATOM     19  C   UNL d   1     -59.626 -98.769 -40.940  0.00  0.00     0.000 A 
ATOM     20  C   UNL d   1     -59.958 -98.760 -41.688  0.00  0.00     0.000 A 
ATOM     21  C   UNL d   1     -59.484 -98.796 -42.373  0.00  0.00     0.000 A 
ENDBRANCH  10  16
TORSDOF 1
ENDMDL
MODEL 2
REMARK VINA RESULT:      73.1      4.233      4.959
REMARK  1 active torsions:
REMARK  status: ('A' for Active; 'I' for Inactive)
REMARK    1  A    between atoms: C_15  and  C_10 
ROOT
ATOM      1  C   UNL d   1     -54.830-100.128 -42.313  0.00  0.00     0.111 A 
ATOM      2  C   UNL d   1     -54.855-101.131 -41.301  0.00  0.00     0.062 A 
ATOM      3  C   UNL d   1     -54.852-100.558 -40.732  0.00  0.00     0.105 A 
ATOM      4  C   UNL d   1     -54.827 -99.555 -41.744  0.00  0.00     0.213 A 
ATOM      5  C   UNL d   1     -54.844-100.921 -42.099  0.00  0.00     0.018 A 
ATOM      6  O   UNL d   1     -54.838 -99.763 -40.950  0.00  0.00    -0.287 OA
ATOM      7  C   UNL d   1     -54.869-101.967 -41.094  0.00  0.00     0.198 A 
ATOM      8  C   UNL d   1     -54.818 -99.914 -43.114  0.00  0.00     0.105 C 
ATOM      9  C   UNL d   1     -54.864-100.758 -39.895  0.00  0.00     0.025 A 
ATOM     10  C   UNL d   1     -54.878-101.575 -39.684  0.00  0.00     0.005 A 
ATOM     11  C   UNL d   1     -54.881-102.178 -40.282  0.00  0.00     0.042 A 
ATOM     12  N   UNL d   1     -54.807 -99.699 -43.886  0.00  0.00    -0.191 NA
ATOM     13  O   UNL d   1     -54.871-102.412 -41.536  0.00  0.00    -0.286 OA
ATOM     14  N   UNL d   1     -54.813 -98.756 -41.966  0.00  0.00    -0.120 N 
ATOM     15  C   UNL d   1     -54.847-101.556 -42.685  0.00  0.00     0.001 C 
ENDROOT
BRANCH  10  16
ATOM     16  C   UNL d   1     -54.889-101.775 -38.898  0.00  0.00     0.000 A 
ATOM     17  C   UNL d   1     -54.742-101.218 -38.309  0.00  0.00     0.000 A 
ATOM     18  C   UNL d   1     -54.757-101.433 -37.531  0.00  0.00     0.000 A 
ATOM     19  C   UNL d   1     -54.920-102.222 -37.306  0.00  0.00     0.000 A 
ATOM     20  C   UNL d   1     -55.064-102.768 -37.898  0.00  0.00     0.000 A 
ATOM     21  C   UNL d   1     -55.050-102.550 -38.702  0.00  0.00     0.000 A 
ENDBRANCH  10  16
TORSDOF 1
ENDMDL
