MODEL 1
REMARK VINA RESULT:      55.8      0.000      0.000
REMARK  4 active torsions:
REMARK  status: ('A' for Active; 'I' for Inactive)
REMARK    1  A    between atoms: C_12  and  N_1 
REMARK    2  A    between atoms: N_3  and  C_11 
REMARK    3  A    between atoms: C_11  and  C_15 
REMARK    4  A    between atoms: C_15  and  C_12 
ROOT
ATOM      1  N   UNL d   1     -50.300  26.641  33.458  0.00  0.00    -0.303 N 
ATOM      2  C   UNL d   1     -50.958  27.148  33.415  0.00  0.00     0.064 A 
ATOM      3  C   UNL d   1     -51.636  26.682  33.360  0.00  0.00     0.018 A 
ATOM      4  C   UNL d   1     -51.406  25.888  33.367  0.00  0.00     0.018 A 
ATOM      5  C   UNL d   1     -50.577  25.863  33.428  0.00  0.00     0.064 A 
ATOM      6  C   UNL d   1     -50.187  25.135  33.449  0.00  0.00     0.018 A 
ATOM      7  C   UNL d   1     -51.838  25.185  33.327  0.00  0.00     0.002 A 
ATOM      8  C   UNL d   1     -50.618  24.437  33.408  0.00  0.00     0.002 A 
ATOM      9  C   UNL d   1     -51.440  24.462  33.348  0.00  0.00     0.000 A 
ATOM     10  C   UNL d   1     -50.934  27.972  33.427  0.00  0.00     0.019 C 
ATOM     11  C   UNL d   1     -52.409  26.963  33.306  0.00  0.00     0.002 C 
ATOM     12  C   UNL d   1     -51.871  23.763  33.308  0.00  0.00     0.000 C 
ENDROOT
BRANCH   1  13
ATOM     13  C   UNL d   1     -49.509  26.875  33.519  0.00  0.00     0.124 C 
BRANCH  13  14
ATOM     14  C   UNL d   1     -49.323  27.586  33.899  0.00  0.00     0.232 C 
ATOM     15  O   UNL d   1     -49.663  28.286  33.646  0.00  0.00    -0.283 OA
BRANCH  14  16
ATOM     16  C   UNL d   1     -48.794  27.581  34.530  0.00  0.00     0.144 C 
BRANCH  16  17
ATOM     17  N   UNL d   1     -48.526  28.287  34.856  0.00  0.00    -0.225 N 
ATOM     18  N   UNL d   1     -48.118  28.879  34.446  0.00  0.00    -0.165 NA
ATOM     19  C   UNL d   1     -47.953  29.491  34.981  0.00  0.00     0.103 A 
ATOM     20  C   UNL d   1     -47.556  30.192  34.817  0.00  0.00     0.022 C 
ATOM     21  C   UNL d   1     -48.260  29.274  35.720  0.00  0.00     0.040 A 
ATOM     22  C   UNL d   1     -48.613  28.528  35.640  0.00  0.00     0.085 A 
ATOM     23  C   UNL d   1     -48.987  28.103  36.236  0.00  0.00     0.021 C 
ENDBRANCH  16  17
ENDBRANCH  14  16
ENDBRANCH  13  14
ENDBRANCH   1  13
TORSDOF 4
ENDMDL
