MODEL 1
REMARK VINA RESULT:       1.4      0.000      0.000
REMARK  5 active torsions:
REMARK  status: ('A' for Active; 'I' for Inactive)
REMARK    1  A    between atoms: S_5  and  C_2 
REMARK    2  A    between atoms: C_16  and  S_5 
REMARK    3  A    between atoms: N_13  and  C_10 
REMARK    4  A    between atoms: C_23  and  N_13 
REMARK    5  A    between atoms: C_18  and  C_23 
ROOT
ATOM      1  C   UNL d   1      57.773  -9.671  31.156  0.00  0.00     0.198 A 
ATOM      2  C   UNL d   1      57.905  -9.676  31.968  0.00  0.00     0.227 A 
ATOM      3  N   UNL d   1      56.961  -9.732  31.029  0.00  0.00    -0.192 N 
ATOM      4  N   UNL d   1      58.288  -9.619  30.513  0.00  0.00    -0.205 NA
ATOM      5  N   UNL d   1      57.181  -9.739  32.345  0.00  0.00    -0.115 NA
ATOM      6  N   UNL d   1      56.592  -9.775  31.769  0.00  0.00    -0.058 NA
ATOM      7  C   UNL d   1      56.665  -9.741  30.262  0.00  0.00     0.096 A 
ATOM      8  C   UNL d   1      57.181  -9.689  29.619  0.00  0.00     0.083 A 
ATOM      9  C   UNL d   1      57.991  -9.628  29.739  0.00  0.00     0.172 A 
ATOM     10  S   UNL d   1      56.729  -9.712  28.918  0.00  0.00    -0.082 SA
ATOM     11  C   UNL d   1      55.886  -9.797  29.969  0.00  0.00     0.027 A 
ATOM     12  C   UNL d   1      55.929  -9.779  29.137  0.00  0.00     0.037 A 
ENDROOT
BRANCH   2  13
ATOM     13  S   UNL d   1      58.646  -9.624  32.342  0.00  0.00     0.231 S 
ATOM     14  O   UNL d   1      59.039  -9.817  31.635  0.00  0.00    -0.215 OA
ATOM     15  O   UNL d   1      58.249  -9.433  33.043  0.00  0.00    -0.215 OA
BRANCH  13  16
ATOM     16  C   UNL d   1      59.365  -9.564  32.748  0.00  0.00     0.090 A 
ATOM     17  C   UNL d   1      59.385  -9.314  33.530  0.00  0.00     0.011 A 
ATOM     18  C   UNL d   1      60.100  -9.254  33.934  0.00  0.00     0.001 A 
ATOM     19  C   UNL d   1      60.807  -9.448  33.550  0.00  0.00     0.000 A 
ATOM     20  C   UNL d   1      60.790  -9.703  32.753  0.00  0.00     0.001 A 
ATOM     21  C   UNL d   1      60.063  -9.760  32.355  0.00  0.00     0.011 A 
ENDBRANCH  13  16
ENDBRANCH   2  13
BRANCH   9  22
ATOM     22  N   UNL d   1      58.512  -9.576  29.091  0.00  0.00    -0.223 NA
BRANCH  22  23
ATOM     23  C   UNL d   1      59.039  -8.945  29.034  0.00  0.00     0.125 C 
BRANCH  23  24
ATOM     24  C   UNL d   1      59.832  -9.084  28.855  0.00  0.00     0.119 A 
ATOM     25  O   UNL d   1      60.181  -9.817  28.726  0.00  0.00    -0.304 OA
ATOM     26  C   UNL d   1      60.985  -9.696  28.564  0.00  0.00     0.123 A 
ATOM     27  C   UNL d   1      61.133  -8.885  28.593  0.00  0.00     0.029 A 
ATOM     28  C   UNL d   1      60.421  -8.507  28.773  0.00  0.00     0.028 A 
ENDBRANCH  23  24
ENDBRANCH  22  23
ENDBRANCH   9  22
TORSDOF 5
ENDMDL
MODEL 2
REMARK VINA RESULT:       1.5      8.425      9.014
REMARK  5 active torsions:
REMARK  status: ('A' for Active; 'I' for Inactive)
REMARK    1  A    between atoms: S_5  and  C_2 
REMARK    2  A    between atoms: C_16  and  S_5 
REMARK    3  A    between atoms: N_13  and  C_10 
REMARK    4  A    between atoms: C_23  and  N_13 
REMARK    5  A    between atoms: C_18  and  C_23 
ROOT
ATOM      1  C   UNL d   1      58.324  -0.350  30.835  0.00  0.00     0.198 A 
ATOM      2  C   UNL d   1      58.029  -0.067  31.550  0.00  0.00     0.227 A 
ATOM      3  N   UNL d   1      58.991   0.092  30.642  0.00  0.00    -0.192 N 
ATOM      4  N   UNL d   1      58.070  -0.954  30.334  0.00  0.00    -0.205 NA
ATOM      5  N   UNL d   1      58.509   0.547  31.801  0.00  0.00    -0.115 NA
ATOM      6  N   UNL d   1      59.108   0.650  31.242  0.00  0.00    -0.058 NA
ATOM      7  C   UNL d   1      59.404  -0.069  29.949  0.00  0.00     0.096 A 
ATOM      8  C   UNL d   1      59.150  -0.674  29.448  0.00  0.00     0.083 A 
ATOM      9  C   UNL d   1      58.485  -1.118  29.635  0.00  0.00     0.172 A 
ATOM     10  S   UNL d   1      59.670  -0.710  28.796  0.00  0.00    -0.082 SA
ATOM     11  C   UNL d   1      60.085   0.278  29.616  0.00  0.00     0.027 A 
ATOM     12  C   UNL d   1      60.248  -0.120  28.903  0.00  0.00     0.037 A 
ENDROOT
BRANCH   2  13
ATOM     13  S   UNL d   1      57.359  -0.355  31.949  0.00  0.00     0.231 S 
ATOM     14  O   UNL d   1      57.792  -0.993  32.260  0.00  0.00    -0.215 OA
ATOM     15  O   UNL d   1      56.931   0.282  31.636  0.00  0.00    -0.215 OA
BRANCH  13  16
ATOM     16  C   UNL d   1      56.671  -0.612  32.331  0.00  0.00     0.090 A 
ATOM     17  C   UNL d   1      56.438  -1.399  32.292  0.00  0.00     0.011 A 
ATOM     18  C   UNL d   1      55.753  -1.654  32.673  0.00  0.00     0.001 A 
ATOM     19  C   UNL d   1      55.293  -1.113  33.099  0.00  0.00     0.000 A 
ATOM     20  C   UNL d   1      55.528  -0.310  33.140  0.00  0.00     0.001 A 
ATOM     21  C   UNL d   1      56.221  -0.064  32.753  0.00  0.00     0.011 A 
ENDBRANCH  13  16
ENDBRANCH   2  13
BRANCH   9  22
ATOM     22  N   UNL d   1      58.228  -1.728  29.129  0.00  0.00    -0.223 NA
BRANCH  22  23
ATOM     23  C   UNL d   1      57.914  -2.421  29.445  0.00  0.00     0.125 C 
BRANCH  23  24
ATOM     24  C   UNL d   1      58.032  -3.142  29.061  0.00  0.00     0.119 A 
ATOM     25  O   UNL d   1      58.757  -3.460  28.836  0.00  0.00    -0.304 OA
ATOM     26  C   UNL d   1      58.616  -4.190  28.468  0.00  0.00     0.123 A 
ATOM     27  C   UNL d   1      57.802  -4.323  28.466  0.00  0.00     0.029 A 
ATOM     28  C   UNL d   1      57.441  -3.675  28.832  0.00  0.00     0.028 A 
ENDBRANCH  23  24
ENDBRANCH  22  23
ENDBRANCH   9  22
TORSDOF 5
ENDMDL
