MODEL 1
REMARK VINA RESULT:      19.7      0.000      0.000
REMARK  7 active torsions:
REMARK  status: ('A' for Active; 'I' for Inactive)
REMARK       I    between atoms: N_2  and  C_13 
REMARK    1  A    between atoms: C_11  and  C_6 
REMARK    2  A    between atoms: C_14  and  C_7 
REMARK    3  A    between atoms: S_18  and  C_9 
REMARK    4  A    between atoms: C_13  and  C_19 
REMARK    5  A    between atoms: O_26  and  C_15 
REMARK    6  A    between atoms: C_19  and  S_18 
REMARK    7  A    between atoms: O_29  and  C_22 
ROOT
ATOM      1  N   UNL d   1     -41.876-122.744 -51.047  0.00  0.00    -0.194 N 
ATOM      2  N   UNL d   1     -42.132-123.207 -50.418  0.00  0.00    -0.162 NA
ATOM      3  C   UNL d   1     -41.834-121.963 -50.782  0.00  0.00     0.090 A 
ATOM      4  C   UNL d   1     -42.245-122.706 -49.766  0.00  0.00     0.109 A 
ATOM      5  C   UNL d   1     -42.059-121.953 -50.005  0.00  0.00     0.041 A 
ATOM      6  C   UNL d   1     -41.701-123.014 -51.788  0.00  0.00     0.287 C 
ATOM      7  O   UNL d   1     -41.771-123.813 -51.970  0.00  0.00    -0.265 OA
ENDROOT
BRANCH   6   8
ATOM      8  C   UNL d   1     -41.449-122.488 -52.374  0.00  0.00     0.100 C 
BRANCH   8   9
ATOM      9  S   UNL d   1     -41.123-122.781 -53.077  0.00  0.00    -0.054 SA
BRANCH   9  10
ATOM     10  C   UNL d   1     -41.546-122.730 -53.790  0.00  0.00     0.163 A 
ATOM     11  S   UNL d   1     -41.551-122.070 -54.315  0.00  0.00    -0.021 SA
ATOM     12  C   UNL d   1     -42.048-122.258 -54.959  0.00  0.00     0.200 A 
ATOM     13  N   UNL d   1     -42.104-121.660 -55.517  0.00  0.00    -0.182 NA
ATOM     14  N   UNL d   1     -42.356-123.031 -54.844  0.00  0.00    -0.204 N 
ATOM     15  C   UNL d   1     -42.575-121.828 -56.134  0.00  0.00     0.281 A 
ATOM     16  O   UNL d   1     -42.369-121.064 -56.405  0.00  0.00    -0.265 OA
ATOM     17  C   UNL d   1     -43.055-122.500 -56.372  0.00  0.00     0.064 A 
ATOM     18  C   UNL d   1     -43.160-123.249 -55.951  0.00  0.00     0.026 A 
ATOM     19  C   UNL d   1     -42.806-123.462 -55.221  0.00  0.00     0.103 A 
ATOM     20  N   UNL d   1     -42.045-123.324 -54.119  0.00  0.00    -0.150 NA
ENDBRANCH   9  10
ENDBRANCH   8   9
ENDBRANCH   6   8
BRANCH   3  21
ATOM     21  C   UNL d   1     -41.602-121.331 -51.243  0.00  0.00     0.042 A 
ATOM     22  C   UNL d   1     -41.482-120.603 -50.877  0.00  0.00     0.118 A 
ATOM     23  C   UNL d   1     -41.245-119.950 -51.335  0.00  0.00     0.116 A 
ATOM     24  C   UNL d   1     -41.133-120.037 -52.148  0.00  0.00     0.026 A 
ATOM     25  C   UNL d   1     -41.254-120.763 -52.504  0.00  0.00     0.002 A 
ATOM     26  C   UNL d   1     -41.490-121.413 -52.044  0.00  0.00     0.004 A 
BRANCH  22  27
ATOM     27  O   UNL d   1     -41.593-120.513 -50.067  0.00  0.00    -0.326 OA
ATOM     28  C   UNL d   1     -41.937-119.820 -49.791  0.00  0.00     0.181 C 
ENDBRANCH  22  27
BRANCH  23  29
ATOM     29  O   UNL d   1     -41.126-119.224 -50.970  0.00  0.00    -0.326 OA
ATOM     30  C   UNL d   1     -41.280-118.525 -51.379  0.00  0.00     0.181 C 
ENDBRANCH  23  29
ENDBRANCH   3  21
BRANCH   4  31
ATOM     31  C   UNL d   1     -42.498-122.941 -49.026  0.00  0.00     0.049 A 
ATOM     32  S   UNL d   1     -43.179-123.371 -48.862  0.00  0.00    -0.085 SA
ATOM     33  C   UNL d   1     -43.216-123.486 -48.040  0.00  0.00     0.035 A 
ATOM     34  C   UNL d   1     -42.553-123.124 -47.711  0.00  0.00     0.007 A 
ATOM     35  C   UNL d   1     -42.120-122.793 -48.330  0.00  0.00     0.009 A 
ENDBRANCH   4  31
TORSDOF 7
ENDMDL
