MODEL 1
REMARK VINA RESULT:      59.8      0.000      0.000
REMARK  4 active torsions:
REMARK  status: ('A' for Active; 'I' for Inactive)
REMARK    1  A    between atoms: N_3  and  C_1 
REMARK    2  A    between atoms: C_2  and  S_10 
REMARK    3  A    between atoms: N_5  and  C_9 
REMARK    4  A    between atoms: S_10  and  C_8 
ROOT
ATOM      1  C   UNL d   1     -47.317  29.740  36.149  0.00  0.00     0.134 A 
ATOM      2  C   UNL d   1     -47.701  29.006  36.100  0.00  0.00     0.048 A 
ATOM      3  C   UNL d   1     -47.306  30.258  35.496  0.00  0.00     0.055 A 
ATOM      4  C   UNL d   1     -48.085  28.769  35.397  0.00  0.00     0.128 A 
ATOM      5  C   UNL d   1     -47.678  30.033  34.807  0.00  0.00     0.010 A 
ATOM      6  C   UNL d   1     -48.062  29.305  34.751  0.00  0.00     0.024 A 
ENDROOT
BRANCH   3   7
ATOM      7  S   UNL d   1     -46.936  30.975  35.529  0.00  0.00    -0.041 SA
BRANCH   7   8
ATOM      8  C   UNL d   1     -47.276  31.672  35.000  0.00  0.00     0.215 A 
ATOM      9  N   UNL d   1     -46.868  32.050  34.429  0.00  0.00    -0.214 NA
ATOM     10  C   UNL d   1     -47.377  32.624  34.103  0.00  0.00     0.107 A 
ATOM     11  C   UNL d   1     -47.283  33.191  33.495  0.00  0.00     0.021 A 
ATOM     12  C   UNL d   1     -48.096  32.581  34.492  0.00  0.00     0.120 A 
ATOM     13  C   UNL d   1     -47.908  33.685  33.306  0.00  0.00     0.002 A 
ATOM     14  C   UNL d   1     -48.618  33.638  33.694  0.00  0.00     0.002 A 
ATOM     15  C   UNL d   1     -48.720  33.081  34.296  0.00  0.00     0.026 A 
ATOM     16  O   UNL d   1     -48.028  31.964  35.072  0.00  0.00    -0.283 OA
ENDBRANCH   7   8
ENDBRANCH   3   7
BRANCH   1  17
ATOM     17  N   UNL d   1     -46.950  29.941  36.857  0.00  0.00    -0.113 N 
ATOM     18  O   UNL d   1     -47.320  30.306  37.467  0.00  0.00    -0.532 OA
ATOM     19  O   UNL d   1     -46.149  29.783  37.008  0.00  0.00    -0.532 OA
ENDBRANCH   1  17
BRANCH   4  20
ATOM     20  N   UNL d   1     -48.471  28.049  35.325  0.00  0.00    -0.114 N 
ATOM     21  O   UNL d   1     -48.272  27.458  34.749  0.00  0.00    -0.532 OA
ATOM     22  O   UNL d   1     -49.085  27.798  35.779  0.00  0.00    -0.532 OA
ENDBRANCH   4  20
TORSDOF 4
ENDMDL
