MODEL 1
REMARK VINA RESULT:      80.0      0.000      0.000
REMARK  5 active torsions:
REMARK  status: ('A' for Active; 'I' for Inactive)
REMARK    1  A    between atoms: N_8  and  C_1 
REMARK    2  A    between atoms: S_2  and  C_7 
REMARK    3  A    between atoms: N_9  and  S_2 
REMARK    4  A    between atoms: C_17  and  N_5 
REMARK       I    between atoms: C_10  and  N_8 
REMARK    5  A    between atoms: C_12  and  C_10 
ROOT
ATOM      1  N   UNL d   1     -50.545  26.844  33.342  0.00  0.00    -0.202 NA
ATOM      2  C   UNL d   1     -50.073  27.123  33.970  0.00  0.00     0.279 C 
ATOM      3  O   UNL d   1     -49.860  26.610  34.583  0.00  0.00    -0.265 OA
ENDROOT
BRANCH   2   4
ATOM      4  C   UNL d   1     -49.824  27.901  33.975  0.00  0.00     0.059 A 
ATOM      5  C   UNL d   1     -49.245  28.152  34.512  0.00  0.00     0.019 A 
ATOM      6  C   UNL d   1     -48.996  28.938  34.514  0.00  0.00     0.115 A 
ATOM      7  C   UNL d   1     -49.325  29.474  33.980  0.00  0.00     0.070 A 
ATOM      8  C   UNL d   1     -49.897  29.226  33.450  0.00  0.00     0.012 A 
ATOM      9 CL   UNL d   1     -49.076  30.260  33.983  0.00  0.00    -0.082 Cl
ATOM     10  C   UNL d   1     -50.153  28.436  33.442  0.00  0.00     0.006 A 
BRANCH   6  11
ATOM     11  S   UNL d   1     -48.417  29.184  35.053  0.00  0.00     0.272 S 
ATOM     12  O   UNL d   1     -48.886  28.908  35.676  0.00  0.00    -0.200 OA
ATOM     13  O   UNL d   1     -47.950  29.459  34.433  0.00  0.00    -0.200 OA
BRANCH  11  14
ATOM     14  N   UNL d   1     -47.844  29.427  35.591  0.00  0.00    -0.229 N 
ATOM     15  C   UNL d   1     -47.770  29.031  36.303  0.00  0.00     0.092 A 
ATOM     16  C   UNL d   1     -47.195  29.276  36.844  0.00  0.00     0.020 A 
ATOM     17  C   UNL d   1     -46.702  29.912  36.666  0.00  0.00     0.003 A 
ATOM     18  C   UNL d   1     -46.785  30.304  35.944  0.00  0.00     0.020 A 
ATOM     19  C   UNL d   1     -47.357  30.062  35.406  0.00  0.00     0.092 A 
ENDBRANCH  11  14
ENDBRANCH   6  11
ENDBRANCH   2   4
BRANCH   1  20
ATOM     20  C   UNL d   1     -50.794  26.064  33.340  0.00  0.00     0.160 A 
ATOM     21  C   UNL d   1     -51.576  25.794  33.352  0.00  0.00     0.298 A 
ATOM     22  N   UNL d   1     -51.563  24.977  33.345  0.00  0.00    -0.209 N 
ATOM     23  O   UNL d   1     -52.243  26.269  33.367  0.00  0.00    -0.263 OA
ATOM     24  N   UNL d   1     -50.774  24.735  33.329  0.00  0.00    -0.238 N 
ATOM     25  C   UNL d   1     -50.298  25.402  33.326  0.00  0.00     0.104 A 
ATOM     26  C   UNL d   1     -50.511  23.961  33.318  0.00  0.00     0.120 C 
ATOM     27  C   UNL d   1     -49.481  25.416  33.312  0.00  0.00     0.022 C 
BRANCH  22  28
ATOM     28  C   UNL d   1     -52.216  24.488  33.352  0.00  0.00     0.085 A 
ATOM     29  C   UNL d   1     -52.116  23.678  33.404  0.00  0.00     0.019 A 
ATOM     30  C   UNL d   1     -52.774  23.188  33.412  0.00  0.00     0.002 A 
ATOM     31  C   UNL d   1     -53.525  23.501  33.367  0.00  0.00     0.000 A 
ATOM     32  C   UNL d   1     -53.623  24.322  33.314  0.00  0.00     0.002 A 
ATOM     33  C   UNL d   1     -52.964  24.811  33.307  0.00  0.00     0.019 A 
ENDBRANCH  22  28
ENDBRANCH   1  20
TORSDOF 5
ENDMDL
