MODEL 1
REMARK VINA RESULT:      -8.0      0.000      0.000
REMARK  3 active torsions:
REMARK  status: ('A' for Active; 'I' for Inactive)
REMARK    1  A    between atoms: N_5  and  C_1 
REMARK    2  A    between atoms: N_8  and  N_5 
REMARK    3  A    between atoms: C_7  and  N_8 
ROOT
ATOM      1  C   UNL d   1      52.948  32.972  53.308  0.00  0.00     0.162 A 
ATOM      2  C   UNL d   1      53.047  32.167  53.171  0.00  0.00     0.299 A 
ATOM      3  N   UNL d   1      53.582  31.877  53.730  0.00  0.00    -0.207 NA
ATOM      4  C   UNL d   1      53.422  33.186  53.955  0.00  0.00     0.042 A 
ATOM      5  C   UNL d   1      53.814  32.509  54.215  0.00  0.00     0.086 A 
ATOM      6  O   UNL d   1      52.677  31.723  52.577  0.00  0.00    -0.263 OA
ATOM      7  C   UNL d   1      53.543  33.911  54.335  0.00  0.00     0.003 A 
ATOM      8  C   UNL d   1      54.327  32.559  54.856  0.00  0.00     0.019 A 
ATOM      9  C   UNL d   1      54.058  33.947  54.974  0.00  0.00     0.000 A 
ATOM     10  C   UNL d   1      54.452  33.267  55.235  0.00  0.00     0.002 A 
ENDROOT
BRANCH   1  11
ATOM     11  N   UNL d   1      52.460  33.486  52.878  0.00  0.00    -0.141 NA
BRANCH  11  12
ATOM     12  N   UNL d   1      51.634  33.451  52.982  0.00  0.00    -0.115 NA
BRANCH  12  13
ATOM     13  C   UNL d   1      51.148  33.996  52.588  0.00  0.00     0.260 C 
ATOM     14  S   UNL d   1      50.425  34.225  52.917  0.00  0.00    -0.034 SA
ATOM     15  N   UNL d   1      51.396  34.309  51.858  0.00  0.00    -0.113 N 
ENDBRANCH  12  13
ENDBRANCH  11  12
ENDBRANCH   1  11
TORSDOF 3
ENDMDL
MODEL 2
REMARK VINA RESULT:      -7.6      1.187      2.025
REMARK  3 active torsions:
REMARK  status: ('A' for Active; 'I' for Inactive)
REMARK    1  A    between atoms: N_5  and  C_1 
REMARK    2  A    between atoms: N_8  and  N_5 
REMARK    3  A    between atoms: C_7  and  N_8 
ROOT
ATOM      1  C   UNL d   1      53.023  32.555  53.132  0.00  0.00     0.162 A 
ATOM      2  C   UNL d   1      53.638  32.837  53.601  0.00  0.00     0.299 A 
ATOM      3  N   UNL d   1      54.026  32.186  53.931  0.00  0.00    -0.207 NA
ATOM      4  C   UNL d   1      53.028  31.725  53.170  0.00  0.00     0.042 A 
ATOM      5  C   UNL d   1      53.647  31.498  53.664  0.00  0.00     0.086 A 
ATOM      6  O   UNL d   1      53.834  33.632  53.722  0.00  0.00    -0.263 OA
ATOM      7  C   UNL d   1      52.544  31.154  52.816  0.00  0.00     0.003 A 
ATOM      8  C   UNL d   1      53.783  30.699  53.803  0.00  0.00     0.019 A 
ATOM      9  C   UNL d   1      52.691  30.359  52.963  0.00  0.00     0.000 A 
ATOM     10  C   UNL d   1      53.313  30.131  53.459  0.00  0.00     0.002 A 
ENDROOT
BRANCH   1  11
ATOM     11  N   UNL d   1      52.489  33.014  52.696  0.00  0.00    -0.141 NA
BRANCH  11  12
ATOM     12  N   UNL d   1      51.965  33.524  53.094  0.00  0.00    -0.115 NA
BRANCH  12  13
ATOM     13  C   UNL d   1      51.392  33.941  52.663  0.00  0.00     0.260 C 
ATOM     14  S   UNL d   1      50.647  34.086  52.990  0.00  0.00    -0.034 SA
ATOM     15  N   UNL d   1      51.576  34.213  51.898  0.00  0.00    -0.113 N 
ENDBRANCH  12  13
ENDBRANCH  11  12
ENDBRANCH   1  11
TORSDOF 3
ENDMDL
MODEL 3
REMARK VINA RESULT:      -7.6      1.696      2.450
REMARK  3 active torsions:
REMARK  status: ('A' for Active; 'I' for Inactive)
REMARK    1  A    between atoms: N_5  and  C_1 
REMARK    2  A    between atoms: N_8  and  N_5 
REMARK    3  A    between atoms: C_7  and  N_8 
ROOT
ATOM      1  C   UNL d   1      53.137  32.568  53.539  0.00  0.00     0.162 A 
ATOM      2  C   UNL d   1      52.487  33.051  53.390  0.00  0.00     0.299 A 
ATOM      3  N   UNL d   1      52.580  33.744  53.830  0.00  0.00    -0.207 NA
ATOM      4  C   UNL d   1      53.636  32.961  54.073  0.00  0.00     0.042 A 
ATOM      5  C   UNL d   1      53.292  33.688  54.253  0.00  0.00     0.086 A 
ATOM      6  O   UNL d   1      51.853  32.875  52.889  0.00  0.00    -0.263 OA
ATOM      7  C   UNL d   1      54.359  32.745  54.415  0.00  0.00     0.003 A 
ATOM      8  C   UNL d   1      53.670  34.198  54.775  0.00  0.00     0.019 A 
ATOM      9  C   UNL d   1      54.726  33.264  54.934  0.00  0.00     0.000 A 
ATOM     10  C   UNL d   1      54.380  33.995  55.115  0.00  0.00     0.002 A 
ENDROOT
BRANCH   1  11
ATOM     11  N   UNL d   1      53.275  31.818  53.214  0.00  0.00    -0.141 NA
BRANCH  11  12
ATOM     12  N   UNL d   1      52.805  31.174  53.454  0.00  0.00    -0.115 NA
BRANCH  12  13
ATOM     13  C   UNL d   1      52.984  30.411  53.183  0.00  0.00     0.260 C 
ATOM     14  S   UNL d   1      53.128  29.799  53.720  0.00  0.00    -0.034 SA
ATOM     15  N   UNL d   1      53.019  30.268  52.364  0.00  0.00    -0.113 N 
ENDBRANCH  12  13
ENDBRANCH  11  12
ENDBRANCH   1  11
TORSDOF 3
ENDMDL
MODEL 4
REMARK VINA RESULT:      -7.6      1.859      3.015
REMARK  3 active torsions:
REMARK  status: ('A' for Active; 'I' for Inactive)
REMARK    1  A    between atoms: N_5  and  C_1 
REMARK    2  A    between atoms: N_8  and  N_5 
REMARK    3  A    between atoms: C_7  and  N_8 
ROOT
ATOM      1  C   UNL d   1      53.340  31.987  53.380  0.00  0.00     0.162 A 
ATOM      2  C   UNL d   1      52.799  32.197  52.797  0.00  0.00     0.299 A 
ATOM      3  N   UNL d   1      52.423  31.509  52.538  0.00  0.00    -0.207 NA
ATOM      4  C   UNL d   1      53.302  31.164  53.485  0.00  0.00     0.042 A 
ATOM      5  C   UNL d   1      52.735  30.869  52.965  0.00  0.00     0.086 A 
ATOM      6  O   UNL d   1      52.655  32.964  52.519  0.00  0.00    -0.263 OA
ATOM      7  C   UNL d   1      53.713  30.652  53.990  0.00  0.00     0.003 A 
ATOM      8  C   UNL d   1      52.580  30.062  52.949  0.00  0.00     0.019 A 
ATOM      9  C   UNL d   1      53.548  29.848  53.964  0.00  0.00     0.000 A 
ATOM     10  C   UNL d   1      52.979  29.551  53.441  0.00  0.00     0.002 A 
ENDROOT
BRANCH   1  11
ATOM     11  N   UNL d   1      53.840  32.502  53.795  0.00  0.00    -0.141 NA
BRANCH  11  12
ATOM     12  N   UNL d   1      53.519  33.012  54.369  0.00  0.00    -0.115 NA
BRANCH  12  13
ATOM     13  C   UNL d   1      54.016  33.541  54.772  0.00  0.00     0.260 C 
ATOM     14  S   UNL d   1      53.722  34.264  55.045  0.00  0.00    -0.034 SA
ATOM     15  N   UNL d   1      54.812  33.336  54.898  0.00  0.00    -0.113 N 
ENDBRANCH  12  13
ENDBRANCH  11  12
ENDBRANCH   1  11
TORSDOF 3
ENDMDL
MODEL 5
REMARK VINA RESULT:      -7.2      1.747      3.074
REMARK  3 active torsions:
REMARK  status: ('A' for Active; 'I' for Inactive)
REMARK    1  A    between atoms: N_5  and  C_1 
REMARK    2  A    between atoms: N_8  and  N_5 
REMARK    3  A    between atoms: C_7  and  N_8 
ROOT
ATOM      1  C   UNL d   1      52.937  32.909  53.678  0.00  0.00     0.162 A 
ATOM      2  C   UNL d   1      52.949  32.256  53.178  0.00  0.00     0.299 A 
ATOM      3  N   UNL d   1      52.417  32.397  52.562  0.00  0.00    -0.207 NA
ATOM      4  C   UNL d   1      52.395  33.459  53.374  0.00  0.00     0.042 A 
ATOM      5  C   UNL d   1      52.073  33.143  52.684  0.00  0.00     0.086 A 
ATOM      6  O   UNL d   1      53.413  31.577  53.273  0.00  0.00    -0.263 OA
ATOM      7  C   UNL d   1      52.158  34.207  53.641  0.00  0.00     0.003 A 
ATOM      8  C   UNL d   1      51.514  33.573  52.262  0.00  0.00     0.019 A 
ATOM      9  C   UNL d   1      51.598  34.626  53.210  0.00  0.00     0.000 A 
ATOM     10  C   UNL d   1      51.275  34.308  52.517  0.00  0.00     0.002 A 
ENDROOT
BRANCH   1  11
ATOM     11  N   UNL d   1      53.386  33.007  54.368  0.00  0.00    -0.141 NA
BRANCH  11  12
ATOM     12  N   UNL d   1      54.204  33.154  54.308  0.00  0.00    -0.115 NA
BRANCH  12  13
ATOM     13  C   UNL d   1      54.641  33.322  54.993  0.00  0.00     0.260 C 
ATOM     14  S   UNL d   1      55.277  33.850  54.963  0.00  0.00    -0.034 SA
ATOM     15  N   UNL d   1      54.434  32.953  55.709  0.00  0.00    -0.113 N 
ENDBRANCH  12  13
ENDBRANCH  11  12
ENDBRANCH   1  11
TORSDOF 3
ENDMDL
