MODEL 1
REMARK VINA RESULT:      -4.2      0.000      0.000
REMARK  4 active torsions:
REMARK  status: ('A' for Active; 'I' for Inactive)
REMARK    1  A    between atoms: N_2  and  S_1 
REMARK    2  A    between atoms: C_3  and  S_1 
REMARK    3  A    between atoms: O_15  and  C_13 
REMARK    4  A    between atoms: C_19  and  O_15 
ROOT
ATOM      1  C   UNL d   1     -41.718-123.186 -50.976  0.00  0.00     0.105 A 
ATOM      2  C   UNL d   1     -41.517-122.423 -51.248  0.00  0.00     0.014 A 
ATOM      3  C   UNL d   1     -41.321-122.306 -52.038  0.00  0.00     0.024 A 
ATOM      4  C   UNL d   1     -41.714-123.817 -51.517  0.00  0.00     0.015 A 
ATOM      5  C   UNL d   1     -41.320-122.935 -52.567  0.00  0.00     0.100 A 
ATOM      6  C   UNL d   1     -41.517-123.693 -52.306  0.00  0.00     0.025 A 
ATOM      7  C   UNL d   1     -41.518-121.790 -50.718  0.00  0.00     0.001 A 
ATOM      8  C   UNL d   1     -41.125-121.552 -52.300  0.00  0.00     0.002 A 
ATOM      9  C   UNL d   1     -41.322-121.036 -50.980  0.00  0.00     0.000 A 
ATOM     10  C   UNL d   1     -41.123-120.914 -51.777  0.00  0.00     0.000 A 
ENDROOT
BRANCH   1  11
ATOM     11  S   UNL d   1     -41.915-123.311 -50.187  0.00  0.00     0.286 S 
ATOM     12  O   UNL d   1     -41.131-123.518 -50.024  0.00  0.00    -0.198 OA
ATOM     13  O   UNL d   1     -42.704-123.103 -50.351  0.00  0.00    -0.198 OA
BRANCH  11  14
ATOM     14  N   UNL d   1     -42.115-123.438 -49.385  0.00  0.00    -0.150 N 
ATOM     15  N   UNL d   1     -41.628-123.278 -48.731  0.00  0.00    -0.155 NA
ATOM     16  C   UNL d   1     -42.044-123.485 -48.048  0.00  0.00     0.104 A 
ATOM     17  C   UNL d   1     -41.770-123.419 -47.268  0.00  0.00     0.022 C 
ATOM     18  C   UNL d   1     -42.788-123.772 -48.280  0.00  0.00     0.042 A 
ATOM     19  C   UNL d   1     -42.827-123.741 -49.104  0.00  0.00     0.115 A 
ENDBRANCH  11  14
ENDBRANCH   1  11
BRANCH   5  20
ATOM     20  O   UNL d   1     -41.123-122.810 -53.356  0.00  0.00    -0.305 OA
BRANCH  20  21
ATOM     21  C   UNL d   1     -41.316-123.373 -53.922  0.00  0.00     0.123 C 
ATOM     22  C   UNL d   1     -41.312-123.181 -54.723  0.00  0.00     0.029 C 
ENDBRANCH  20  21
ENDBRANCH   5  20
TORSDOF 4
ENDMDL
MODEL 2
REMARK VINA RESULT:      -3.4      1.501      4.096
REMARK  4 active torsions:
REMARK  status: ('A' for Active; 'I' for Inactive)
REMARK    1  A    between atoms: N_2  and  S_1 
REMARK    2  A    between atoms: C_3  and  S_1 
REMARK    3  A    between atoms: O_15  and  C_13 
REMARK    4  A    between atoms: C_19  and  O_15 
ROOT
ATOM      1  C   UNL d   1     -41.684-123.099 -50.413  0.00  0.00     0.105 A 
ATOM      2  C   UNL d   1     -42.383-122.829 -50.046  0.00  0.00     0.014 A 
ATOM      3  C   UNL d   1     -42.506-122.967 -49.244  0.00  0.00     0.024 A 
ATOM      4  C   UNL d   1     -41.123-123.506 -49.955  0.00  0.00     0.015 A 
ATOM      5  C   UNL d   1     -41.946-123.370 -48.798  0.00  0.00     0.100 A 
ATOM      6  C   UNL d   1     -41.253-123.640 -49.154  0.00  0.00     0.025 A 
ATOM      7  C   UNL d   1     -42.947-122.424 -50.493  0.00  0.00     0.001 A 
ATOM      8  C   UNL d   1     -43.197-122.698 -48.888  0.00  0.00     0.002 A 
ATOM      9  C   UNL d   1     -43.637-122.155 -50.137  0.00  0.00     0.000 A 
ATOM     10  C   UNL d   1     -43.765-122.293 -49.327  0.00  0.00     0.000 A 
ENDROOT
BRANCH   1  11
ATOM     11  S   UNL d   1     -41.554-122.964 -51.215  0.00  0.00     0.286 S 
ATOM     12  O   UNL d   1     -41.860-123.712 -51.390  0.00  0.00    -0.198 OA
ATOM     13  O   UNL d   1     -41.246-122.212 -51.039  0.00  0.00    -0.198 OA
BRANCH  11  14
ATOM     14  N   UNL d   1     -41.422-122.828 -52.029  0.00  0.00    -0.150 N 
ATOM     15  N   UNL d   1     -41.469-123.398 -52.631  0.00  0.00    -0.155 NA
ATOM     16  C   UNL d   1     -41.298-123.025 -53.348  0.00  0.00     0.104 A 
ATOM     17  C   UNL d   1     -41.281-123.384 -54.097  0.00  0.00     0.022 C 
ATOM     18  C   UNL d   1     -41.146-122.224 -53.189  0.00  0.00     0.042 A 
ATOM     19  C   UNL d   1     -41.224-122.107 -52.375  0.00  0.00     0.115 A 
ENDBRANCH  11  14
ENDBRANCH   1  11
BRANCH   5  20
ATOM     20  O   UNL d   1     -42.076-123.504 -47.996  0.00  0.00    -0.305 OA
BRANCH  20  21
ATOM     21  C   UNL d   1     -41.453-123.727 -47.511  0.00  0.00     0.123 C 
ATOM     22  C   UNL d   1     -41.494-123.610 -46.697  0.00  0.00     0.029 C 
ENDBRANCH  20  21
ENDBRANCH   5  20
TORSDOF 4
ENDMDL
MODEL 3
REMARK VINA RESULT:      -3.3      1.777      4.171
REMARK  4 active torsions:
REMARK  status: ('A' for Active; 'I' for Inactive)
REMARK    1  A    between atoms: N_2  and  S_1 
REMARK    2  A    between atoms: C_3  and  S_1 
REMARK    3  A    between atoms: O_15  and  C_13 
REMARK    4  A    between atoms: C_19  and  O_15 
ROOT
ATOM      1  C   UNL d   1     -41.739-122.752 -52.253  0.00  0.00     0.105 A 
ATOM      2  C   UNL d   1     -41.532-122.112 -51.759  0.00  0.00     0.014 A 
ATOM      3  C   UNL d   1     -41.497-122.215 -50.944  0.00  0.00     0.024 A 
ATOM      4  C   UNL d   1     -41.907-123.488 -51.904  0.00  0.00     0.015 A 
ATOM      5  C   UNL d   1     -41.664-122.946 -50.607  0.00  0.00     0.100 A 
ATOM      6  C   UNL d   1     -41.869-123.584 -51.088  0.00  0.00     0.025 A 
ATOM      7  C   UNL d   1     -41.364-121.377 -52.096  0.00  0.00     0.001 A 
ATOM      8  C   UNL d   1     -41.293-121.581 -50.463  0.00  0.00     0.002 A 
ATOM      9  C   UNL d   1     -41.160-120.743 -51.615  0.00  0.00     0.000 A 
ATOM     10  C   UNL d   1     -41.123-120.843 -50.791  0.00  0.00     0.000 A 
ENDROOT
BRANCH   1  11
ATOM     11  S   UNL d   1     -41.776-122.656 -53.069  0.00  0.00     0.286 S 
ATOM     12  O   UNL d   1     -42.426-122.153 -52.980  0.00  0.00    -0.198 OA
ATOM     13  O   UNL d   1     -41.123-123.163 -53.159  0.00  0.00    -0.198 OA
BRANCH  11  14
ATOM     14  N   UNL d   1     -41.814-122.559 -53.898  0.00  0.00    -0.150 N 
ATOM     15  N   UNL d   1     -42.423-122.176 -54.316  0.00  0.00    -0.155 NA
ATOM     16  C   UNL d   1     -42.237-122.207 -55.120  0.00  0.00     0.104 A 
ATOM     17  C   UNL d   1     -42.691-121.894 -55.741  0.00  0.00     0.022 C 
ATOM     18  C   UNL d   1     -41.514-122.609 -55.200  0.00  0.00     0.042 A 
ATOM     19  C   UNL d   1     -41.258-122.823 -54.445  0.00  0.00     0.115 A 
ENDBRANCH  11  14
ENDBRANCH   1  11
BRANCH   5  20
ATOM     20  O   UNL d   1     -41.627-123.042 -49.790  0.00  0.00    -0.305 OA
BRANCH  20  21
ATOM     21  C   UNL d   1     -41.902-123.734 -49.445  0.00  0.00     0.123 C 
ATOM     22  C   UNL d   1     -41.917-123.817 -48.626  0.00  0.00     0.029 C 
ENDBRANCH  20  21
ENDBRANCH   5  20
TORSDOF 4
ENDMDL
