MODEL 1
REMARK VINA RESULT:      -1.0      0.000      0.000
REMARK  3 active torsions:
REMARK  status: ('A' for Active; 'I' for Inactive)
REMARK    1  A    between atoms: C_5  and  N_1 
REMARK    2  A    between atoms: C_8  and  C_2 
REMARK    3  A    between atoms: C_7  and  C_5 
ROOT
ATOM      1  N   UNL d   1      59.198  -0.354  29.343  0.00  0.00    -0.287 N 
ATOM      2  C   UNL d   1      59.998  -0.158  29.251  0.00  0.00     0.187 A 
ATOM      3  N   UNL d   1      60.437  -0.864  29.174  0.00  0.00    -0.224 NA
ATOM      4  C   UNL d   1      59.131  -1.186  29.323  0.00  0.00     0.083 A 
ATOM      5  C   UNL d   1      59.895  -1.494  29.219  0.00  0.00     0.099 A 
ATOM      6  C   UNL d   1      58.481  -1.706  29.385  0.00  0.00     0.019 A 
ATOM      7  C   UNL d   1      60.013  -2.322  29.176  0.00  0.00     0.021 A 
ATOM      8  C   UNL d   1      58.596  -2.521  29.343  0.00  0.00     0.002 A 
ATOM      9  C   UNL d   1      59.360  -2.829  29.239  0.00  0.00     0.002 A 
ENDROOT
BRANCH   1  10
ATOM     10  C   UNL d   1      58.694   0.293  29.426  0.00  0.00     0.082 C 
BRANCH  10  11
ATOM     11  C   UNL d   1      58.270   0.398  30.120  0.00  0.00     0.018 A 
ATOM     12  C   UNL d   1      57.472   0.574  30.092  0.00  0.00     0.001 A 
ATOM     13  C   UNL d   1      57.046   0.680  30.787  0.00  0.00     0.000 A 
ATOM     14  C   UNL d   1      57.098   0.644  29.360  0.00  0.00     0.000 C 
ATOM     15  C   UNL d   1      57.423   0.608  31.517  0.00  0.00     0.000 A 
ATOM     16  C   UNL d   1      58.228   0.431  31.547  0.00  0.00     0.000 A 
ATOM     17  C   UNL d   1      58.650   0.326  30.848  0.00  0.00     0.002 A 
ATOM     18  C   UNL d   1      58.609   0.359  32.277  0.00  0.00     0.000 C 
ENDBRANCH  10  11
ENDBRANCH   1  10
BRANCH   2  19
ATOM     19  C   UNL d   1      60.640   0.347  29.190  0.00  0.00     0.230 C 
ATOM     20  O   UNL d   1      61.094   0.523  29.856  0.00  0.00    -0.283 OA
ATOM     21  C   UNL d   1      60.835   0.680  28.465  0.00  0.00     0.049 C 
ENDBRANCH   2  19
TORSDOF 3
ENDMDL
MODEL 2
REMARK VINA RESULT:       0.2      4.204      6.313
REMARK  3 active torsions:
REMARK  status: ('A' for Active; 'I' for Inactive)
REMARK    1  A    between atoms: C_5  and  N_1 
REMARK    2  A    between atoms: C_8  and  C_2 
REMARK    3  A    between atoms: C_7  and  C_5 
ROOT
ATOM      1  N   UNL d   1      55.632   0.630  34.145  0.00  0.00    -0.287 N 
ATOM      2  C   UNL d   1      54.853   0.639  34.426  0.00  0.00     0.187 A 
ATOM      3  N   UNL d   1      54.871   0.660  35.261  0.00  0.00    -0.224 NA
ATOM      4  C   UNL d   1      56.145   0.645  34.803  0.00  0.00     0.083 A 
ATOM      5  C   UNL d   1      55.673   0.663  35.486  0.00  0.00     0.099 A 
ATOM      6  C   UNL d   1      56.976   0.645  34.877  0.00  0.00     0.019 A 
ATOM      7  C   UNL d   1      56.028   0.682  36.244  0.00  0.00     0.021 A 
ATOM      8  C   UNL d   1      57.327   0.662  35.623  0.00  0.00     0.002 A 
ATOM      9  C   UNL d   1      56.854   0.681  36.305  0.00  0.00     0.002 A 
ENDROOT
BRANCH   1  10
ATOM     10  C   UNL d   1      55.700   0.609  33.323  0.00  0.00     0.082 C 
BRANCH  10  11
ATOM     11  C   UNL d   1      55.926  -0.084  32.946  0.00  0.00     0.018 A 
ATOM     12  C   UNL d   1      56.403  -0.054  32.282  0.00  0.00     0.001 A 
ATOM     13  C   UNL d   1      56.629  -0.747  31.904  0.00  0.00     0.000 A 
ATOM     14  C   UNL d   1      56.654   0.678  31.997  0.00  0.00     0.000 C 
ATOM     15  C   UNL d   1      56.375  -1.478  32.192  0.00  0.00     0.000 A 
ATOM     16  C   UNL d   1      55.894  -1.509  32.862  0.00  0.00     0.000 A 
ATOM     17  C   UNL d   1      55.670  -0.812  33.238  0.00  0.00     0.002 A 
ATOM     18  C   UNL d   1      55.639  -2.238  33.154  0.00  0.00     0.000 C 
ENDBRANCH  10  11
ENDBRANCH   1  10
BRANCH   2  19
ATOM     19  C   UNL d   1      54.036   0.639  34.361  0.00  0.00     0.230 C 
ATOM     20  O   UNL d   1      53.680   0.609  33.617  0.00  0.00    -0.283 OA
ATOM     21  C   UNL d   1      53.568   0.669  35.035  0.00  0.00     0.049 C 
ENDBRANCH   2  19
TORSDOF 3
ENDMDL
MODEL 3
REMARK VINA RESULT:       0.5      1.354      3.556
REMARK  3 active torsions:
REMARK  status: ('A' for Active; 'I' for Inactive)
REMARK    1  A    between atoms: C_5  and  N_1 
REMARK    2  A    between atoms: C_8  and  C_2 
REMARK    3  A    between atoms: C_7  and  C_5 
ROOT
ATOM      1  N   UNL d   1      58.840  -1.186  29.445  0.00  0.00    -0.287 N 
ATOM      2  C   UNL d   1      58.433  -0.844  30.080  0.00  0.00     0.187 A 
ATOM      3  N   UNL d   1      58.754  -0.085  30.224  0.00  0.00    -0.224 NA
ATOM      4  C   UNL d   1      59.419  -0.643  29.186  0.00  0.00     0.083 A 
ATOM      5  C   UNL d   1      59.362   0.030  29.667  0.00  0.00     0.099 A 
ATOM      6  C   UNL d   1      59.991  -0.668  28.578  0.00  0.00     0.019 A 
ATOM      7  C   UNL d   1      59.874   0.682  29.544  0.00  0.00     0.021 A 
ATOM      8  C   UNL d   1      60.497  -0.028  28.456  0.00  0.00     0.002 A 
ATOM      9  C   UNL d   1      60.438   0.645  28.938  0.00  0.00     0.002 A 
ENDROOT
BRANCH   1  10
ATOM     10  C   UNL d   1      58.582  -1.941  29.239  0.00  0.00     0.082 C 
BRANCH  10  11
ATOM     11  C   UNL d   1      59.110  -2.568  29.225  0.00  0.00     0.018 A 
ATOM     12  C   UNL d   1      58.918  -3.260  28.835  0.00  0.00     0.001 A 
ATOM     13  C   UNL d   1      59.447  -3.889  28.820  0.00  0.00     0.000 A 
ATOM     14  C   UNL d   1      58.188  -3.321  28.455  0.00  0.00     0.000 C 
ATOM     15  C   UNL d   1      60.176  -3.824  29.201  0.00  0.00     0.000 A 
ATOM     16  C   UNL d   1      60.372  -3.126  29.595  0.00  0.00     0.000 A 
ATOM     17  C   UNL d   1      59.839  -2.499  29.607  0.00  0.00     0.002 A 
ATOM     18  C   UNL d   1      61.101  -3.058  29.978  0.00  0.00     0.000 C 
ENDBRANCH  10  11
ENDBRANCH   1  10
BRANCH   2  19
ATOM     19  C   UNL d   1      57.875  -0.812  30.678  0.00  0.00     0.230 C 
ATOM     20  O   UNL d   1      57.492  -1.500  30.925  0.00  0.00    -0.283 OA
ATOM     21  C   UNL d   1      57.692  -0.096  31.035  0.00  0.00     0.049 C 
ENDBRANCH   2  19
TORSDOF 3
ENDMDL
MODEL 4
REMARK VINA RESULT:       0.7      8.609      9.755
REMARK  3 active torsions:
REMARK  status: ('A' for Active; 'I' for Inactive)
REMARK    1  A    between atoms: C_5  and  N_1 
REMARK    2  A    between atoms: C_8  and  C_2 
REMARK    3  A    between atoms: C_7  and  C_5 
ROOT
ATOM      1  N   UNL d   1      59.394  -9.502  33.627  0.00  0.00    -0.287 N 
ATOM      2  C   UNL d   1      59.957  -9.303  33.053  0.00  0.00     0.187 A 
ATOM      3  N   UNL d   1      59.576  -9.260  32.311  0.00  0.00    -0.224 NA
ATOM      4  C   UNL d   1      58.655  -9.585  33.247  0.00  0.00     0.083 A 
ATOM      5  C   UNL d   1      58.773  -9.436  32.440  0.00  0.00     0.099 A 
ATOM      6  C   UNL d   1      57.891  -9.777  33.524  0.00  0.00     0.019 A 
ATOM      7  C   UNL d   1      58.129  -9.476  31.905  0.00  0.00     0.021 A 
ATOM      8  C   UNL d   1      57.257  -9.817  32.999  0.00  0.00     0.002 A 
ATOM      9  C   UNL d   1      57.375  -9.667  32.191  0.00  0.00     0.002 A 
ENDROOT
BRANCH   1  10
ATOM     10  C   UNL d   1      59.692  -9.565  34.393  0.00  0.00     0.082 C 
BRANCH  10  11
ATOM     11  C   UNL d   1      59.554  -8.969  34.939  0.00  0.00     0.018 A 
ATOM     12  C   UNL d   1      59.720  -9.090  35.731  0.00  0.00     0.001 A 
ATOM     13  C   UNL d   1      59.582  -8.493  36.279  0.00  0.00     0.000 A 
ATOM     14  C   UNL d   1      60.028  -9.816  35.974  0.00  0.00     0.000 C 
ATOM     15  C   UNL d   1      59.275  -7.769  36.032  0.00  0.00     0.000 A 
ATOM     16  C   UNL d   1      59.107  -7.645  35.234  0.00  0.00     0.000 A 
ATOM     17  C   UNL d   1      59.247  -8.246  34.689  0.00  0.00     0.002 A 
ATOM     18  C   UNL d   1      58.799  -6.921  34.983  0.00  0.00     0.000 C 
ENDBRANCH  10  11
ENDBRANCH   1  10
BRANCH   2  19
ATOM     19  C   UNL d   1      60.704  -9.115  32.775  0.00  0.00     0.230 C 
ATOM     20  O   UNL d   1      61.029  -8.372  32.929  0.00  0.00    -0.283 OA
ATOM     21  C   UNL d   1      61.133  -9.664  32.340  0.00  0.00     0.049 C 
ENDBRANCH   2  19
TORSDOF 3
ENDMDL
MODEL 5
REMARK VINA RESULT:       0.7      1.752      3.583
REMARK  3 active torsions:
REMARK  status: ('A' for Active; 'I' for Inactive)
REMARK    1  A    between atoms: C_5  and  N_1 
REMARK    2  A    between atoms: C_8  and  C_2 
REMARK    3  A    between atoms: C_7  and  C_5 
ROOT
ATOM      1  N   UNL d   1      58.016   0.194  30.964  0.00  0.00    -0.287 N 
ATOM      2  C   UNL d   1      57.436   0.137  31.552  0.00  0.00     0.187 A 
ATOM      3  N   UNL d   1      57.796   0.267  32.295  0.00  0.00    -0.224 NA
ATOM      4  C   UNL d   1      58.746   0.361  31.335  0.00  0.00     0.083 A 
ATOM      5  C   UNL d   1      58.604   0.405  32.152  0.00  0.00     0.099 A 
ATOM      6  C   UNL d   1      59.518   0.479  31.044  0.00  0.00     0.019 A 
ATOM      7  C   UNL d   1      59.233   0.566  32.681  0.00  0.00     0.021 A 
ATOM      8  C   UNL d   1      60.139   0.638  31.563  0.00  0.00     0.002 A 
ATOM      9  C   UNL d   1      59.997   0.682  32.380  0.00  0.00     0.002 A 
ENDROOT
BRANCH   1  10
ATOM     10  C   UNL d   1      57.740   0.077  30.197  0.00  0.00     0.082 C 
BRANCH  10  11
ATOM     11  C   UNL d   1      58.133  -0.434  29.690  0.00  0.00     0.018 A 
ATOM     12  C   UNL d   1      58.437  -0.159  28.982  0.00  0.00     0.001 A 
ATOM     13  C   UNL d   1      58.831  -0.671  28.475  0.00  0.00     0.000 A 
ATOM     14  C   UNL d   1      58.344   0.636  28.783  0.00  0.00     0.000 C 
ATOM     15  C   UNL d   1      58.922  -1.465  28.677  0.00  0.00     0.000 A 
ATOM     16  C   UNL d   1      58.616  -1.744  29.390  0.00  0.00     0.000 A 
ATOM     17  C   UNL d   1      58.222  -1.228  29.896  0.00  0.00     0.002 A 
ATOM     18  C   UNL d   1      58.705  -2.539  29.596  0.00  0.00     0.000 C 
ENDBRANCH  10  11
ENDBRANCH   1  10
BRANCH   2  19
ATOM     19  C   UNL d   1      56.680   0.022  31.846  0.00  0.00     0.230 C 
ATOM     20  O   UNL d   1      56.459  -0.713  32.147  0.00  0.00    -0.283 OA
ATOM     21  C   UNL d   1      56.137   0.639  31.841  0.00  0.00     0.049 C 
ENDBRANCH   2  19
TORSDOF 3
ENDMDL
MODEL 6
REMARK VINA RESULT:       1.7      2.666      4.274
REMARK  3 active torsions:
REMARK  status: ('A' for Active; 'I' for Inactive)
REMARK    1  A    between atoms: C_5  and  N_1 
REMARK    2  A    between atoms: C_8  and  C_2 
REMARK    3  A    between atoms: C_7  and  C_5 
ROOT
ATOM      1  N   UNL d   1      57.046   0.605  32.785  0.00  0.00    -0.287 N 
ATOM      2  C   UNL d   1      57.735   0.643  33.244  0.00  0.00     0.187 A 
ATOM      3  N   UNL d   1      58.394   0.677  32.731  0.00  0.00    -0.224 NA
ATOM      4  C   UNL d   1      57.270   0.616  31.981  0.00  0.00     0.083 A 
ATOM      5  C   UNL d   1      58.098   0.660  31.953  0.00  0.00     0.099 A 
ATOM      6  C   UNL d   1      56.835   0.592  31.269  0.00  0.00     0.019 A 
ATOM      7  C   UNL d   1      58.495   0.680  31.216  0.00  0.00     0.021 A 
ATOM      8  C   UNL d   1      57.224   0.611  30.542  0.00  0.00     0.002 A 
ATOM      9  C   UNL d   1      58.053   0.656  30.516  0.00  0.00     0.002 A 
ENDROOT
BRANCH   1  10
ATOM     10  C   UNL d   1      56.346   0.569  33.219  0.00  0.00     0.082 C 
BRANCH  10  11
ATOM     11  C   UNL d   1      55.907  -0.123  33.235  0.00  0.00     0.018 A 
ATOM     12  C   UNL d   1      55.144  -0.120  33.530  0.00  0.00     0.001 A 
ATOM     13  C   UNL d   1      54.703  -0.813  33.545  0.00  0.00     0.000 A 
ATOM     14  C   UNL d   1      54.822   0.586  33.811  0.00  0.00     0.000 C 
ATOM     15  C   UNL d   1      55.028  -1.516  33.263  0.00  0.00     0.000 A 
ATOM     16  C   UNL d   1      55.797  -1.521  32.965  0.00  0.00     0.000 A 
ATOM     17  C   UNL d   1      56.236  -0.825  32.952  0.00  0.00     0.002 A 
ATOM     18  C   UNL d   1      56.126  -2.224  32.682  0.00  0.00     0.000 C 
ENDBRANCH  10  11
ENDBRANCH   1  10
BRANCH   2  19
ATOM     19  C   UNL d   1      58.168   0.667  33.938  0.00  0.00     0.230 C 
ATOM     20  O   UNL d   1      58.993   0.676  33.912  0.00  0.00    -0.283 OA
ATOM     21  C   UNL d   1      57.785   0.682  34.664  0.00  0.00     0.049 C 
ENDBRANCH   2  19
TORSDOF 3
ENDMDL
