MODEL 1
REMARK VINA RESULT:      33.2      0.000      0.000
REMARK  3 active torsions:
REMARK  status: ('A' for Active; 'I' for Inactive)
REMARK    1  A    between atoms: N_5  and  C_2 
REMARK    2  A    between atoms: C_8  and  C_3 
REMARK       I    between atoms: C_7  and  N_5 
REMARK    3  A    between atoms: C_10  and  C_7 
ROOT
ATOM      1  N   UNL d   1      14.540  13.562  -1.885  0.00  0.00    -0.200 NA
ATOM      2  C   UNL d   1      14.299  12.791  -2.011  0.00  0.00     0.216 A 
ATOM      3  C   UNL d   1      14.809  13.627  -1.102  0.00  0.00     0.172 A 
ATOM      4  N   UNL d   1      14.730  12.885  -0.750  0.00  0.00    -0.187 NA
ATOM      5  S   UNL d   1      14.413  12.361  -1.311  0.00  0.00     0.054 SA
ENDROOT
BRANCH   2   6
ATOM      6  N   UNL d   1      13.993  12.489  -2.715  0.00  0.00    -0.181 NA
ATOM      7  C   UNL d   1      13.988  12.955  -3.392  0.00  0.00     0.281 C 
ATOM      8  O   UNL d   1      14.287  13.722  -3.367  0.00  0.00    -0.265 OA
BRANCH   7   9
ATOM      9  C   UNL d   1      13.685  12.656  -4.088  0.00  0.00     0.058 A 
ATOM     10  C   UNL d   1      13.977  12.914  -4.819  0.00  0.00     0.005 A 
ATOM     11  C   UNL d   1      13.671  12.612  -5.523  0.00  0.00     0.000 A 
ATOM     12  C   UNL d   1      13.074  12.052  -5.497  0.00  0.00     0.000 A 
ATOM     13  C   UNL d   1      12.777  11.788  -4.781  0.00  0.00     0.000 A 
ATOM     14  C   UNL d   1      13.085  12.093  -4.070  0.00  0.00     0.005 A 
ENDBRANCH   7   9
ENDBRANCH   2   6
BRANCH   3  15
ATOM     15  C   UNL d   1      15.100  14.301  -0.742  0.00  0.00     0.036 A 
ATOM     16  C   UNL d   1      15.892  14.335  -0.513  0.00  0.00     0.003 A 
ATOM     17  C   UNL d   1      16.188  15.017  -0.147  0.00  0.00     0.000 A 
ATOM     18  C   UNL d   1      15.688  15.663  -0.014  0.00  0.00     0.000 A 
ATOM     19  C   UNL d   1      14.892  15.628  -0.245  0.00  0.00     0.000 A 
ATOM     20  C   UNL d   1      14.602  14.942  -0.610  0.00  0.00     0.003 A 
ENDBRANCH   3  15
TORSDOF 3
ENDMDL
MODEL 2
REMARK VINA RESULT:      34.4      0.616      4.542
REMARK  3 active torsions:
REMARK  status: ('A' for Active; 'I' for Inactive)
REMARK    1  A    between atoms: N_5  and  C_2 
REMARK    2  A    between atoms: C_8  and  C_3 
REMARK       I    between atoms: C_7  and  N_5 
REMARK    3  A    between atoms: C_10  and  C_7 
ROOT
ATOM      1  N   UNL d   1      14.077  12.896  -3.032  0.00  0.00    -0.200 NA
ATOM      2  C   UNL d   1      14.047  12.732  -2.232  0.00  0.00     0.216 A 
ATOM      3  C   UNL d   1      13.650  12.308  -3.436  0.00  0.00     0.172 A 
ATOM      4  N   UNL d   1      13.358  11.782  -2.872  0.00  0.00    -0.187 NA
ATOM      5  S   UNL d   1      13.602  12.040  -2.121  0.00  0.00     0.054 SA
ENDROOT
BRANCH   2   6
ATOM      6  N   UNL d   1      14.399  13.177  -1.634  0.00  0.00    -0.181 NA
ATOM      7  C   UNL d   1      14.709  13.918  -1.804  0.00  0.00     0.281 C 
ATOM      8  O   UNL d   1      14.668  14.216  -2.571  0.00  0.00    -0.265 OA
BRANCH   7   9
ATOM      9  C   UNL d   1      15.058  14.359  -1.213  0.00  0.00     0.058 A 
ATOM     10  C   UNL d   1      14.907  15.171  -1.148  0.00  0.00     0.005 A 
ATOM     11  C   UNL d   1      15.259  15.616  -0.549  0.00  0.00     0.000 A 
ATOM     12  C   UNL d   1      15.762  15.250  -0.016  0.00  0.00     0.000 A 
ATOM     13  C   UNL d   1      15.920  14.449  -0.069  0.00  0.00     0.000 A 
ATOM     14  C   UNL d   1      15.564  13.999  -0.673  0.00  0.00     0.005 A 
ENDBRANCH   7   9
ENDBRANCH   2   6
BRANCH   3  15
ATOM     15  C   UNL d   1      13.537  12.257  -4.244  0.00  0.00     0.036 A 
ATOM     16  C   UNL d   1      14.073  12.617  -4.757  0.00  0.00     0.003 A 
ATOM     17  C   UNL d   1      13.960  12.566  -5.577  0.00  0.00     0.000 A 
ATOM     18  C   UNL d   1      13.309  12.153  -5.877  0.00  0.00     0.000 A 
ATOM     19  C   UNL d   1      12.770  11.792  -5.361  0.00  0.00     0.000 A 
ATOM     20  C   UNL d   1      12.889  11.847  -4.541  0.00  0.00     0.003 A 
ENDBRANCH   3  15
TORSDOF 3
ENDMDL
MODEL 3
REMARK VINA RESULT:      35.8      2.194      2.755
REMARK  3 active torsions:
REMARK  status: ('A' for Active; 'I' for Inactive)
REMARK    1  A    between atoms: N_5  and  C_2 
REMARK    2  A    between atoms: C_8  and  C_3 
REMARK       I    between atoms: C_7  and  N_5 
REMARK    3  A    between atoms: C_10  and  C_7 
ROOT
ATOM      1  N   UNL d   1      13.914  12.942  -2.736  0.00  0.00    -0.200 NA
ATOM      2  C   UNL d   1      13.509  12.871  -3.442  0.00  0.00     0.216 A 
ATOM      3  C   UNL d   1      13.763  12.266  -2.278  0.00  0.00     0.172 A 
ATOM      4  N   UNL d   1      13.259  11.779  -2.713  0.00  0.00    -0.187 NA
ATOM      5  S   UNL d   1      13.097  12.150  -3.438  0.00  0.00     0.054 SA
ENDROOT
BRANCH   2   6
ATOM      6  N   UNL d   1      13.507  13.421  -4.056  0.00  0.00    -0.181 NA
ATOM      7  C   UNL d   1      13.531  14.224  -3.886  0.00  0.00     0.281 C 
ATOM      8  O   UNL d   1      13.556  14.479  -3.103  0.00  0.00    -0.265 OA
BRANCH   7   9
ATOM      9  C   UNL d   1      13.529  14.768  -4.494  0.00  0.00     0.058 A 
ATOM     10  C   UNL d   1      14.241  15.066  -4.795  0.00  0.00     0.005 A 
ATOM     11  C   UNL d   1      14.239  15.616  -5.409  0.00  0.00     0.000 A 
ATOM     12  C   UNL d   1      13.526  15.869  -5.723  0.00  0.00     0.000 A 
ATOM     13  C   UNL d   1      12.815  15.583  -5.435  0.00  0.00     0.000 A 
ATOM     14  C   UNL d   1      12.817  15.028  -4.815  0.00  0.00     0.005 A 
ENDBRANCH   7   9
ENDBRANCH   2   6
BRANCH   3  15
ATOM     15  C   UNL d   1      14.058  12.108  -1.532  0.00  0.00     0.036 A 
ATOM     16  C   UNL d   1      14.871  12.028  -1.419  0.00  0.00     0.003 A 
ATOM     17  C   UNL d   1      15.171  11.868  -0.664  0.00  0.00     0.000 A 
ATOM     18  C   UNL d   1      14.653  11.788  -0.024  0.00  0.00     0.000 A 
ATOM     19  C   UNL d   1      13.836  11.868  -0.137  0.00  0.00     0.000 A 
ATOM     20  C   UNL d   1      13.541  12.029  -0.896  0.00  0.00     0.003 A 
ENDBRANCH   3  15
TORSDOF 3
ENDMDL
