MODEL 1
REMARK VINA RESULT:      25.0      0.000      0.000
REMARK  9 active torsions:
REMARK  status: ('A' for Active; 'I' for Inactive)
REMARK    1  A    between atoms: N_4  and  C_1 
REMARK       I    between atoms: C_8  and  N_4 
REMARK    2  A    between atoms: C_19  and  N_4 
REMARK    3  A    between atoms: S_6  and  C_11 
REMARK    4  A    between atoms: C_14  and  S_6 
REMARK    5  A    between atoms: C_10  and  C_8 
REMARK    6  A    between atoms: C_11  and  C_10 
REMARK    7  A    between atoms: C_20  and  C_19 
REMARK    8  A    between atoms: C_23  and  C_20 
REMARK    9  A    between atoms: N_21  and  C_23 
ROOT
ATOM      1  N   UNL d   1      46.357 -17.333  43.892  0.00  0.00    -0.253 N 
ATOM      2  C   UNL d   1      46.009 -16.583  43.943  0.00  0.00     0.267 C 
ATOM      3  O   UNL d   1      45.725 -16.211  43.273  0.00  0.00    -0.267 OA
ENDROOT
BRANCH   1   4
ATOM      4  C   UNL d   1      46.414 -17.705  43.148  0.00  0.00     0.182 A 
ATOM      5  N   UNL d   1      46.441 -18.517  43.021  0.00  0.00    -0.222 NA
ATOM      6  C   UNL d   1      46.497 -18.653  42.203  0.00  0.00     0.089 A 
ATOM      7  C   UNL d   1      46.541 -19.336  41.767  0.00  0.00     0.018 A 
ATOM      8  C   UNL d   1      46.504 -17.917  41.832  0.00  0.00     0.050 A 
ATOM      9  C   UNL d   1      46.594 -19.305  40.943  0.00  0.00     0.002 A 
ATOM     10  C   UNL d   1      46.535 -20.074  42.141  0.00  0.00     0.002 C 
ATOM     11  C   UNL d   1      46.639 -19.988  40.498  0.00  0.00     0.000 C 
ATOM     12  C   UNL d   1      46.600 -18.572  40.575  0.00  0.00     0.001 A 
ATOM     13  C   UNL d   1      46.555 -17.882  41.025  0.00  0.00     0.008 A 
ATOM     14  S   UNL d   1      46.453 -17.327  42.410  0.00  0.00    -0.048 SA
ENDBRANCH   1   4
BRANCH   1  15
ATOM     15  C   UNL d   1      46.644 -17.708  44.568  0.00  0.00     0.086 C 
BRANCH  15  16
ATOM     16  C   UNL d   1      46.180 -18.278  44.953  0.00  0.00     0.038 C 
BRANCH  16  17
ATOM     17  C   UNL d   1      45.848 -18.897  44.520  0.00  0.00     0.082 C 
BRANCH  17  18
ATOM     18  N   UNL d   1      45.901 -19.671  44.799  0.00  0.00    -0.300 N 
ATOM     19  C   UNL d   1      46.640 -20.007  44.948  0.00  0.00     0.100 C 
ATOM     20  C   UNL d   1      45.215 -20.107  44.929  0.00  0.00     0.100 C 
ENDBRANCH  17  18
ENDBRANCH  16  17
ENDBRANCH  15  16
ENDBRANCH   1  15
BRANCH   2  21
ATOM     21  C   UNL d   1      45.955 -16.217  44.683  0.00  0.00     0.073 C 
BRANCH  21  22
ATOM     22  C   UNL d   1      46.299 -15.468  44.788  0.00  0.00     0.104 C 
BRANCH  22  23
ATOM     23  S   UNL d   1      45.905 -14.785  44.534  0.00  0.00     0.211 S 
ATOM     24  O   UNL d   1      45.179 -15.138  44.724  0.00  0.00    -0.217 OA
ATOM     25  O   UNL d   1      46.640 -14.431  44.343  0.00  0.00    -0.217 OA
BRANCH  23  26
ATOM     26  C   UNL d   1      45.512 -14.104  44.281  0.00  0.00     0.088 A 
ATOM     27  C   UNL d   1      45.607 -13.404  44.696  0.00  0.00     0.011 A 
ATOM     28  C   UNL d   1      45.211 -12.717  44.441  0.00  0.00     0.001 A 
ATOM     29  C   UNL d   1      44.731 -12.751  43.777  0.00  0.00     0.000 A 
ATOM     30  C   UNL d   1      44.634 -13.447  43.361  0.00  0.00     0.001 A 
ATOM     31  C   UNL d   1      45.026 -14.127  43.614  0.00  0.00     0.011 A 
ENDBRANCH  23  26
ENDBRANCH  22  23
ENDBRANCH  21  22
ENDBRANCH   2  21
TORSDOF 9
ENDMDL
