MODEL 1
REMARK VINA RESULT:      46.2      0.000      0.000
REMARK  2 active torsions:
REMARK  status: ('A' for Active; 'I' for Inactive)
REMARK       I    between atoms: C_6  and  N_1 
REMARK    1  A    between atoms: C_7  and  C_3 
REMARK    2  A    between atoms: C_8  and  C_4 
ROOT
ATOM      1  N   UNL d   1     -50.732  25.491  33.550  0.00  0.00    -0.195 N 
ATOM      2  N   UNL d   1     -50.565  26.286  33.531  0.00  0.00    -0.163 NA
ATOM      3  C   UNL d   1     -51.283  26.684  33.443  0.00  0.00     0.106 A 
ATOM      4  C   UNL d   1     -51.547  25.394  33.474  0.00  0.00     0.088 A 
ATOM      5  C   UNL d   1     -51.880  26.133  33.409  0.00  0.00     0.040 A 
ATOM      6  C   UNL d   1     -50.168  24.855  33.633  0.00  0.00     0.281 C 
ATOM      7  O   UNL d   1     -50.409  24.093  33.643  0.00  0.00    -0.265 OA
ATOM      8  C   UNL d   1     -49.369  25.050  33.703  0.00  0.00     0.068 C 
ENDROOT
BRANCH   3   9
ATOM      9  C   UNL d   1     -51.377  27.502  33.397  0.00  0.00     0.058 A 
ATOM     10  C   UNL d   1     -50.715  27.992  33.360  0.00  0.00     0.197 A 
ATOM     11  O   UNL d   1     -49.982  27.648  33.370  0.00  0.00    -0.286 OA
ATOM     12  C   UNL d   1     -50.833  28.793  33.316  0.00  0.00     0.042 A 
ATOM     13  C   UNL d   1     -51.551  29.117  33.307  0.00  0.00     0.003 A 
ATOM     14  C   UNL d   1     -52.213  28.626  33.344  0.00  0.00     0.000 A 
ATOM     15  C   UNL d   1     -52.134  27.829  33.389  0.00  0.00     0.005 A 
ENDBRANCH   3   9
BRANCH   4  16
ATOM     16  C   UNL d   1     -51.948  24.667  33.467  0.00  0.00     0.018 A 
ATOM     17  C   UNL d   1     -52.762  24.626  33.390  0.00  0.00     0.002 A 
ATOM     18  C   UNL d   1     -53.171  25.342  33.319  0.00  0.00     0.000 C 
ATOM     19  C   UNL d   1     -53.158  23.930  33.382  0.00  0.00     0.000 A 
ATOM     20  C   UNL d   1     -52.748  23.216  33.453  0.00  0.00     0.000 A 
ATOM     21  C   UNL d   1     -51.921  23.215  33.534  0.00  0.00     0.000 A 
ATOM     22  C   UNL d   1     -51.543  23.950  33.538  0.00  0.00     0.002 A 
ENDBRANCH   4  16
TORSDOF 2
ENDMDL
