MODEL 1
REMARK VINA RESULT:      -5.4      0.000      0.000
REMARK  3 active torsions:
REMARK  status: ('A' for Active; 'I' for Inactive)
REMARK    1  A    between atoms: C_6  and  C_1 
REMARK    2  A    between atoms: O_10  and  C_6 
REMARK    3  A    between atoms: C_13  and  O_10 
ROOT
ATOM      1  C   UNL d   1      57.453  -0.026  31.198  0.00  0.00     0.121 A 
ATOM      2  C   UNL d   1      57.122  -0.738  31.450  0.00  0.00     0.204 A 
ATOM      3  C   UNL d   1      57.248   0.682  31.573  0.00  0.00     0.107 A 
ATOM      4  C   UNL d   1      56.586  -0.743  32.077  0.00  0.00     0.057 A 
ATOM      5  N   UNL d   1      56.708   0.673  32.205  0.00  0.00    -0.244 NA
ATOM      6  C   UNL d   1      56.376  -0.039  32.457  0.00  0.00     0.085 A 
ATOM      7  O   UNL d   1      57.330  -1.443  31.071  0.00  0.00    -0.286 OA
ATOM      8  C   UNL d   1      56.256  -1.458  32.327  0.00  0.00     0.005 A 
ATOM      9  C   UNL d   1      55.846  -0.044  33.078  0.00  0.00     0.019 A 
ATOM     10  C   UNL d   1      55.722  -1.458  32.953  0.00  0.00     0.000 A 
ATOM     11  C   UNL d   1      55.517  -0.750  33.328  0.00  0.00     0.002 A 
ENDROOT
BRANCH   1  12
ATOM     12  C   UNL d   1      57.990  -0.011  30.571  0.00  0.00     0.305 C 
ATOM     13  O   UNL d   1      57.747  -0.265  29.824  0.00  0.00    -0.259 OA
BRANCH  12  14
ATOM     14  O   UNL d   1      58.763   0.254  30.692  0.00  0.00    -0.271 OA
BRANCH  14  15
ATOM     15  C   UNL d   1      59.256   0.406  30.045  0.00  0.00     0.126 C 
ATOM     16  C   UNL d   1      60.047   0.602  30.170  0.00  0.00     0.029 C 
ENDBRANCH  14  15
ENDBRANCH  12  14
ENDBRANCH   1  12
TORSDOF 3
ENDMDL
MODEL 2
REMARK VINA RESULT:      -4.2      1.211      3.344
REMARK  3 active torsions:
REMARK  status: ('A' for Active; 'I' for Inactive)
REMARK    1  A    between atoms: C_6  and  C_1 
REMARK    2  A    between atoms: O_10  and  C_6 
REMARK    3  A    between atoms: C_13  and  O_10 
ROOT
ATOM      1  C   UNL d   1      56.811  -0.296  32.148  0.00  0.00     0.121 A 
ATOM      2  C   UNL d   1      57.022  -0.799  31.529  0.00  0.00     0.204 A 
ATOM      3  C   UNL d   1      57.170   0.446  32.219  0.00  0.00     0.107 A 
ATOM      4  C   UNL d   1      57.591  -0.561  30.981  0.00  0.00     0.057 A 
ATOM      5  N   UNL d   1      57.743   0.682  31.665  0.00  0.00    -0.244 NA
ATOM      6  C   UNL d   1      57.954   0.179  31.046  0.00  0.00     0.085 A 
ATOM      7  O   UNL d   1      56.661  -1.540  31.462  0.00  0.00    -0.286 OA
ATOM      8  C   UNL d   1      57.801  -1.068  30.362  0.00  0.00     0.005 A 
ATOM      9  C   UNL d   1      58.517   0.414  30.505  0.00  0.00     0.019 A 
ATOM     10  C   UNL d   1      58.369  -0.826  29.819  0.00  0.00     0.000 A 
ATOM     11  C   UNL d   1      58.727  -0.084  29.890  0.00  0.00     0.002 A 
ENDROOT
BRANCH   1  12
ATOM     12  C   UNL d   1      56.243  -0.526  32.700  0.00  0.00     0.305 C 
ATOM     13  O   UNL d   1      56.250  -1.298  32.992  0.00  0.00    -0.259 OA
BRANCH  12  14
ATOM     14  O   UNL d   1      55.671   0.013  32.958  0.00  0.00    -0.271 OA
BRANCH  14  15
ATOM     15  C   UNL d   1      55.247  -0.133  33.652  0.00  0.00     0.126 C 
ATOM     16  C   UNL d   1      54.691   0.417  33.916  0.00  0.00     0.029 C 
ENDBRANCH  14  15
ENDBRANCH  12  14
ENDBRANCH   1  12
TORSDOF 3
ENDMDL
MODEL 3
REMARK VINA RESULT:      -4.0      1.206      1.748
REMARK  3 active torsions:
REMARK  status: ('A' for Active; 'I' for Inactive)
REMARK    1  A    between atoms: C_6  and  C_1 
REMARK    2  A    between atoms: O_10  and  C_6 
REMARK    3  A    between atoms: C_13  and  O_10 
ROOT
ATOM      1  C   UNL d   1      57.007  -0.746  31.468  0.00  0.00     0.121 A 
ATOM      2  C   UNL d   1      56.755  -0.034  31.798  0.00  0.00     0.204 A 
ATOM      3  C   UNL d   1      56.760  -1.465  31.795  0.00  0.00     0.107 A 
ATOM      4  C   UNL d   1      56.256  -0.038  32.454  0.00  0.00     0.057 A 
ATOM      5  N   UNL d   1      56.256  -1.465  32.457  0.00  0.00    -0.244 NA
ATOM      6  C   UNL d   1      56.004  -0.753  32.787  0.00  0.00     0.085 A 
ATOM      7  O   UNL d   1      57.004   0.682  31.467  0.00  0.00    -0.286 OA
ATOM      8  C   UNL d   1      56.005   0.678  32.783  0.00  0.00     0.005 A 
ATOM      9  C   UNL d   1      55.511  -0.758  33.437  0.00  0.00     0.019 A 
ATOM     10  C   UNL d   1      55.507   0.667  33.438  0.00  0.00     0.000 A 
ATOM     11  C   UNL d   1      55.260  -0.051  33.765  0.00  0.00     0.002 A 
ENDROOT
BRANCH   1  12
ATOM     12  C   UNL d   1      57.506  -0.751  30.811  0.00  0.00     0.305 C 
ATOM     13  O   UNL d   1      57.754  -0.034  30.484  0.00  0.00    -0.259 OA
BRANCH  12  14
ATOM     14  O   UNL d   1      57.756  -1.468  30.483  0.00  0.00    -0.271 OA
BRANCH  14  15
ATOM     15  C   UNL d   1      58.346  -1.476  29.904  0.00  0.00     0.126 C 
ATOM     16  C   UNL d   1      58.529  -2.180  29.515  0.00  0.00     0.029 C 
ENDBRANCH  14  15
ENDBRANCH  12  14
ENDBRANCH   1  12
TORSDOF 3
ENDMDL
MODEL 4
REMARK VINA RESULT:      -3.9      1.208      1.720
REMARK  3 active torsions:
REMARK  status: ('A' for Active; 'I' for Inactive)
REMARK    1  A    between atoms: C_6  and  C_1 
REMARK    2  A    between atoms: O_10  and  C_6 
REMARK    3  A    between atoms: C_13  and  O_10 
ROOT
ATOM      1  C   UNL d   1      56.962   0.006  32.288  0.00  0.00     0.121 A 
ATOM      2  C   UNL d   1      56.161  -0.004  32.486  0.00  0.00     0.204 A 
ATOM      3  C   UNL d   1      57.524   0.240  32.848  0.00  0.00     0.107 A 
ATOM      4  C   UNL d   1      55.922   0.219  33.243  0.00  0.00     0.057 A 
ATOM      5  N   UNL d   1      57.279   0.464  33.610  0.00  0.00    -0.244 NA
ATOM      6  C   UNL d   1      56.478   0.454  33.808  0.00  0.00     0.085 A 
ATOM      7  O   UNL d   1      55.602  -0.238  31.923  0.00  0.00    -0.286 OA
ATOM      8  C   UNL d   1      55.118   0.208  33.438  0.00  0.00     0.005 A 
ATOM      9  C   UNL d   1      56.242   0.675  34.557  0.00  0.00     0.019 A 
ATOM     10  C   UNL d   1      54.885   0.432  34.195  0.00  0.00     0.000 A 
ATOM     11  C   UNL d   1      55.448   0.665  34.755  0.00  0.00     0.002 A 
ENDROOT
BRANCH   1  12
ATOM     12  C   UNL d   1      57.210  -0.216  31.533  0.00  0.00     0.305 C 
ATOM     13  O   UNL d   1      57.099  -0.995  31.282  0.00  0.00    -0.259 OA
BRANCH  12  14
ATOM     14  O   UNL d   1      57.566   0.338  31.033  0.00  0.00    -0.271 OA
BRANCH  14  15
ATOM     15  C   UNL d   1      58.005   0.084  30.379  0.00  0.00     0.126 C 
ATOM     16  C   UNL d   1      58.295   0.638  29.841  0.00  0.00     0.029 C 
ENDBRANCH  14  15
ENDBRANCH  12  14
ENDBRANCH   1  12
TORSDOF 3
ENDMDL
MODEL 5
REMARK VINA RESULT:      -3.7      1.287      1.893
REMARK  3 active torsions:
REMARK  status: ('A' for Active; 'I' for Inactive)
REMARK    1  A    between atoms: C_6  and  C_1 
REMARK    2  A    between atoms: O_10  and  C_6 
REMARK    3  A    between atoms: C_13  and  O_10 
ROOT
ATOM      1  C   UNL d   1      58.050  -0.737  30.134  0.00  0.00     0.121 A 
ATOM      2  C   UNL d   1      57.851  -0.043  30.534  0.00  0.00     0.204 A 
ATOM      3  C   UNL d   1      57.755  -1.464  30.394  0.00  0.00     0.107 A 
ATOM      4  C   UNL d   1      57.357  -0.077  31.194  0.00  0.00     0.057 A 
ATOM      5  N   UNL d   1      57.258  -1.494  31.060  0.00  0.00    -0.244 NA
ATOM      6  C   UNL d   1      57.059  -0.801  31.461  0.00  0.00     0.085 A 
ATOM      7  O   UNL d   1      58.148   0.682  30.270  0.00  0.00    -0.286 OA
ATOM      8  C   UNL d   1      57.159   0.620  31.593  0.00  0.00     0.005 A 
ATOM      9  C   UNL d   1      56.570  -0.834  32.113  0.00  0.00     0.019 A 
ATOM     10  C   UNL d   1      56.667   0.581  32.251  0.00  0.00     0.000 A 
ATOM     11  C   UNL d   1      56.372  -0.147  32.511  0.00  0.00     0.002 A 
ENDROOT
BRANCH   1  12
ATOM     12  C   UNL d   1      58.543  -0.712  29.473  0.00  0.00     0.305 C 
ATOM     13  O   UNL d   1      58.243  -0.437  28.754  0.00  0.00    -0.259 OA
BRANCH  12  14
ATOM     14  O   UNL d   1      59.329  -0.961  29.530  0.00  0.00    -0.271 OA
BRANCH  14  15
ATOM     15  C   UNL d   1      59.781  -1.070  28.846  0.00  0.00     0.126 C 
ATOM     16  C   UNL d   1      60.550  -1.361  28.906  0.00  0.00     0.029 C 
ENDBRANCH  14  15
ENDBRANCH  12  14
ENDBRANCH   1  12
TORSDOF 3
ENDMDL
MODEL 6
REMARK VINA RESULT:      -3.2      1.314      3.788
REMARK  3 active torsions:
REMARK  status: ('A' for Active; 'I' for Inactive)
REMARK    1  A    between atoms: C_6  and  C_1 
REMARK    2  A    between atoms: O_10  and  C_6 
REMARK    3  A    between atoms: C_13  and  O_10 
ROOT
ATOM      1  C   UNL d   1      58.212   0.198  30.614  0.00  0.00     0.121 A 
ATOM      2  C   UNL d   1      58.366  -0.246  29.936  0.00  0.00     0.204 A 
ATOM      3  C   UNL d   1      58.809   0.663  30.948  0.00  0.00     0.107 A 
ATOM      4  C   UNL d   1      59.116  -0.226  29.592  0.00  0.00     0.057 A 
ATOM      5  N   UNL d   1      59.563   0.681  30.599  0.00  0.00    -0.244 NA
ATOM      6  C   UNL d   1      59.717   0.237  29.921  0.00  0.00     0.085 A 
ATOM      7  O   UNL d   1      57.767  -0.710  29.605  0.00  0.00    -0.286 OA
ATOM      8  C   UNL d   1      59.267  -0.672  28.913  0.00  0.00     0.005 A 
ATOM      9  C   UNL d   1      60.459   0.258  29.581  0.00  0.00     0.019 A 
ATOM     10  C   UNL d   1      60.016  -0.648  28.574  0.00  0.00     0.000 A 
ATOM     11  C   UNL d   1      60.612  -0.182  28.908  0.00  0.00     0.002 A 
ENDROOT
BRANCH   1  12
ATOM     12  C   UNL d   1      57.466   0.183  30.964  0.00  0.00     0.305 C 
ATOM     13  O   UNL d   1      56.873   0.682  30.677  0.00  0.00    -0.259 OA
BRANCH  12  14
ATOM     14  O   UNL d   1      57.313  -0.326  31.597  0.00  0.00    -0.271 OA
BRANCH  14  15
ATOM     15  C   UNL d   1      56.594  -0.279  32.004  0.00  0.00     0.126 C 
ATOM     16  C   UNL d   1      56.428  -0.818  32.606  0.00  0.00     0.029 C 
ENDBRANCH  14  15
ENDBRANCH  12  14
ENDBRANCH   1  12
TORSDOF 3
ENDMDL
MODEL 7
REMARK VINA RESULT:      -2.9      2.711      4.233
REMARK  3 active torsions:
REMARK  status: ('A' for Active; 'I' for Inactive)
REMARK    1  A    between atoms: C_6  and  C_1 
REMARK    2  A    between atoms: O_10  and  C_6 
REMARK    3  A    between atoms: C_13  and  O_10 
ROOT
ATOM      1  C   UNL d   1      59.034  -0.876  29.348  0.00  0.00     0.121 A 
ATOM      2  C   UNL d   1      58.862  -1.678  29.257  0.00  0.00     0.204 A 
ATOM      3  C   UNL d   1      59.811  -0.608  29.265  0.00  0.00     0.107 A 
ATOM      4  C   UNL d   1      59.467  -2.211  29.084  0.00  0.00     0.057 A 
ATOM      5  N   UNL d   1      60.419  -1.148  29.091  0.00  0.00    -0.244 NA
ATOM      6  C   UNL d   1      60.247  -1.950  29.000  0.00  0.00     0.085 A 
ATOM      7  O   UNL d   1      58.083  -1.942  29.341  0.00  0.00    -0.286 OA
ATOM      8  C   UNL d   1      59.291  -3.014  28.994  0.00  0.00     0.005 A 
ATOM      9  C   UNL d   1      60.846  -2.477  28.829  0.00  0.00     0.019 A 
ATOM     10  C   UNL d   1      59.899  -3.541  28.822  0.00  0.00     0.000 A 
ATOM     11  C   UNL d   1      60.676  -3.273  28.739  0.00  0.00     0.002 A 
ENDROOT
BRANCH   1  12
ATOM     12  C   UNL d   1      58.434  -0.336  29.521  0.00  0.00     0.305 C 
ATOM     13  O   UNL d   1      57.995  -0.006  28.904  0.00  0.00    -0.259 OA
BRANCH  12  14
ATOM     14  O   UNL d   1      58.276  -0.127  30.305  0.00  0.00    -0.271 OA
BRANCH  14  15
ATOM     15  C   UNL d   1      57.806   0.532  30.471  0.00  0.00     0.126 C 
ATOM     16  C   UNL d   1      57.570   0.682  31.248  0.00  0.00     0.029 C 
ENDBRANCH  14  15
ENDBRANCH  12  14
ENDBRANCH   1  12
TORSDOF 3
ENDMDL
