MODEL 1
REMARK VINA RESULT:      13.8      0.000      0.000
REMARK  2 active torsions:
REMARK  status: ('A' for Active; 'I' for Inactive)
REMARK    1  A    between atoms: S_8  and  C_4 
REMARK    2  A    between atoms: C_12  and  S_8 
ROOT
ATOM      1  C   UNL d   1     -54.734-101.483 -36.868  0.00  0.00     0.141 A 
ATOM      2  O   UNL d   1     -54.716-100.775 -37.291  0.00  0.00    -0.303 OA
ATOM      3  C   UNL d   1     -54.754-101.301 -36.061  0.00  0.00     0.110 A 
ATOM      4  C   UNL d   1     -54.734-102.265 -37.114  0.00  0.00     0.137 A 
ATOM      5  C   UNL d   1     -54.749-100.482 -35.987  0.00  0.00     0.043 A 
ATOM      6  C   UNL d   1     -54.726-100.152 -36.743  0.00  0.00     0.102 A 
ATOM      7  N   UNL d   1     -54.755-102.877 -36.553  0.00  0.00    -0.215 NA
ATOM      8  N   UNL d   1     -54.775-101.911 -35.509  0.00  0.00    -0.222 NA
ATOM      9  C   UNL d   1     -54.775-102.694 -35.755  0.00  0.00     0.200 A 
ATOM     10  C   UNL d   1     -54.763 -99.991 -35.319  0.00  0.00     0.004 A 
ATOM     11  C   UNL d   1     -54.716 -99.330 -36.840  0.00  0.00     0.025 A 
ATOM     12  C   UNL d   1     -54.753 -99.169 -35.416  0.00  0.00     0.000 A 
ATOM     13  C   UNL d   1     -54.730 -98.844 -36.172  0.00  0.00     0.002 A 
ENDROOT
BRANCH   4  14
ATOM     14  S   UNL d   1     -54.714-102.456 -37.922  0.00  0.00    -0.066 SA
BRANCH  14  15
ATOM     15  C   UNL d   1     -55.415-102.647 -38.314  0.00  0.00     0.031 C 
ATOM     16  C   UNL d   1     -55.445-102.636 -39.137  0.00  0.00     0.007 C 
ATOM     17  C   UNL d   1     -56.083-102.848 -37.880  0.00  0.00     0.007 C 
ENDBRANCH  14  15
ENDBRANCH   4  14
TORSDOF 2
ENDMDL
