MODEL 1
REMARK VINA RESULT:      71.8      0.000      0.000
REMARK  2 active torsions:
REMARK  status: ('A' for Active; 'I' for Inactive)
REMARK    1  A    between atoms: C_6  and  C_1 
REMARK       I    between atoms: N_11  and  C_6 
REMARK    2  A    between atoms: C_13  and  N_11 
ROOT
ATOM      1  C   UNL d   1     -50.073  27.917  33.684  0.00  0.00     0.108 A 
ATOM      2  C   UNL d   1     -50.713  26.766  33.597  0.00  0.00     0.044 A 
ATOM      3  C   UNL d   1     -49.907  26.602  33.552  0.00  0.00     0.112 A 
ATOM      4  S   UNL d   1     -49.511  27.321  33.606  0.00  0.00    -0.061 SA
ATOM      5  C   UNL d   1     -50.811  27.555  33.677  0.00  0.00     0.116 A 
ATOM      6  N   UNL d   1     -49.636  25.820  33.466  0.00  0.00    -0.239 NA
ATOM      7  C   UNL d   1     -51.002  25.381  33.474  0.00  0.00     0.057 A 
ATOM      8  C   UNL d   1     -51.266  26.152  33.558  0.00  0.00     0.008 A 
ATOM      9  C   UNL d   1     -50.196  25.217  33.429  0.00  0.00     0.085 A 
ATOM     10  C   UNL d   1     -51.550  24.766  33.435  0.00  0.00     0.197 A 
ATOM     11  N   UNL d   1     -51.715  27.895  33.743  0.00  0.00    -0.147 N 
ATOM     12  O   UNL d   1     -52.533  24.983  33.492  0.00  0.00    -0.286 OA
ATOM     13  C   UNL d   1     -49.939  24.438  33.344  0.00  0.00     0.019 A 
ATOM     14  C   UNL d   1     -51.291  23.997  33.351  0.00  0.00     0.042 A 
ATOM     15  C   UNL d   1     -50.485  23.832  33.306  0.00  0.00     0.005 A 
ENDROOT
BRANCH   1  16
ATOM     16  C   UNL d   1     -49.935  28.883  33.772  0.00  0.00     0.287 C 
ATOM     17  N   UNL d   1     -49.381  29.564  34.197  0.00  0.00    -0.205 NA
ATOM     18  O   UNL d   1     -50.511  29.208  33.306  0.00  0.00    -0.265 OA
BRANCH  17  19
ATOM     19  C   UNL d   1     -48.727  29.343  34.724  0.00  0.00     0.112 A 
ATOM     20  C   UNL d   1     -48.091  29.912  34.882  0.00  0.00     0.158 A 
ATOM     21  F   UNL d   1     -47.815  30.951  34.594  0.00  0.00    -0.203 F 
ATOM     22  C   UNL d   1     -47.422  29.683  35.422  0.00  0.00     0.031 A 
ATOM     23  C   UNL d   1     -47.408  28.887  35.790  0.00  0.00     0.002 A 
ATOM     24  C   UNL d   1     -48.056  28.320  35.623  0.00  0.00     0.002 A 
ATOM     25  C   UNL d   1     -48.722  28.534  35.092  0.00  0.00     0.021 A 
ENDBRANCH  17  19
ENDBRANCH   1  16
TORSDOF 2
ENDMDL
