MODEL 1
REMARK VINA RESULT:      -8.5      0.000      0.000
REMARK  2 active torsions:
REMARK  status: ('A' for Active; 'I' for Inactive)
REMARK    1  A    between atoms: C_6  and  C_3 
REMARK    2  A    between atoms: C_9  and  C_6 
ROOT
ATOM      1  C   UNL d   1      54.263  32.932  53.732  0.00  0.00     0.011 C 
ENDROOT
BRANCH   1   2
ATOM      2  C   UNL d   1      54.003  33.547  54.238  0.00  0.00     0.092 A 
ATOM      3  C   UNL d   1      54.319  33.791  54.928  0.00  0.00     0.288 A 
ATOM      4  N   UNL d   1      53.881  34.396  55.215  0.00  0.00    -0.163 NA
ATOM      5  O   UNL d   1      55.020  33.445  55.292  0.00  0.00    -0.265 OA
ATOM      6  C   UNL d   1      53.266  34.515  54.654  0.00  0.00     0.313 A 
ATOM      7  S   UNL d   1      53.375  33.974  54.069  0.00  0.00    -0.021 SA
ATOM      8  O   UNL d   1      52.660  35.100  54.718  0.00  0.00    -0.258 OA
ENDBRANCH   1   2
BRANCH   1   9
ATOM      9  C   UNL d   1      53.815  32.263  53.549  0.00  0.00     0.001 A 
ATOM     10  C   UNL d   1      53.160  32.275  53.047  0.00  0.00     0.001 A 
ATOM     11  C   UNL d   1      52.749  31.602  52.894  0.00  0.00     0.007 A 
ATOM     12  C   UNL d   1      52.979  30.865  53.246  0.00  0.00     0.035 A 
ATOM     13  C   UNL d   1      53.633  30.854  53.747  0.00  0.00     0.007 A 
ATOM     14 BR   UNL d   1      52.567  30.164  53.099  0.00  0.00    -0.049 Br
ATOM     15  C   UNL d   1      54.060  31.561  53.904  0.00  0.00     0.001 A 
ENDBRANCH   1   9
TORSDOF 2
ENDMDL
MODEL 2
REMARK VINA RESULT:      -8.5      2.626      3.556
REMARK  2 active torsions:
REMARK  status: ('A' for Active; 'I' for Inactive)
REMARK    1  A    between atoms: C_6  and  C_3 
REMARK    2  A    between atoms: C_9  and  C_6 
ROOT
ATOM      1  C   UNL d   1      53.673  32.086  53.118  0.00  0.00     0.011 C 
ENDROOT
BRANCH   1   2
ATOM      2  C   UNL d   1      53.330  31.329  53.218  0.00  0.00     0.092 A 
ATOM      3  C   UNL d   1      52.619  31.068  52.967  0.00  0.00     0.288 A 
ATOM      4  N   UNL d   1      52.529  30.305  53.190  0.00  0.00    -0.163 NA
ATOM      5  O   UNL d   1      52.052  31.546  52.527  0.00  0.00    -0.265 OA
ATOM      6  C   UNL d   1      53.235  30.104  53.599  0.00  0.00     0.313 A 
ATOM      7  S   UNL d   1      53.701  30.760  53.595  0.00  0.00    -0.021 SA
ATOM      8  O   UNL d   1      53.398  29.350  53.941  0.00  0.00    -0.258 OA
ENDBRANCH   1   2
BRANCH   1   9
ATOM      9  C   UNL d   1      53.987  32.535  53.737  0.00  0.00     0.001 A 
ATOM     10  C   UNL d   1      53.573  32.714  54.428  0.00  0.00     0.001 A 
ATOM     11  C   UNL d   1      53.913  33.154  55.007  0.00  0.00     0.007 A 
ATOM     12  C   UNL d   1      54.705  33.445  54.921  0.00  0.00     0.035 A 
ATOM     13  C   UNL d   1      55.118  33.266  54.230  0.00  0.00     0.007 A 
ATOM     14 BR   UNL d   1      55.070  33.899  55.507  0.00  0.00    -0.049 Br
ATOM     15  C   UNL d   1      54.758  32.805  53.627  0.00  0.00     0.001 A 
ENDBRANCH   1   9
TORSDOF 2
ENDMDL
MODEL 3
REMARK VINA RESULT:      -8.3      2.128      2.613
REMARK  2 active torsions:
REMARK  status: ('A' for Active; 'I' for Inactive)
REMARK    1  A    between atoms: C_6  and  C_3 
REMARK    2  A    between atoms: C_9  and  C_6 
ROOT
ATOM      1  C   UNL d   1      53.028  32.955  53.180  0.00  0.00     0.011 C 
ENDROOT
BRANCH   1   2
ATOM      2  C   UNL d   1      53.482  33.020  53.880  0.00  0.00     0.092 A 
ATOM      3  C   UNL d   1      53.809  32.438  54.318  0.00  0.00     0.288 A 
ATOM      4  N   UNL d   1      54.192  32.763  54.939  0.00  0.00    -0.163 NA
ATOM      5  O   UNL d   1      53.748  31.597  54.133  0.00  0.00    -0.265 OA
ATOM      6  C   UNL d   1      54.084  33.594  54.862  0.00  0.00     0.313 A 
ATOM      7  S   UNL d   1      53.642  33.710  54.199  0.00  0.00    -0.021 SA
ATOM      8  O   UNL d   1      54.391  34.174  55.393  0.00  0.00    -0.258 OA
ENDBRANCH   1   2
BRANCH   1   9
ATOM      9  C   UNL d   1      52.285  33.300  53.078  0.00  0.00     0.001 A 
ATOM     10  C   UNL d   1      51.600  33.028  53.447  0.00  0.00     0.001 A 
ATOM     11  C   UNL d   1      50.894  33.392  53.322  0.00  0.00     0.007 A 
ATOM     12  C   UNL d   1      50.839  34.063  52.808  0.00  0.00     0.035 A 
ATOM     13  C   UNL d   1      51.524  34.335  52.438  0.00  0.00     0.007 A 
ATOM     14 BR   UNL d   1      50.122  34.449  52.668  0.00  0.00    -0.049 Br
ATOM     15  C   UNL d   1      52.260  33.951  52.572  0.00  0.00     0.001 A 
ENDBRANCH   1   9
TORSDOF 2
ENDMDL
MODEL 4
REMARK VINA RESULT:      -8.0      2.363      3.035
REMARK  2 active torsions:
REMARK  status: ('A' for Active; 'I' for Inactive)
REMARK    1  A    between atoms: C_6  and  C_3 
REMARK    2  A    between atoms: C_9  and  C_6 
ROOT
ATOM      1  C   UNL d   1      53.355  32.048  53.910  0.00  0.00     0.011 C 
ENDROOT
BRANCH   1   2
ATOM      2  C   UNL d   1      52.779  32.285  53.351  0.00  0.00     0.092 A 
ATOM      3  C   UNL d   1      52.531  31.899  52.698  0.00  0.00     0.288 A 
ATOM      4  N   UNL d   1      51.972  32.339  52.332  0.00  0.00    -0.163 NA
ATOM      5  O   UNL d   1      52.830  31.131  52.443  0.00  0.00    -0.265 OA
ATOM      6  C   UNL d   1      51.885  33.030  52.803  0.00  0.00     0.313 A 
ATOM      7  S   UNL d   1      52.398  32.959  53.419  0.00  0.00    -0.021 SA
ATOM      8  O   UNL d   1      51.353  33.665  52.638  0.00  0.00    -0.258 OA
ENDBRANCH   1   2
BRANCH   1   9
ATOM      9  C   UNL d   1      53.935  32.550  54.216  0.00  0.00     0.001 A 
ATOM     10  C   UNL d   1      54.557  32.856  53.768  0.00  0.00     0.001 A 
ATOM     11  C   UNL d   1      55.102  33.342  54.101  0.00  0.00     0.007 A 
ATOM     12  C   UNL d   1      55.051  33.551  54.921  0.00  0.00     0.035 A 
ATOM     13  C   UNL d   1      54.430  33.245  55.369  0.00  0.00     0.007 A 
ATOM     14 BR   UNL d   1      55.604  34.049  55.281  0.00  0.00    -0.049 Br
ATOM     15  C   UNL d   1      53.861  32.737  55.015  0.00  0.00     0.001 A 
ENDBRANCH   1   9
TORSDOF 2
ENDMDL
