MODEL 1
REMARK VINA RESULT:      -9.9      0.000      0.000
REMARK  2 active torsions:
REMARK  status: ('A' for Active; 'I' for Inactive)
REMARK    1  A    between atoms: C_6  and  C_1 
REMARK       I    between atoms: N_10  and  C_6 
REMARK    2  A    between atoms: C_12  and  N_10 
ROOT
ATOM      1  C   UNL d   1      50.363  34.489  52.568  0.00  0.00     0.108 A 
ATOM      2  C   UNL d   1      49.171  34.858  52.123  0.00  0.00     0.044 A 
ATOM      3  C   UNL d   1      49.261  35.141  52.899  0.00  0.00     0.112 A 
ATOM      4  S   UNL d   1      50.005  34.906  53.165  0.00  0.00    -0.061 SA
ATOM      5  C   UNL d   1      49.861  34.452  51.918  0.00  0.00     0.116 A 
ATOM      6  N   UNL d   1      48.642  35.574  53.248  0.00  0.00    -0.239 NA
ATOM      7  C   UNL d   1      47.863  35.441  52.062  0.00  0.00     0.056 A 
ATOM      8  C   UNL d   1      47.953  35.724  52.838  0.00  0.00     0.081 A 
ATOM      9  C   UNL d   1      48.464  35.013  51.707  0.00  0.00     0.008 A 
ATOM     10  C   UNL d   1      47.174  35.589  51.647  0.00  0.00     0.193 A 
ATOM     11  C   UNL d   1      46.644  36.307  52.777  0.00  0.00     0.042 A 
ATOM     12  C   UNL d   1      47.352  36.149  53.188  0.00  0.00    -0.003 A 
ATOM     13  C   UNL d   1      46.555  36.024  52.001  0.00  0.00     0.019 A 
ATOM     14  O   UNL d   1      47.083  35.304  50.864  0.00  0.00    -0.287 OA
ATOM     15  N   UNL d   1      50.019  34.071  51.183  0.00  0.00    -0.147 N 
ATOM     16  C   UNL d   1      46.357  36.709  53.421  0.00  0.00     0.009 C 
ATOM     17  C   UNL d   1      45.918  36.684  52.872  0.00  0.00     0.009 C 
ENDROOT
BRANCH   1  18
ATOM     18  C   UNL d   1      51.118  34.160  52.622  0.00  0.00     0.287 C 
ATOM     19  N   UNL d   1      51.415  33.883  53.345  0.00  0.00    -0.208 NA
ATOM     20  O   UNL d   1      51.576  34.110  51.945  0.00  0.00    -0.265 OA
BRANCH  19  21
ATOM     21  C   UNL d   1      52.164  33.558  53.398  0.00  0.00     0.085 A 
ATOM     22  C   UNL d   1      52.289  32.749  53.293  0.00  0.00     0.018 A 
ATOM     23  C   UNL d   1      53.031  32.426  53.345  0.00  0.00     0.002 A 
ATOM     24  C   UNL d   1      51.646  32.241  53.129  0.00  0.00     0.002 C 
ATOM     25  C   UNL d   1      53.676  32.940  53.510  0.00  0.00     0.000 A 
ATOM     26  C   UNL d   1      53.549  33.742  53.613  0.00  0.00     0.002 A 
ATOM     27  C   UNL d   1      54.450  32.658  53.572  0.00  0.00     0.000 C 
ATOM     28  C   UNL d   1      52.800  34.048  53.558  0.00  0.00     0.018 A 
ATOM     29  C   UNL d   1      52.667  34.873  53.664  0.00  0.00     0.002 C 
ENDBRANCH  19  21
ENDBRANCH   1  18
TORSDOF 2
ENDMDL
MODEL 2
REMARK VINA RESULT:      -9.3      1.343      5.727
REMARK  2 active torsions:
REMARK  status: ('A' for Active; 'I' for Inactive)
REMARK    1  A    between atoms: C_6  and  C_1 
REMARK       I    between atoms: N_10  and  C_6 
REMARK    2  A    between atoms: C_12  and  N_10 
ROOT
ATOM      1  C   UNL d   1      50.841  33.959  53.118  0.00  0.00     0.108 A 
ATOM      2  C   UNL d   1      51.928  33.336  53.551  0.00  0.00     0.044 A 
ATOM      3  C   UNL d   1      52.026  34.153  53.673  0.00  0.00     0.112 A 
ATOM      4  S   UNL d   1      51.345  34.529  53.400  0.00  0.00    -0.061 SA
ATOM      5  C   UNL d   1      51.187  33.218  53.204  0.00  0.00     0.116 A 
ATOM      6  N   UNL d   1      52.730  34.429  54.018  0.00  0.00    -0.239 NA
ATOM      7  C   UNL d   1      53.223  33.096  54.115  0.00  0.00     0.056 A 
ATOM      8  C   UNL d   1      53.321  33.912  54.237  0.00  0.00     0.081 A 
ATOM      9  C   UNL d   1      52.535  32.810  53.776  0.00  0.00     0.008 A 
ATOM     10  C   UNL d   1      53.813  32.573  54.332  0.00  0.00     0.193 A 
ATOM     11  C   UNL d   1      54.618  33.672  54.801  0.00  0.00     0.042 A 
ATOM     12  C   UNL d   1      54.008  34.192  54.574  0.00  0.00    -0.003 A 
ATOM     13  C   UNL d   1      54.519  32.856  54.679  0.00  0.00     0.019 A 
ATOM     14  O   UNL d   1      53.714  31.750  54.209  0.00  0.00    -0.287 OA
ATOM     15  N   UNL d   1      50.850  32.478  52.982  0.00  0.00    -0.147 N 
ATOM     16  C   UNL d   1      55.062  34.299  55.062  0.00  0.00     0.009 C 
ATOM     17  C   UNL d   1      55.368  33.671  55.140  0.00  0.00     0.009 C 
ENDROOT
BRANCH   1  18
ATOM     18  C   UNL d   1      50.098  34.117  52.796  0.00  0.00     0.287 C 
ATOM     19  N   UNL d   1      49.928  34.849  52.446  0.00  0.00    -0.208 NA
ATOM     20  O   UNL d   1      49.522  33.535  52.827  0.00  0.00    -0.265 OA
BRANCH  19  21
ATOM     21  C   UNL d   1      49.191  35.005  52.128  0.00  0.00     0.085 A 
ATOM     22  C   UNL d   1      49.003  34.790  51.354  0.00  0.00     0.018 A 
ATOM     23  C   UNL d   1      48.272  34.944  51.038  0.00  0.00     0.002 A 
ATOM     24  C   UNL d   1      49.568  34.404  50.875  0.00  0.00     0.002 C 
ATOM     25  C   UNL d   1      47.705  35.333  51.523  0.00  0.00     0.000 A 
ATOM     26  C   UNL d   1      47.895  35.546  52.291  0.00  0.00     0.002 A 
ATOM     27  C   UNL d   1      46.948  35.512  51.246  0.00  0.00     0.000 C 
ATOM     28  C   UNL d   1      48.631  35.383  52.590  0.00  0.00     0.018 A 
ATOM     29  C   UNL d   1      48.827  35.602  53.379  0.00  0.00     0.002 C 
ENDBRANCH  19  21
ENDBRANCH   1  18
TORSDOF 2
ENDMDL
MODEL 3
REMARK VINA RESULT:      -9.0      1.340      5.837
REMARK  2 active torsions:
REMARK  status: ('A' for Active; 'I' for Inactive)
REMARK    1  A    between atoms: C_6  and  C_1 
REMARK       I    between atoms: N_10  and  C_6 
REMARK    2  A    between atoms: C_12  and  N_10 
ROOT
ATOM      1  C   UNL d   1      50.894  34.015  52.835  0.00  0.00     0.108 A 
ATOM      2  C   UNL d   1      52.055  33.427  53.086  0.00  0.00     0.044 A 
ATOM      3  C   UNL d   1      51.477  32.837  52.988  0.00  0.00     0.112 A 
ATOM      4  S   UNL d   1      50.760  33.214  52.833  0.00  0.00    -0.061 SA
ATOM      5  C   UNL d   1      51.689  34.161  52.990  0.00  0.00     0.116 A 
ATOM      6  N   UNL d   1      51.697  32.038  53.056  0.00  0.00    -0.239 NA
ATOM      7  C   UNL d   1      53.046  32.417  53.315  0.00  0.00     0.056 A 
ATOM      8  C   UNL d   1      52.468  31.828  53.217  0.00  0.00     0.081 A 
ATOM      9  C   UNL d   1      52.843  33.207  53.251  0.00  0.00     0.008 A 
ATOM     10  C   UNL d   1      53.821  32.211  53.477  0.00  0.00     0.193 A 
ATOM     11  C   UNL d   1      53.459  30.817  53.447  0.00  0.00     0.042 A 
ATOM     12  C   UNL d   1      52.674  31.042  53.283  0.00  0.00    -0.003 A 
ATOM     13  C   UNL d   1      54.037  31.407  53.545  0.00  0.00     0.019 A 
ATOM     14  O   UNL d   1      54.403  32.805  53.576  0.00  0.00    -0.287 OA
ATOM     15  N   UNL d   1      52.059  34.916  53.041  0.00  0.00    -0.147 N 
ATOM     16  C   UNL d   1      53.244  30.035  53.427  0.00  0.00     0.009 C 
ATOM     17  C   UNL d   1      53.925  30.148  53.561  0.00  0.00     0.009 C 
ENDROOT
BRANCH   1  18
ATOM     18  C   UNL d   1      50.310  34.582  52.701  0.00  0.00     0.287 C 
ATOM     19  N   UNL d   1      49.509  34.371  52.657  0.00  0.00    -0.208 NA
ATOM     20  O   UNL d   1      50.532  35.364  52.610  0.00  0.00    -0.265 OA
BRANCH  19  21
ATOM     21  C   UNL d   1      48.930  34.934  52.524  0.00  0.00     0.085 A 
ATOM     22  C   UNL d   1      48.653  35.417  53.132  0.00  0.00     0.018 A 
ATOM     23  C   UNL d   1      48.080  35.976  53.000  0.00  0.00     0.002 A 
ATOM     24  C   UNL d   1      48.962  35.342  53.904  0.00  0.00     0.002 C 
ATOM     25  C   UNL d   1      47.771  36.049  52.220  0.00  0.00     0.000 A 
ATOM     26  C   UNL d   1      48.048  35.568  51.619  0.00  0.00     0.002 A 
ATOM     27  C   UNL d   1      47.186  36.602  52.037  0.00  0.00     0.000 C 
ATOM     28  C   UNL d   1      48.622  35.015  51.769  0.00  0.00     0.018 A 
ATOM     29  C   UNL d   1      48.908  34.519  51.152  0.00  0.00     0.002 C 
ENDBRANCH  19  21
ENDBRANCH   1  18
TORSDOF 2
ENDMDL
MODEL 4
REMARK VINA RESULT:      -7.2      9.534     10.314
REMARK  2 active torsions:
REMARK  status: ('A' for Active; 'I' for Inactive)
REMARK    1  A    between atoms: C_6  and  C_1 
REMARK       I    between atoms: N_10  and  C_6 
REMARK    2  A    between atoms: C_12  and  N_10 
ROOT
ATOM      1  C   UNL d   1      44.970  27.340  57.088  0.00  0.00     0.108 A 
ATOM      2  C   UNL d   1      45.033  28.528  57.673  0.00  0.00     0.044 A 
ATOM      3  C   UNL d   1      44.754  28.631  56.897  0.00  0.00     0.112 A 
ATOM      4  S   UNL d   1      44.720  27.887  56.543  0.00  0.00    -0.061 SA
ATOM      5  C   UNL d   1      45.167  27.721  57.790  0.00  0.00     0.116 A 
ATOM      6  N   UNL d   1      44.573  29.398  56.630  0.00  0.00    -0.239 NA
ATOM      7  C   UNL d   1      44.943  29.941  57.894  0.00  0.00     0.056 A 
ATOM      8  C   UNL d   1      44.665  30.044  57.118  0.00  0.00     0.081 A 
ATOM      9  C   UNL d   1      45.126  29.192  58.170  0.00  0.00     0.008 A 
ATOM     10  C   UNL d   1      45.038  30.587  58.388  0.00  0.00     0.193 A 
ATOM     11  C   UNL d   1      44.576  31.459  57.339  0.00  0.00     0.042 A 
ATOM     12  C   UNL d   1      44.485  30.792  56.848  0.00  0.00    -0.003 A 
ATOM     13  C   UNL d   1      44.854  31.355  58.115  0.00  0.00     0.019 A 
ATOM     14  O   UNL d   1      45.318  30.482  59.170  0.00  0.00    -0.287 OA
ATOM     15  N   UNL d   1      45.451  27.357  58.495  0.00  0.00    -0.147 N 
ATOM     16  C   UNL d   1      44.314  31.940  56.740  0.00  0.00     0.009 C 
ATOM     17  C   UNL d   1      44.479  32.276  57.335  0.00  0.00     0.009 C 
ENDROOT
BRANCH   1  18
ATOM     18  C   UNL d   1      45.015  26.529  56.942  0.00  0.00     0.287 C 
ATOM     19  N   UNL d   1      44.330  26.068  56.871  0.00  0.00    -0.208 NA
ATOM     20  O   UNL d   1      45.752  26.182  56.869  0.00  0.00    -0.265 OA
BRANCH  19  21
ATOM     21  C   UNL d   1      44.375  25.264  56.726  0.00  0.00     0.085 A 
ATOM     22  C   UNL d   1      44.377  24.716  57.343  0.00  0.00     0.018 A 
ATOM     23  C   UNL d   1      44.422  23.919  57.200  0.00  0.00     0.002 A 
ATOM     24  C   UNL d   1      44.334  24.974  58.136  0.00  0.00     0.002 C 
ATOM     25  C   UNL d   1      44.466  23.662  56.400  0.00  0.00     0.000 A 
ATOM     26  C   UNL d   1      44.463  24.208  55.790  0.00  0.00     0.002 A 
ATOM     27  C   UNL d   1      44.513  22.861  56.204  0.00  0.00     0.000 C 
ATOM     28  C   UNL d   1      44.418  25.002  55.952  0.00  0.00     0.018 A 
ATOM     29  C   UNL d   1      44.415  25.565  55.326  0.00  0.00     0.002 C 
ENDBRANCH  19  21
ENDBRANCH   1  18
TORSDOF 2
ENDMDL
MODEL 5
REMARK VINA RESULT:      -7.1     10.008     10.775
REMARK  2 active torsions:
REMARK  status: ('A' for Active; 'I' for Inactive)
REMARK    1  A    between atoms: C_6  and  C_1 
REMARK       I    between atoms: N_10  and  C_6 
REMARK    2  A    between atoms: C_12  and  N_10 
ROOT
ATOM      1  C   UNL d   1      45.054  27.353  57.837  0.00  0.00     0.108 A 
ATOM      2  C   UNL d   1      45.049  28.612  58.250  0.00  0.00     0.044 A 
ATOM      3  C   UNL d   1      44.857  28.124  58.894  0.00  0.00     0.112 A 
ATOM      4  S   UNL d   1      44.863  27.344  58.626  0.00  0.00    -0.061 SA
ATOM      5  C   UNL d   1      45.172  28.129  57.591  0.00  0.00     0.116 A 
ATOM      6  N   UNL d   1      44.703  28.470  59.635  0.00  0.00    -0.239 NA
ATOM      7  C   UNL d   1      44.933  29.767  59.092  0.00  0.00     0.056 A 
ATOM      8  C   UNL d   1      44.740  29.278  59.735  0.00  0.00     0.081 A 
ATOM      9  C   UNL d   1      45.086  29.439  58.357  0.00  0.00     0.008 A 
ATOM     10  C   UNL d   1      44.971  30.578  59.187  0.00  0.00     0.193 A 
ATOM     11  C   UNL d   1      44.623  30.433  60.577  0.00  0.00     0.042 A 
ATOM     12  C   UNL d   1      44.588  29.608  60.465  0.00  0.00    -0.003 A 
ATOM     13  C   UNL d   1      44.816  30.922  59.933  0.00  0.00     0.019 A 
ATOM     14  O   UNL d   1      45.165  31.071  58.538  0.00  0.00    -0.287 OA
ATOM     15  N   UNL d   1      45.379  28.383  56.815  0.00  0.00    -0.147 N 
ATOM     16  C   UNL d   1      44.427  30.338  61.359  0.00  0.00     0.009 C 
ATOM     17  C   UNL d   1      44.525  31.006  61.161  0.00  0.00     0.009 C 
ENDROOT
BRANCH   1  18
ATOM     18  C   UNL d   1      45.117  26.677  57.368  0.00  0.00     0.287 C 
ATOM     19  N   UNL d   1      44.463  26.184  57.236  0.00  0.00    -0.208 NA
ATOM     20  O   UNL d   1      45.840  26.496  57.031  0.00  0.00    -0.265 OA
BRANCH  19  21
ATOM     21  C   UNL d   1      44.526  25.514  56.771  0.00  0.00     0.085 A 
ATOM     22  C   UNL d   1      44.454  25.552  55.950  0.00  0.00     0.018 A 
ATOM     23  C   UNL d   1      44.516  24.888  55.489  0.00  0.00     0.002 A 
ATOM     24  C   UNL d   1      44.314  26.284  55.573  0.00  0.00     0.002 C 
ATOM     25  C   UNL d   1      44.657  24.152  55.872  0.00  0.00     0.000 A 
ATOM     26  C   UNL d   1      44.728  24.118  56.687  0.00  0.00     0.002 A 
ATOM     27  C   UNL d   1      44.728  23.449  55.446  0.00  0.00     0.000 C 
ATOM     28  C   UNL d   1      44.663  24.792  57.133  0.00  0.00     0.018 A 
ATOM     29  C   UNL d   1      44.735  24.758  57.971  0.00  0.00     0.002 C 
ENDBRANCH  19  21
ENDBRANCH   1  18
TORSDOF 2
ENDMDL
