MODEL 1
REMARK VINA RESULT:      91.6      0.000      0.000
REMARK  5 active torsions:
REMARK  status: ('A' for Active; 'I' for Inactive)
REMARK    1  A    between atoms: C_9  and  C_2 
REMARK    2  A    between atoms: O_8  and  C_4 
REMARK    3  A    between atoms: C_14  and  O_8 
REMARK    4  A    between atoms: N_11  and  C_9 
REMARK    5  A    between atoms: O_20  and  C_18 
ROOT
ATOM      1  C   UNL d   1      60.668  47.957  50.337  0.00  0.00     0.108 A 
ATOM      2  C   UNL d   1      61.239  47.374  50.186  0.00  0.00     0.079 A 
ATOM      3  C   UNL d   1      60.787  48.507  50.951  0.00  0.00     0.064 A 
ATOM      4  C   UNL d   1      59.527  49.126  50.641  0.00  0.00     0.163 A 
ATOM      5  C   UNL d   1      60.222  49.083  51.099  0.00  0.00     0.222 A 
ATOM      6  O   UNL d   1      59.981  47.987  49.872  0.00  0.00    -0.303 OA
ATOM      7  C   UNL d   1      59.408  48.572  50.024  0.00  0.00     0.150 A 
ATOM      8  C   UNL d   1      61.482  48.460  51.404  0.00  0.00     0.009 A 
ATOM      9  C   UNL d   1      61.924  47.336  50.641  0.00  0.00     0.199 A 
ATOM     10  O   UNL d   1      60.337  49.630  51.706  0.00  0.00    -0.284 OA
ATOM     11  C   UNL d   1      62.045  47.879  51.250  0.00  0.00     0.042 A 
ATOM     12  O   UNL d   1      62.487  46.756  50.488  0.00  0.00    -0.286 OA
ENDROOT
BRANCH   4  13
ATOM     13  O   UNL d   1      58.963  49.703  50.792  0.00  0.00    -0.302 OA
BRANCH  13  14
ATOM     14  C   UNL d   1      58.162  49.532  50.703  0.00  0.00     0.102 A 
ATOM     15  C   UNL d   1      57.809  49.597  49.963  0.00  0.00     0.049 A 
ATOM     16  C   UNL d   1      57.008  49.426  49.874  0.00  0.00     0.096 A 
ATOM     17  C   UNL d   1      56.562  49.189  50.526  0.00  0.00     0.024 A 
ATOM     18  C   UNL d   1      56.926  49.124  51.274  0.00  0.00     0.004 A 
ATOM     19  C   UNL d   1      57.722  49.296  51.355  0.00  0.00     0.025 A 
BRANCH  16  20
ATOM     20  O   UNL d   1      56.655  49.491  49.134  0.00  0.00    -0.328 OA
ATOM     21  C   UNL d   1      56.223  48.860  48.828  0.00  0.00     0.181 C 
ENDBRANCH  16  20
ENDBRANCH  13  14
ENDBRANCH   4  13
BRANCH   2  22
ATOM     22  C   UNL d   1      61.119  46.836  49.583  0.00  0.00     0.086 C 
BRANCH  22  23
ATOM     23  N   UNL d   1      61.204  46.027  49.729  0.00  0.00    -0.299 N 
ATOM     24  C   UNL d   1      61.701  45.578  49.253  0.00  0.00     0.107 A 
ATOM     25  C   UNL d   1      61.784  44.767  49.402  0.00  0.00     0.142 A 
ATOM     26  O   UNL d   1      61.370  44.416  50.023  0.00  0.00    -0.300 OA
ATOM     27  C   UNL d   1      60.872  44.873  50.498  0.00  0.00     0.142 A 
ATOM     28  C   UNL d   1      60.789  45.679  50.351  0.00  0.00     0.107 A 
ENDBRANCH  22  23
ENDBRANCH   2  22
TORSDOF 5
ENDMDL
