MODEL 1
REMARK VINA RESULT:      38.0      0.000      0.000
REMARK  6 active torsions:
REMARK  status: ('A' for Active; 'I' for Inactive)
REMARK    1  A    between atoms: N_2  and  S_1 
REMARK    2  A    between atoms: C_7  and  S_1 
REMARK    3  A    between atoms: C_8  and  N_2 
REMARK    4  A    between atoms: N_3  and  C_9 
REMARK    5  A    between atoms: N_4  and  N_3 
REMARK    6  A    between atoms: C_10  and  N_4 
ROOT
ATOM      1  C   UNL d   1      13.207  12.456  -3.567  0.00  0.00     0.094 A 
ATOM      2  C   UNL d   1      13.269  13.805  -4.507  0.00  0.00     0.103 A 
ATOM      3  C   UNL d   1      12.860  13.163  -3.305  0.00  0.00     0.021 A 
ATOM      4  C   UNL d   1      13.583  12.431  -4.301  0.00  0.00     0.021 A 
ATOM      5  C   UNL d   1      13.619  13.107  -4.780  0.00  0.00     0.022 A 
ATOM      6  C   UNL d   1      12.892  13.831  -3.773  0.00  0.00     0.022 A 
ENDROOT
BRANCH   1   7
ATOM      7  N   UNL d   1      13.177  11.779  -3.098  0.00  0.00    -0.158 NA
BRANCH   7   8
ATOM      8  S   UNL d   1      13.527  11.787  -2.351  0.00  0.00     0.285 S 
ATOM      9  O   UNL d   1      14.270  11.796  -2.709  0.00  0.00    -0.198 OA
ATOM     10  O   UNL d   1      12.784  11.779  -1.993  0.00  0.00    -0.198 OA
BRANCH   8  11
ATOM     11  C   UNL d   1      13.893  11.796  -1.612  0.00  0.00     0.105 A 
ATOM     12  C   UNL d   1      14.722  11.815  -1.572  0.00  0.00     0.013 A 
ATOM     13  C   UNL d   1      15.097  11.823  -0.837  0.00  0.00     0.001 A 
ATOM     14  C   UNL d   1      14.650  11.813  -0.146  0.00  0.00     0.000 A 
ATOM     15  C   UNL d   1      13.820  11.794  -0.187  0.00  0.00     0.001 A 
ATOM     16  C   UNL d   1      13.446  11.785  -0.922  0.00  0.00     0.013 A 
ENDBRANCH   8  11
ENDBRANCH   7   8
ENDBRANCH   1   7
BRANCH   2  17
ATOM     17  N   UNL d   1      13.297  14.485  -4.975  0.00  0.00    -0.148 NA
BRANCH  17  18
ATOM     18  N   UNL d   1      13.793  15.110  -4.759  0.00  0.00    -0.148 NA
BRANCH  18  19
ATOM     19  C   UNL d   1      13.858  15.770  -5.253  0.00  0.00     0.103 A 
ATOM     20  C   UNL d   1      13.311  15.900  -5.848  0.00  0.00     0.021 A 
ATOM     21  C   UNL d   1      13.373  16.550  -6.337  0.00  0.00     0.002 A 
ATOM     22  C   UNL d   1      13.994  17.083  -6.231  0.00  0.00     0.000 A 
ATOM     23  C   UNL d   1      14.553  16.966  -5.637  0.00  0.00     0.002 A 
ATOM     24  C   UNL d   1      14.479  16.302  -5.147  0.00  0.00     0.021 A 
ENDBRANCH  18  19
ENDBRANCH  17  18
ENDBRANCH   2  17
TORSDOF 6
ENDMDL
