MODEL 1
REMARK VINA RESULT:      -3.8      0.000      0.000
REMARK  4 active torsions:
REMARK  status: ('A' for Active; 'I' for Inactive)
REMARK    1  A    between atoms: N_7  and  C_1 
REMARK    2  A    between atoms: N_8  and  C_4 
REMARK    3  A    between atoms: N_11  and  C_5 
REMARK    4  A    between atoms: C_13  and  N_8 
ROOT
ATOM      1  C   UNL d   1      59.930  -0.459  29.457  0.00  0.00     0.201 A 
ATOM      2  N   UNL d   1      58.508  -0.728  29.405  0.00  0.00    -0.038 NA
ATOM      3  N   UNL d   1      59.016   0.418  30.094  0.00  0.00    -0.036 NA
ATOM      4  C   UNL d   1      58.381  -0.036  29.857  0.00  0.00     0.753 A 
ATOM      5  C   UNL d   1      59.286  -0.927  29.212  0.00  0.00     0.206 A 
ATOM      6  C   UNL d   1      59.794   0.210  29.895  0.00  0.00     0.227 A 
ATOM      7  N   UNL d   1      60.430   0.681  30.143  0.00  0.00    -0.125 N 
ENDROOT
BRANCH   4   8
ATOM      8  N   UNL d   1      57.603   0.163  30.050  0.00  0.00    -0.059 NA
BRANCH   8   9
ATOM      9  C   UNL d   1      57.347   0.064  30.831  0.00  0.00     0.100 A 
ATOM     10  C   UNL d   1      57.059  -0.668  31.095  0.00  0.00     0.020 A 
ATOM     11  C   UNL d   1      56.805  -0.776  31.860  0.00  0.00     0.008 A 
ATOM     12  C   UNL d   1      56.829  -0.151  32.398  0.00  0.00     0.035 A 
ATOM     13  C   UNL d   1      57.112   0.583  32.153  0.00  0.00     0.008 A 
ATOM     14 BR   UNL d   1      56.571  -0.250  33.185  0.00  0.00    -0.049 Br
ATOM     15  C   UNL d   1      57.368   0.682  31.372  0.00  0.00     0.020 A 
ENDBRANCH   8   9
ENDBRANCH   4   8
BRANCH   5  16
ATOM     16  N   UNL d   1      59.433  -1.627  28.753  0.00  0.00    -0.222 NA
ATOM     17  C   UNL d   1      58.794  -2.124  28.556  0.00  0.00     0.121 C 
ENDBRANCH   5  16
BRANCH   1  18
ATOM     18  N   UNL d   1      60.719  -0.689  29.244  0.00  0.00    -0.107 N 
ATOM     19  O   UNL d   1      61.133  -1.184  29.748  0.00  0.00    -0.531 OA
ATOM     20  O   UNL d   1      61.045  -0.421  28.557  0.00  0.00    -0.531 OA
ENDBRANCH   1  18
TORSDOF 4
ENDMDL
MODEL 2
REMARK VINA RESULT:      -2.5      1.016      1.624
REMARK  4 active torsions:
REMARK  status: ('A' for Active; 'I' for Inactive)
REMARK    1  A    between atoms: N_7  and  C_1 
REMARK    2  A    between atoms: N_8  and  C_4 
REMARK    3  A    between atoms: N_11  and  C_5 
REMARK    4  A    between atoms: C_13  and  N_8 
ROOT
ATOM      1  C   UNL d   1      59.064  -1.287  29.389  0.00  0.00     0.201 A 
ATOM      2  N   UNL d   1      58.847   0.126  29.621  0.00  0.00    -0.038 NA
ATOM      3  N   UNL d   1      57.935  -0.852  30.127  0.00  0.00    -0.036 NA
ATOM      4  C   UNL d   1      58.153  -0.070  30.043  0.00  0.00     0.753 A 
ATOM      5  C   UNL d   1      59.292  -0.491  29.300  0.00  0.00     0.206 A 
ATOM      6  C   UNL d   1      58.388  -1.465  29.801  0.00  0.00     0.227 A 
ATOM      7  N   UNL d   1      58.154  -2.255  29.895  0.00  0.00    -0.125 N 
ENDROOT
BRANCH   4   8
ATOM      8  N   UNL d   1      57.707   0.547  30.363  0.00  0.00    -0.059 NA
BRANCH   8   9
ATOM      9  C   UNL d   1      57.536   0.536  31.173  0.00  0.00     0.100 A 
ATOM     10  C   UNL d   1      56.767   0.378  31.444  0.00  0.00     0.020 A 
ATOM     11  C   UNL d   1      56.588   0.365  32.237  0.00  0.00     0.008 A 
ATOM     12  C   UNL d   1      57.175   0.512  32.798  0.00  0.00     0.035 A 
ATOM     13  C   UNL d   1      57.944   0.671  32.548  0.00  0.00     0.008 A 
ATOM     14 BR   UNL d   1      57.002   0.502  33.614  0.00  0.00    -0.049 Br
ATOM     15  C   UNL d   1      58.115   0.682  31.738  0.00  0.00     0.020 A 
ENDBRANCH   8   9
ENDBRANCH   4   8
BRANCH   5  16
ATOM     16  N   UNL d   1      60.001  -0.310  28.867  0.00  0.00    -0.222 NA
ATOM     17  C   UNL d   1      60.135   0.475  28.618  0.00  0.00     0.121 C 
ENDBRANCH   5  16
BRANCH   1  18
ATOM     18  N   UNL d   1      59.542  -1.900  29.048  0.00  0.00    -0.107 N 
ATOM     19  O   UNL d   1      60.302  -2.011  29.334  0.00  0.00    -0.531 OA
ATOM     20  O   UNL d   1      59.246  -2.359  28.455  0.00  0.00    -0.531 OA
ENDBRANCH   1  18
TORSDOF 4
ENDMDL
MODEL 3
REMARK VINA RESULT:      -1.8      1.462      2.357
REMARK  4 active torsions:
REMARK  status: ('A' for Active; 'I' for Inactive)
REMARK    1  A    between atoms: N_7  and  C_1 
REMARK    2  A    between atoms: N_8  and  C_4 
REMARK    3  A    between atoms: N_11  and  C_5 
REMARK    4  A    between atoms: C_13  and  N_8 
ROOT
ATOM      1  C   UNL d   1      59.914  -2.742  29.097  0.00  0.00     0.201 A 
ATOM      2  N   UNL d   1      59.545  -1.346  29.000  0.00  0.00    -0.038 NA
ATOM      3  N   UNL d   1      58.557  -2.355  29.222  0.00  0.00    -0.036 NA
ATOM      4  C   UNL d   1      58.748  -1.568  29.119  0.00  0.00     0.753 A 
ATOM      5  C   UNL d   1      60.116  -1.941  28.991  0.00  0.00     0.206 A 
ATOM      6  C   UNL d   1      59.138  -2.946  29.212  0.00  0.00     0.227 A 
ATOM      7  N   UNL d   1      58.928  -3.742  29.318  0.00  0.00    -0.125 N 
ENDROOT
BRANCH   4   8
ATOM      8  N   UNL d   1      58.176  -0.973  29.128  0.00  0.00    -0.059 NA
BRANCH   8   9
ATOM      9  C   UNL d   1      58.027  -0.574  29.838  0.00  0.00     0.100 A 
ATOM     10  C   UNL d   1      58.394   0.153  30.003  0.00  0.00     0.020 A 
ATOM     11  C   UNL d   1      58.253   0.553  30.697  0.00  0.00     0.008 A 
ATOM     12  C   UNL d   1      57.736   0.242  31.260  0.00  0.00     0.035 A 
ATOM     13  C   UNL d   1      57.363  -0.478  31.112  0.00  0.00     0.008 A 
ATOM     14 BR   UNL d   1      57.585   0.644  31.975  0.00  0.00    -0.049 Br
ATOM     15  C   UNL d   1      57.512  -0.877  30.403  0.00  0.00     0.020 A 
ENDBRANCH   8   9
ENDBRANCH   4   8
BRANCH   5  16
ATOM     16  N   UNL d   1      60.931  -1.732  28.871  0.00  0.00    -0.222 NA
ATOM     17  C   UNL d   1      61.133  -0.930  28.766  0.00  0.00     0.121 C 
ENDBRANCH   5  16
BRANCH   1  18
ATOM     18  N   UNL d   1      60.524  -3.333  29.083  0.00  0.00    -0.107 N 
ATOM     19  O   UNL d   1      61.043  -3.376  29.716  0.00  0.00    -0.531 OA
ATOM     20  O   UNL d   1      60.584  -3.835  28.455  0.00  0.00    -0.531 OA
ENDBRANCH   1  18
TORSDOF 4
ENDMDL
MODEL 4
REMARK VINA RESULT:      -0.8      1.518      2.064
REMARK  4 active torsions:
REMARK  status: ('A' for Active; 'I' for Inactive)
REMARK    1  A    between atoms: N_7  and  C_1 
REMARK    2  A    between atoms: N_8  and  C_4 
REMARK    3  A    between atoms: N_11  and  C_5 
REMARK    4  A    between atoms: C_13  and  N_8 
ROOT
ATOM      1  C   UNL d   1      58.448  -0.387  30.588  0.00  0.00     0.201 A 
ATOM      2  N   UNL d   1      57.417  -1.387  30.767  0.00  0.00    -0.038 NA
ATOM      3  N   UNL d   1      57.604  -0.343  31.725  0.00  0.00    -0.036 NA
ATOM      4  C   UNL d   1      57.201  -1.009  31.480  0.00  0.00     0.753 A 
ATOM      5  C   UNL d   1      58.041  -1.066  30.331  0.00  0.00     0.206 A 
ATOM      6  C   UNL d   1      58.229  -0.028  31.282  0.00  0.00     0.227 A 
ATOM      7  N   UNL d   1      58.630   0.650  31.543  0.00  0.00    -0.125 N 
ENDROOT
BRANCH   4   8
ATOM      8  N   UNL d   1      56.577  -1.330  31.915  0.00  0.00    -0.059 NA
BRANCH   8   9
ATOM      9  C   UNL d   1      56.231  -0.874  32.513  0.00  0.00     0.100 A 
ATOM     10  C   UNL d   1      55.674  -0.285  32.332  0.00  0.00     0.020 A 
ATOM     11  C   UNL d   1      55.328   0.168  32.913  0.00  0.00     0.008 A 
ATOM     12  C   UNL d   1      55.527   0.052  33.705  0.00  0.00     0.035 A 
ATOM     13  C   UNL d   1      56.079  -0.528  33.903  0.00  0.00     0.008 A 
ATOM     14 BR   UNL d   1      55.179   0.511  34.308  0.00  0.00    -0.049 Br
ATOM     15  C   UNL d   1      56.424  -0.984  33.305  0.00  0.00     0.020 A 
ENDBRANCH   8   9
ENDBRANCH   4   8
BRANCH   5  16
ATOM     16  N   UNL d   1      58.274  -1.439  29.604  0.00  0.00    -0.222 NA
ATOM     17  C   UNL d   1      58.009  -2.213  29.441  0.00  0.00     0.121 C 
ENDBRANCH   5  16
BRANCH   1  18
ATOM     18  N   UNL d   1      59.086  -0.079  30.119  0.00  0.00    -0.107 N 
ATOM     19  O   UNL d   1      59.854  -0.283  30.319  0.00  0.00    -0.531 OA
ATOM     20  O   UNL d   1      58.929   0.402  29.491  0.00  0.00    -0.531 OA
ENDBRANCH   1  18
TORSDOF 4
ENDMDL
