MODEL 1
REMARK VINA RESULT:      23.0      0.000      0.000
REMARK  2 active torsions:
REMARK  status: ('A' for Active; 'I' for Inactive)
REMARK    1  A    between atoms: C_6  and  C_1 
REMARK    2  A    between atoms: C_7  and  C_3 
ROOT
ATOM      1  C   UNL d   1      46.130 -17.991  43.020  0.00  0.00     0.081 A 
ATOM      2  N   UNL d   1      46.255 -17.709  42.260  0.00  0.00    -0.246 NA
ATOM      3  C   UNL d   1      46.181 -18.810  42.999  0.00  0.00     0.019 A 
ATOM      4  C   UNL d   1      46.337 -19.035  42.227  0.00  0.00     0.019 A 
ATOM      5  C   UNL d   1      46.384 -18.360  41.765  0.00  0.00     0.081 A 
ATOM      6  C   UNL d   1      46.443 -19.785  41.890  0.00  0.00     0.002 A 
ATOM      7  C   UNL d   1      46.538 -18.423  40.957  0.00  0.00     0.019 A 
ATOM      8  C   UNL d   1      46.597 -19.840  41.077  0.00  0.00     0.000 A 
ATOM      9  C   UNL d   1      46.644 -19.159  40.611  0.00  0.00     0.002 A 
ENDROOT
BRANCH   1  10
ATOM     10  C   UNL d   1      45.997 -17.363  43.546  0.00  0.00     0.018 A 
ATOM     11  C   UNL d   1      45.454 -16.783  43.351  0.00  0.00     0.002 A 
ATOM     12  C   UNL d   1      45.323 -16.162  43.873  0.00  0.00     0.000 A 
ATOM     13  C   UNL d   1      45.730 -16.120  44.584  0.00  0.00     0.000 A 
ATOM     14  C   UNL d   1      46.277 -16.711  44.772  0.00  0.00     0.000 A 
ATOM     15  C   UNL d   1      46.408 -17.329  44.256  0.00  0.00     0.002 A 
ENDBRANCH   1  10
BRANCH   3  16
ATOM     16  C   UNL d   1      46.090 -19.315  43.652  0.00  0.00     0.002 A 
ATOM     17  C   UNL d   1      46.647 -19.316  44.260  0.00  0.00     0.000 A 
ATOM     18  C   UNL d   1      46.553 -19.816  44.903  0.00  0.00     0.000 A 
ATOM     19  C   UNL d   1      45.898 -20.326  44.952  0.00  0.00     0.000 A 
ATOM     20  C   UNL d   1      45.334 -20.325  44.339  0.00  0.00     0.000 A 
ATOM     21  C   UNL d   1      45.431 -19.819  43.690  0.00  0.00     0.000 A 
ENDBRANCH   3  16
TORSDOF 2
ENDMDL
