MODEL 1
REMARK VINA RESULT:      44.8      0.000      0.000
REMARK  4 active torsions:
REMARK  status: ('A' for Active; 'I' for Inactive)
REMARK    1  A    between atoms: C_10  and  C_3 
REMARK    2  A    between atoms: C_12  and  C_5 
REMARK    3  A    between atoms: C_15  and  C_12 
REMARK    4  A    between atoms: C_18  and  C_15 
ROOT
ATOM      1  C   UNL d   1      59.043  49.689  50.249  0.00  0.00     0.152 A 
ATOM      2  N   UNL d   1      58.900  49.692  51.073  0.00  0.00    -0.258 N 
ATOM      3  C   UNL d   1      59.816  49.691  49.966  0.00  0.00     0.056 A 
ATOM      4  C   UNL d   1      59.533  49.698  51.600  0.00  0.00     0.266 A 
ATOM      5  C   UNL d   1      60.315  49.700  51.318  0.00  0.00     0.057 A 
ATOM      6  N   UNL d   1      58.401  49.683  49.721  0.00  0.00    -0.227 NA
ATOM      7  C   UNL d   1      60.458  49.696  50.495  0.00  0.00     0.009 A 
ATOM      8  C   UNL d   1      57.481  49.684  50.827  0.00  0.00     0.086 A 
ATOM      9  C   UNL d   1      57.610  49.681  50.001  0.00  0.00     0.099 A 
ATOM     10  O   UNL d   1      59.387  49.701  52.438  0.00  0.00    -0.267 OA
ATOM     11  C   UNL d   1      61.228  49.698  50.206  0.00  0.00     0.000 C 
ATOM     12  C   UNL d   1      56.698  49.682  51.108  0.00  0.00     0.019 A 
ATOM     13  C   UNL d   1      56.980  49.675  49.483  0.00  0.00     0.021 A 
ATOM     14  C   UNL d   1      56.073  49.677  50.568  0.00  0.00     0.002 A 
ATOM     15  C   UNL d   1      56.212  49.673  49.768  0.00  0.00     0.002 A 
ENDROOT
BRANCH   5  16
ATOM     16  C   UNL d   1      60.953  49.705  51.842  0.00  0.00     0.005 C 
BRANCH  16  17
ATOM     17  C   UNL d   1      60.935  49.245  52.521  0.00  0.00     0.000 C 
BRANCH  17  18
ATOM     18  C   UNL d   1      61.574  49.254  53.034  0.00  0.00     0.000 C 
ATOM     19  C   UNL d   1      62.310  49.518  52.761  0.00  0.00     0.000 C 
ATOM     20  C   UNL d   1      61.487  49.002  53.816  0.00  0.00     0.000 C 
ENDBRANCH  17  18
ENDBRANCH  16  17
ENDBRANCH   5  16
BRANCH   3  21
ATOM     21  C   UNL d   1      59.953  49.687  49.156  0.00  0.00     0.125 C 
ATOM     22  N   UNL d   1      60.719  49.680  48.865  0.00  0.00    -0.146 N 
ENDBRANCH   3  21
TORSDOF 4
ENDMDL
MODEL 2
REMARK VINA RESULT:      46.0      1.246      4.467
REMARK  4 active torsions:
REMARK  status: ('A' for Active; 'I' for Inactive)
REMARK    1  A    between atoms: C_10  and  C_3 
REMARK    2  A    between atoms: C_12  and  C_5 
REMARK    3  A    between atoms: C_15  and  C_12 
REMARK    4  A    between atoms: C_18  and  C_15 
ROOT
ATOM      1  C   UNL d   1      58.850  49.701  51.673  0.00  0.00     0.152 A 
ATOM      2  N   UNL d   1      58.832  49.701  50.837  0.00  0.00    -0.258 N 
ATOM      3  C   UNL d   1      58.146  49.700  52.099  0.00  0.00     0.056 A 
ATOM      4  C   UNL d   1      58.111  49.700  50.441  0.00  0.00     0.266 A 
ATOM      5  C   UNL d   1      57.397  49.700  50.868  0.00  0.00     0.057 A 
ATOM      6  N   UNL d   1      59.582  49.701  52.068  0.00  0.00    -0.227 NA
ATOM      7  C   UNL d   1      57.415  49.700  51.704  0.00  0.00     0.009 A 
ATOM      8  C   UNL d   1      60.273  49.702  50.806  0.00  0.00     0.086 A 
ATOM      9  C   UNL d   1      60.305  49.702  51.641  0.00  0.00     0.099 A 
ATOM     10  O   UNL d   1      58.092  49.700  49.591  0.00  0.00    -0.267 OA
ATOM     11  C   UNL d   1      56.715  49.699  52.135  0.00  0.00     0.000 C 
ATOM     12  C   UNL d   1      60.987  49.702  50.379  0.00  0.00     0.019 A 
ATOM     13  C   UNL d   1      61.022  49.702  52.028  0.00  0.00     0.021 A 
ATOM     14  C   UNL d   1      61.704  49.703  50.789  0.00  0.00     0.002 A 
ATOM     15  C   UNL d   1      61.721  49.703  51.601  0.00  0.00     0.002 A 
ENDROOT
BRANCH   5  16
ATOM     16  C   UNL d   1      56.670  49.700  50.477  0.00  0.00     0.005 C 
BRANCH  16  17
ATOM     17  C   UNL d   1      56.398  49.018  50.110  0.00  0.00     0.000 C 
BRANCH  17  18
ATOM     18  C   UNL d   1      56.330  48.997  49.293  0.00  0.00     0.000 C 
ATOM     19  C   UNL d   1      56.234  48.267  48.914  0.00  0.00     0.000 C 
ATOM     20  C   UNL d   1      56.356  49.695  48.852  0.00  0.00     0.000 C 
ENDBRANCH  17  18
ENDBRANCH  16  17
ENDBRANCH   5  16
BRANCH   3  21
ATOM     21  C   UNL d   1      58.168  49.700  52.921  0.00  0.00     0.125 C 
ATOM     22  N   UNL d   1      57.493  49.531  53.353  0.00  0.00    -0.146 N 
ENDBRANCH   3  21
TORSDOF 4
ENDMDL
