MODEL 1
REMARK VINA RESULT:      13.5      0.000      0.000
REMARK  9 active torsions:
REMARK  status: ('A' for Active; 'I' for Inactive)
REMARK    1  A    between atoms: C_5  and  C_1 
REMARK    2  A    between atoms: N_4  and  C_2 
REMARK       I    between atoms: C_3  and  N_4 
REMARK    3  A    between atoms: C_10  and  C_3 
REMARK    4  A    between atoms: N_6  and  C_5 
REMARK    5  A    between atoms: C_12  and  C_5 
REMARK    6  A    between atoms: C_14  and  N_6 
REMARK    7  A    between atoms: C_8  and  C_14 
REMARK    8  A    between atoms: O_17  and  C_8 
REMARK    9  A    between atoms: C_23  and  O_17 
ROOT
ATOM      1  C   UNL d   1      58.426  -0.209  31.199  0.00  0.00     0.036 A 
ATOM      2  C   UNL d   1      58.669   0.252  30.576  0.00  0.00     0.086 A 
ATOM      3  C   UNL d   1      58.891  -0.257  31.871  0.00  0.00     0.010 A 
ATOM      4  C   UNL d   1      59.377   0.675  30.609  0.00  0.00     0.020 A 
ATOM      5  C   UNL d   1      59.602   0.159  31.921  0.00  0.00     0.035 A 
ATOM      6  C   UNL d   1      59.842   0.636  31.264  0.00  0.00     0.008 A 
ATOM      7 BR   UNL d   1      60.077   0.109  32.611  0.00  0.00    -0.049 Br
ENDROOT
BRANCH   1   8
ATOM      8  C   UNL d   1      57.718  -0.631  31.166  0.00  0.00     0.083 C 
BRANCH   8   9
ATOM      9  N   UNL d   1      57.628  -1.270  30.669  0.00  0.00    -0.238 NA
BRANCH   9  10
ATOM     10  C   UNL d   1      58.312  -1.678  30.431  0.00  0.00     0.167 C 
BRANCH  10  11
ATOM     11  C   UNL d   1      58.213  -2.391  29.995  0.00  0.00     0.320 C 
ATOM     12  O   UNL d   1      57.531  -2.471  29.500  0.00  0.00    -0.257 OA
BRANCH  11  13
ATOM     13  O   UNL d   1      58.762  -3.005  30.044  0.00  0.00    -0.270 OA
BRANCH  13  14
ATOM     14  C   UNL d   1      58.815  -3.543  29.456  0.00  0.00     0.126 C 
ATOM     15  C   UNL d   1      59.505  -3.946  29.362  0.00  0.00     0.029 C 
ENDBRANCH  13  14
ENDBRANCH  11  13
ENDBRANCH  10  11
ENDBRANCH   9  10
ENDBRANCH   8   9
BRANCH   8  16
ATOM     16  C   UNL d   1      57.090  -0.406  31.644  0.00  0.00     0.018 A 
ATOM     17  C   UNL d   1      56.990   0.382  31.868  0.00  0.00     0.002 A 
ATOM     18  C   UNL d   1      56.372   0.625  32.342  0.00  0.00     0.000 A 
ATOM     19  C   UNL d   1      55.815   0.032  32.609  0.00  0.00     0.000 A 
ATOM     20  C   UNL d   1      55.908  -0.758  32.388  0.00  0.00     0.000 A 
ATOM     21  C   UNL d   1      56.543  -0.977  31.908  0.00  0.00     0.002 A 
ENDBRANCH   8  16
ENDBRANCH   1   8
BRANCH   2  22
ATOM     22  N   UNL d   1      58.184   0.298  29.884  0.00  0.00    -0.208 NA
ATOM     23  C   UNL d   1      58.533   0.256  29.134  0.00  0.00     0.279 C 
ATOM     24  O   UNL d   1      58.071   0.299  28.476  0.00  0.00    -0.265 OA
BRANCH  23  25
ATOM     25  C   UNL d   1      59.342   0.171  29.047  0.00  0.00     0.058 A 
ATOM     26  C   UNL d   1      59.863   0.679  29.427  0.00  0.00     0.005 A 
ATOM     27  C   UNL d   1      60.676   0.578  29.328  0.00  0.00     0.000 A 
ATOM     28  C   UNL d   1      60.958  -0.024  28.853  0.00  0.00     0.000 A 
ATOM     29  C   UNL d   1      60.442  -0.523  28.479  0.00  0.00     0.000 A 
ATOM     30  C   UNL d   1      59.629  -0.423  28.579  0.00  0.00     0.005 A 
ENDBRANCH  23  25
ENDBRANCH   2  22
TORSDOF 9
ENDMDL
MODEL 2
REMARK VINA RESULT:      13.8      1.640      3.089
REMARK  9 active torsions:
REMARK  status: ('A' for Active; 'I' for Inactive)
REMARK    1  A    between atoms: C_5  and  C_1 
REMARK    2  A    between atoms: N_4  and  C_2 
REMARK       I    between atoms: C_3  and  N_4 
REMARK    3  A    between atoms: C_10  and  C_3 
REMARK    4  A    between atoms: N_6  and  C_5 
REMARK    5  A    between atoms: C_12  and  C_5 
REMARK    6  A    between atoms: C_14  and  N_6 
REMARK    7  A    between atoms: C_8  and  C_14 
REMARK    8  A    between atoms: O_17  and  C_8 
REMARK    9  A    between atoms: C_23  and  O_17 
ROOT
ATOM      1  C   UNL d   1      57.874  -0.236  30.436  0.00  0.00     0.036 A 
ATOM      2  C   UNL d   1      57.956  -1.018  30.232  0.00  0.00     0.086 A 
ATOM      3  C   UNL d   1      57.765   0.325  29.850  0.00  0.00     0.010 A 
ATOM      4  C   UNL d   1      57.932  -1.258  29.443  0.00  0.00     0.020 A 
ATOM      5  C   UNL d   1      57.738   0.103  29.055  0.00  0.00     0.035 A 
ATOM      6  C   UNL d   1      57.826  -0.716  28.858  0.00  0.00     0.008 A 
ATOM      7 BR   UNL d   1      57.627   0.680  28.456  0.00  0.00    -0.049 Br
ENDROOT
BRANCH   1   8
ATOM      8  C   UNL d   1      57.898   0.004  31.225  0.00  0.00     0.083 C 
BRANCH   8   9
ATOM      9  N   UNL d   1      58.570   0.329  31.549  0.00  0.00    -0.238 NA
BRANCH   9  10
ATOM     10  C   UNL d   1      59.200   0.512  31.038  0.00  0.00     0.167 C 
BRANCH  10  11
ATOM     11  C   UNL d   1      59.967   0.597  31.374  0.00  0.00     0.320 C 
ATOM     12  O   UNL d   1      60.637   0.596  30.856  0.00  0.00    -0.257 OA
BRANCH  11  13
ATOM     13  O   UNL d   1      60.074   0.682  32.187  0.00  0.00    -0.270 OA
BRANCH  13  14
ATOM     14  C   UNL d   1      60.810   0.673  32.498  0.00  0.00     0.126 C 
ATOM     15  C   UNL d   1      61.061   0.010  32.877  0.00  0.00     0.029 C 
ENDBRANCH  13  14
ENDBRANCH  11  13
ENDBRANCH  10  11
ENDBRANCH   9  10
ENDBRANCH   8   9
BRANCH   8  16
ATOM     16  C   UNL d   1      57.232  -0.087  31.697  0.00  0.00     0.018 A 
ATOM     17  C   UNL d   1      57.115  -0.774  32.138  0.00  0.00     0.002 A 
ATOM     18  C   UNL d   1      56.460  -0.883  32.611  0.00  0.00     0.000 A 
ATOM     19  C   UNL d   1      55.881  -0.253  32.643  0.00  0.00     0.000 A 
ATOM     20  C   UNL d   1      55.990   0.437  32.205  0.00  0.00     0.000 A 
ATOM     21  C   UNL d   1      56.663   0.522  31.733  0.00  0.00     0.002 A 
ENDBRANCH   8  16
ENDBRANCH   1   8
BRANCH   2  22
ATOM     22  N   UNL d   1      58.068  -1.592  30.842  0.00  0.00    -0.208 NA
ATOM     23  C   UNL d   1      58.488  -2.288  30.680  0.00  0.00     0.279 C 
ATOM     24  O   UNL d   1      58.594  -2.835  31.263  0.00  0.00    -0.265 OA
BRANCH  23  25
ATOM     25  C   UNL d   1      58.799  -2.432  29.938  0.00  0.00     0.058 A 
ATOM     26  C   UNL d   1      58.419  -2.935  29.412  0.00  0.00     0.005 A 
ATOM     27  C   UNL d   1      58.748  -3.069  28.667  0.00  0.00     0.000 A 
ATOM     28  C   UNL d   1      59.447  -2.702  28.457  0.00  0.00     0.000 A 
ATOM     29  C   UNL d   1      59.819  -2.207  28.978  0.00  0.00     0.000 A 
ATOM     30  C   UNL d   1      59.491  -2.072  29.723  0.00  0.00     0.005 A 
ENDBRANCH  23  25
ENDBRANCH   2  22
TORSDOF 9
ENDMDL
MODEL 3
REMARK VINA RESULT:      14.5      1.391      2.388
REMARK  9 active torsions:
REMARK  status: ('A' for Active; 'I' for Inactive)
REMARK    1  A    between atoms: C_5  and  C_1 
REMARK    2  A    between atoms: N_4  and  C_2 
REMARK       I    between atoms: C_3  and  N_4 
REMARK    3  A    between atoms: C_10  and  C_3 
REMARK    4  A    between atoms: N_6  and  C_5 
REMARK    5  A    between atoms: C_12  and  C_5 
REMARK    6  A    between atoms: C_14  and  N_6 
REMARK    7  A    between atoms: C_8  and  C_14 
REMARK    8  A    between atoms: O_17  and  C_8 
REMARK    9  A    between atoms: C_23  and  O_17 
ROOT
ATOM      1  C   UNL d   1      58.419   0.306  31.764  0.00  0.00     0.036 A 
ATOM      2  C   UNL d   1      58.415   0.486  30.972  0.00  0.00     0.086 A 
ATOM      3  C   UNL d   1      59.130   0.290  32.171  0.00  0.00     0.010 A 
ATOM      4  C   UNL d   1      59.116   0.654  30.569  0.00  0.00     0.020 A 
ATOM      5  C   UNL d   1      59.840   0.454  31.784  0.00  0.00     0.035 A 
ATOM      6  C   UNL d   1      59.820   0.641  30.958  0.00  0.00     0.008 A 
ATOM      7 BR   UNL d   1      60.567   0.437  32.203  0.00  0.00    -0.049 Br
ENDROOT
BRANCH   1   8
ATOM      8  C   UNL d   1      57.719   0.139  32.167  0.00  0.00     0.083 C 
BRANCH   8   9
ATOM      9  N   UNL d   1      57.083  -0.200  31.789  0.00  0.00    -0.238 NA
BRANCH   9  10
ATOM     10  C   UNL d   1      56.495  -0.555  32.258  0.00  0.00     0.167 C 
BRANCH  10  11
ATOM     11  C   UNL d   1      56.290  -1.355  32.093  0.00  0.00     0.320 C 
ATOM     12  O   UNL d   1      56.911  -1.904  31.921  0.00  0.00    -0.257 OA
BRANCH  11  13
ATOM     13  O   UNL d   1      55.505  -1.607  32.096  0.00  0.00    -0.270 OA
BRANCH  13  14
ATOM     14  C   UNL d   1      55.179  -1.896  32.766  0.00  0.00     0.126 C 
ATOM     15  C   UNL d   1      54.563  -1.500  33.098  0.00  0.00     0.029 C 
ENDBRANCH  13  14
ENDBRANCH  11  13
ENDBRANCH  10  11
ENDBRANCH   9  10
ENDBRANCH   8   9
BRANCH   8  16
ATOM     16  C   UNL d   1      57.660   0.316  32.967  0.00  0.00     0.018 A 
ATOM     17  C   UNL d   1      56.931   0.502  33.306  0.00  0.00     0.002 A 
ATOM     18  C   UNL d   1      56.852   0.681  34.098  0.00  0.00     0.000 A 
ATOM     19  C   UNL d   1      57.558   0.672  34.583  0.00  0.00     0.000 A 
ATOM     20  C   UNL d   1      58.290   0.487  34.250  0.00  0.00     0.000 A 
ATOM     21  C   UNL d   1      58.342   0.310  33.445  0.00  0.00     0.002 A 
ENDBRANCH   8  16
ENDBRANCH   1   8
BRANCH   2  22
ATOM     22  N   UNL d   1      57.678   0.501  30.558  0.00  0.00    -0.208 NA
ATOM     23  C   UNL d   1      57.641   0.234  29.775  0.00  0.00     0.279 C 
ATOM     24  O   UNL d   1      56.938   0.249  29.381  0.00  0.00    -0.265 OA
BRANCH  23  25
ATOM     25  C   UNL d   1      58.307  -0.047  29.391  0.00  0.00     0.058 A 
ATOM     26  C   UNL d   1      58.536  -0.831  29.465  0.00  0.00     0.005 A 
ATOM     27  C   UNL d   1      59.211  -1.098  29.070  0.00  0.00     0.000 A 
ATOM     28  C   UNL d   1      59.644  -0.581  28.609  0.00  0.00     0.000 A 
ATOM     29  C   UNL d   1      59.415   0.192  28.538  0.00  0.00     0.000 A 
ATOM     30  C   UNL d   1      58.741   0.458  28.933  0.00  0.00     0.005 A 
ENDBRANCH  23  25
ENDBRANCH   2  22
TORSDOF 9
ENDMDL
MODEL 4
REMARK VINA RESULT:      14.9      1.686      3.549
REMARK  9 active torsions:
REMARK  status: ('A' for Active; 'I' for Inactive)
REMARK    1  A    between atoms: C_5  and  C_1 
REMARK    2  A    between atoms: N_4  and  C_2 
REMARK       I    between atoms: C_3  and  N_4 
REMARK    3  A    between atoms: C_10  and  C_3 
REMARK    4  A    between atoms: N_6  and  C_5 
REMARK    5  A    between atoms: C_12  and  C_5 
REMARK    6  A    between atoms: C_14  and  N_6 
REMARK    7  A    between atoms: C_8  and  C_14 
REMARK    8  A    between atoms: O_17  and  C_8 
REMARK    9  A    between atoms: C_23  and  O_17 
ROOT
ATOM      1  C   UNL d   1      58.609   0.063  30.087  0.00  0.00     0.036 A 
ATOM      2  C   UNL d   1      59.010  -0.548  29.733  0.00  0.00     0.086 A 
ATOM      3  C   UNL d   1      58.035   0.467  29.665  0.00  0.00     0.010 A 
ATOM      4  C   UNL d   1      58.849  -0.770  28.954  0.00  0.00     0.020 A 
ATOM      5  C   UNL d   1      57.861   0.259  28.885  0.00  0.00     0.035 A 
ATOM      6  C   UNL d   1      58.288  -0.380  28.530  0.00  0.00     0.008 A 
ATOM      7 BR   UNL d   1      57.273   0.675  28.455  0.00  0.00    -0.049 Br
ENDROOT
BRANCH   1   8
ATOM      8  C   UNL d   1      58.770   0.285  30.865  0.00  0.00     0.083 C 
BRANCH   8   9
ATOM      9  N   UNL d   1      58.174   0.377  31.411  0.00  0.00    -0.238 NA
BRANCH   9  10
ATOM     10  C   UNL d   1      57.632  -0.246  31.506  0.00  0.00     0.167 C 
BRANCH  10  11
ATOM     11  C   UNL d   1      57.152  -0.249  32.197  0.00  0.00     0.320 C 
ATOM     12  O   UNL d   1      57.208   0.407  32.730  0.00  0.00    -0.257 OA
BRANCH  11  13
ATOM     13  O   UNL d   1      56.636  -0.871  32.361  0.00  0.00    -0.270 OA
BRANCH  13  14
ATOM     14  C   UNL d   1      55.905  -0.722  32.646  0.00  0.00     0.126 C 
ATOM     15  C   UNL d   1      55.803  -0.678  33.442  0.00  0.00     0.029 C 
ENDBRANCH  13  14
ENDBRANCH  11  13
ENDBRANCH  10  11
ENDBRANCH   9  10
ENDBRANCH   8   9
BRANCH   8  16
ATOM     16  C   UNL d   1      59.547   0.416  31.096  0.00  0.00     0.018 A 
ATOM     17  C   UNL d   1      60.148   0.494  30.537  0.00  0.00     0.002 A 
ATOM     18  C   UNL d   1      60.925   0.624  30.747  0.00  0.00     0.000 A 
ATOM     19  C   UNL d   1      61.110   0.679  31.582  0.00  0.00     0.000 A 
ATOM     20  C   UNL d   1      60.514   0.602  32.147  0.00  0.00     0.000 A 
ATOM     21  C   UNL d   1      59.735   0.471  31.907  0.00  0.00     0.002 A 
ENDBRANCH   8  16
ENDBRANCH   1   8
BRANCH   2  22
ATOM     22  N   UNL d   1      59.602  -0.961  30.173  0.00  0.00    -0.208 NA
ATOM     23  C   UNL d   1      59.704  -1.776  30.062  0.00  0.00     0.279 C 
ATOM     24  O   UNL d   1      60.268  -2.169  30.482  0.00  0.00    -0.265 OA
BRANCH  23  25
ATOM     25  C   UNL d   1      59.241  -2.192  29.530  0.00  0.00     0.058 A 
ATOM     26  C   UNL d   1      58.431  -2.071  29.491  0.00  0.00     0.005 A 
ATOM     27  C   UNL d   1      57.980  -2.500  28.949  0.00  0.00     0.000 A 
ATOM     28  C   UNL d   1      58.342  -3.042  28.456  0.00  0.00     0.000 A 
ATOM     29  C   UNL d   1      59.141  -3.159  28.497  0.00  0.00     0.000 A 
ATOM     30  C   UNL d   1      59.592  -2.730  29.039  0.00  0.00     0.005 A 
ENDBRANCH  23  25
ENDBRANCH   2  22
TORSDOF 9
ENDMDL
MODEL 5
REMARK VINA RESULT:      15.1      2.330      3.681
REMARK  9 active torsions:
REMARK  status: ('A' for Active; 'I' for Inactive)
REMARK    1  A    between atoms: C_5  and  C_1 
REMARK    2  A    between atoms: N_4  and  C_2 
REMARK       I    between atoms: C_3  and  N_4 
REMARK    3  A    between atoms: C_10  and  C_3 
REMARK    4  A    between atoms: N_6  and  C_5 
REMARK    5  A    between atoms: C_12  and  C_5 
REMARK    6  A    between atoms: C_14  and  N_6 
REMARK    7  A    between atoms: C_8  and  C_14 
REMARK    8  A    between atoms: O_17  and  C_8 
REMARK    9  A    between atoms: C_23  and  O_17 
ROOT
ATOM      1  C   UNL d   1      57.392   0.263  32.850  0.00  0.00     0.036 A 
ATOM      2  C   UNL d   1      57.531   0.466  32.076  0.00  0.00     0.086 A 
ATOM      3  C   UNL d   1      58.013   0.257  33.384  0.00  0.00     0.010 A 
ATOM      4  C   UNL d   1      58.288   0.666  31.817  0.00  0.00     0.020 A 
ATOM      5  C   UNL d   1      58.777   0.455  33.142  0.00  0.00     0.035 A 
ATOM      6  C   UNL d   1      58.906   0.664  32.332  0.00  0.00     0.008 A 
ATOM      7 BR   UNL d   1      59.412   0.448  33.691  0.00  0.00    -0.049 Br
ENDROOT
BRANCH   1   8
ATOM      8  C   UNL d   1      56.635   0.062  33.109  0.00  0.00     0.083 C 
BRANCH   8   9
ATOM      9  N   UNL d   1      56.132   0.620  33.423  0.00  0.00    -0.238 NA
BRANCH   9  10
ATOM     10  C   UNL d   1      55.315   0.472  33.390  0.00  0.00     0.167 C 
BRANCH  10  11
ATOM     11  C   UNL d   1      54.862   0.606  34.087  0.00  0.00     0.320 C 
ATOM     12  O   UNL d   1      54.020   0.662  34.017  0.00  0.00    -0.257 OA
BRANCH  11  13
ATOM     13  O   UNL d   1      55.221   0.682  34.826  0.00  0.00    -0.270 OA
BRANCH  13  14
ATOM     14  C   UNL d   1      54.819   0.489  35.489  0.00  0.00     0.126 C 
ATOM     15  C   UNL d   1      55.198   0.072  36.062  0.00  0.00     0.029 C 
ENDBRANCH  13  14
ENDBRANCH  11  13
ENDBRANCH  10  11
ENDBRANCH   9  10
ENDBRANCH   8   9
BRANCH   8  16
ATOM     16  C   UNL d   1      56.379  -0.716  33.050  0.00  0.00     0.018 A 
ATOM     17  C   UNL d   1      56.621  -1.284  33.597  0.00  0.00     0.002 A 
ATOM     18  C   UNL d   1      56.378  -2.061  33.555  0.00  0.00     0.000 A 
ATOM     19  C   UNL d   1      55.854  -2.282  32.915  0.00  0.00     0.000 A 
ATOM     20  C   UNL d   1      55.608  -1.720  32.364  0.00  0.00     0.000 A 
ATOM     21  C   UNL d   1      55.869  -0.939  32.429  0.00  0.00     0.002 A 
ENDBRANCH   8  16
ENDBRANCH   1   8
BRANCH   2  22
ATOM     22  N   UNL d   1      56.885   0.470  31.530  0.00  0.00    -0.208 NA
ATOM     23  C   UNL d   1      57.026   0.325  30.726  0.00  0.00     0.279 C 
ATOM     24  O   UNL d   1      56.410   0.329  30.207  0.00  0.00    -0.265 OA
BRANCH  23  25
ATOM     25  C   UNL d   1      57.780   0.177  30.447  0.00  0.00     0.058 A 
ATOM     26  C   UNL d   1      58.207  -0.473  30.709  0.00  0.00     0.005 A 
ATOM     27  C   UNL d   1      58.967  -0.607  30.417  0.00  0.00     0.000 A 
ATOM     28  C   UNL d   1      59.290  -0.093  29.870  0.00  0.00     0.000 A 
ATOM     29  C   UNL d   1      58.868   0.548  29.614  0.00  0.00     0.000 A 
ATOM     30  C   UNL d   1      58.107   0.682  29.907  0.00  0.00     0.005 A 
ENDBRANCH  23  25
ENDBRANCH   2  22
TORSDOF 9
ENDMDL
