MODEL 1
REMARK VINA RESULT:      99.4      0.000      0.000
REMARK  4 active torsions:
REMARK  status: ('A' for Active; 'I' for Inactive)
REMARK    1  A    between atoms: N_2  and  S_1 
REMARK    2  A    between atoms: C_8  and  S_1 
REMARK       I    between atoms: C_3  and  N_2 
REMARK    3  A    between atoms: C_11  and  N_2 
REMARK       I    between atoms: N_4  and  C_3 
REMARK       I    between atoms: C_5  and  N_4 
REMARK       I    between atoms: N_9  and  C_5 
REMARK    4  A    between atoms: C_13  and  N_9 
ROOT
ATOM      1  N   UNL d   1     -51.405  25.335  33.960  0.00  0.00    -0.182 N 
ATOM      2  C   UNL d   1     -50.664  25.068  33.744  0.00  0.00     0.367 C 
ATOM      3  N   UNL d   1     -50.029  25.597  33.777  0.00  0.00    -0.135 NA
ATOM      4  C   UNL d   1     -49.267  25.358  33.565  0.00  0.00     0.373 C 
ATOM      5  N   UNL d   1     -48.635  25.885  33.599  0.00  0.00    -0.191 NA
ATOM      6  O   UNL d   1     -50.536  24.301  33.499  0.00  0.00    -0.243 OA
ATOM      7  O   UNL d   1     -49.161  24.553  33.313  0.00  0.00    -0.242 OA
ENDROOT
BRANCH   1   8
ATOM      8  S   UNL d   1     -52.064  24.812  33.933  0.00  0.00     0.275 S 
ATOM      9  O   UNL d   1     -51.746  24.387  34.559  0.00  0.00    -0.199 OA
ATOM     10  O   UNL d   1     -52.361  25.252  33.308  0.00  0.00    -0.199 OA
BRANCH   8  11
ATOM     11  C   UNL d   1     -52.712  24.311  33.894  0.00  0.00     0.104 A 
ATOM     12  C   UNL d   1     -53.352  24.413  34.398  0.00  0.00     0.013 A 
ATOM     13  C   UNL d   1     -54.012  23.906  34.361  0.00  0.00     0.001 A 
ATOM     14  C   UNL d   1     -54.032  23.298  33.820  0.00  0.00     0.000 A 
ATOM     15  C   UNL d   1     -53.386  23.188  33.306  0.00  0.00     0.001 A 
ATOM     16  C   UNL d   1     -52.726  23.695  33.342  0.00  0.00     0.013 A 
ENDBRANCH   8  11
ENDBRANCH   1   8
BRANCH   1  17
ATOM     17  C   UNL d   1     -51.491  26.110  34.199  0.00  0.00     0.079 A 
ATOM     18  C   UNL d   1     -51.435  26.302  34.987  0.00  0.00     0.018 A 
ATOM     19  C   UNL d   1     -51.522  27.089  35.233  0.00  0.00     0.002 A 
ATOM     20  C   UNL d   1     -51.664  27.682  34.678  0.00  0.00     0.000 A 
ATOM     21  C   UNL d   1     -51.719  27.482  33.882  0.00  0.00     0.002 A 
ATOM     22  C   UNL d   1     -51.633  26.700  33.647  0.00  0.00     0.018 A 
ENDBRANCH   1  17
BRANCH   5  23
ATOM     23  C   UNL d   1     -48.762  26.664  33.847  0.00  0.00     0.086 A 
ATOM     24  C   UNL d   1     -49.005  27.254  33.306  0.00  0.00     0.019 A 
ATOM     25  C   UNL d   1     -49.130  28.020  33.557  0.00  0.00     0.002 A 
ATOM     26  C   UNL d   1     -49.015  28.222  34.357  0.00  0.00     0.000 A 
ATOM     27  C   UNL d   1     -48.771  27.639  34.910  0.00  0.00     0.002 A 
ATOM     28  C   UNL d   1     -49.117  28.847  34.556  0.00  0.00     0.000 C 
ATOM     29  C   UNL d   1     -48.650  26.863  34.635  0.00  0.00     0.019 A 
ENDBRANCH   5  23
TORSDOF 4
ENDMDL
