MODEL 1
REMARK VINA RESULT:      -5.4      0.000      0.000
REMARK  4 active torsions:
REMARK  status: ('A' for Active; 'I' for Inactive)
REMARK    1  A    between atoms: C_2  and  S_1 
REMARK    2  A    between atoms: C_5  and  S_1 
REMARK    3  A    between atoms: C_7  and  C_5 
REMARK       I    between atoms: N_9  and  C_7 
REMARK    4  A    between atoms: C_8  and  N_9 
ROOT
ATOM      1  S   UNL d   1     -41.646-122.661 -50.756  0.00  0.00     0.217 S 
ATOM      2  O   UNL d   1     -41.741-121.852 -50.595  0.00  0.00    -0.217 OA
ATOM      3  O   UNL d   1     -41.552-123.474 -50.917  0.00  0.00    -0.217 OA
ENDROOT
BRANCH   1   4
ATOM      4  C   UNL d   1     -42.162-122.848 -50.137  0.00  0.00     0.109 A 
ATOM      5  C   UNL d   1     -42.984-122.887 -50.186  0.00  0.00     0.110 A 
ATOM      6  N   UNL d   1     -43.275-123.090 -49.445  0.00  0.00    -0.243 NA
ATOM      7  C   UNL d   1     -42.630-123.177 -48.935  0.00  0.00     0.082 A 
ATOM      8  C   UNL d   1     -41.948-123.026 -49.367  0.00  0.00     0.030 A 
ATOM      9  C   UNL d   1     -42.582-123.373 -48.134  0.00  0.00     0.019 A 
ATOM     10  C   UNL d   1     -41.208-123.071 -49.001  0.00  0.00     0.002 A 
ATOM     11  C   UNL d   1     -41.160-123.267 -48.202  0.00  0.00     0.000 A 
ATOM     12  C   UNL d   1     -41.843-123.416 -47.773  0.00  0.00     0.002 A 
ENDBRANCH   1   4
BRANCH   1  13
ATOM     13  C   UNL d   1     -41.123-122.479 -51.385  0.00  0.00     0.161 C 
BRANCH  13  14
ATOM     14  C   UNL d   1     -41.346-122.659 -52.162  0.00  0.00     0.291 C 
ATOM     15  N   UNL d   1     -41.278-122.076 -52.743  0.00  0.00    -0.207 NA
ATOM     16  O   UNL d   1     -41.630-123.401 -52.356  0.00  0.00    -0.264 OA
BRANCH  15  17
ATOM     17  C   UNL d   1     -41.499-122.251 -53.521  0.00  0.00     0.085 A 
ATOM     18  C   UNL d   1     -42.018-121.752 -53.922  0.00  0.00     0.018 A 
ATOM     19  C   UNL d   1     -42.245-121.918 -54.698  0.00  0.00     0.002 A 
ATOM     20  C   UNL d   1     -42.316-121.073 -53.540  0.00  0.00     0.002 C 
ATOM     21  C   UNL d   1     -41.950-122.588 -55.075  0.00  0.00     0.000 A 
ATOM     22  C   UNL d   1     -41.431-123.092 -54.679  0.00  0.00     0.002 A 
ATOM     23  C   UNL d   1     -41.207-122.921 -53.902  0.00  0.00     0.019 A 
ATOM     24  C   UNL d   1     -41.127-123.778 -55.058  0.00  0.00     0.000 C 
ENDBRANCH  15  17
ENDBRANCH  13  14
ENDBRANCH   1  13
TORSDOF 4
ENDMDL
MODEL 2
REMARK VINA RESULT:      -5.2      0.969      4.872
REMARK  4 active torsions:
REMARK  status: ('A' for Active; 'I' for Inactive)
REMARK    1  A    between atoms: C_2  and  S_1 
REMARK    2  A    between atoms: C_5  and  S_1 
REMARK    3  A    between atoms: C_7  and  C_5 
REMARK       I    between atoms: N_9  and  C_7 
REMARK    4  A    between atoms: C_8  and  N_9 
ROOT
ATOM      1  S   UNL d   1     -41.834-122.297 -52.546  0.00  0.00     0.217 S 
ATOM      2  O   UNL d   1     -42.537-122.738 -52.537  0.00  0.00    -0.217 OA
ATOM      3  O   UNL d   1     -41.127-121.854 -52.556  0.00  0.00    -0.217 OA
ENDROOT
BRANCH   1   4
ATOM      4  C   UNL d   1     -41.641-122.614 -53.284  0.00  0.00     0.109 A 
ATOM      5  C   UNL d   1     -41.177-123.283 -53.418  0.00  0.00     0.110 A 
ATOM      6  N   UNL d   1     -41.127-123.401 -54.230  0.00  0.00    -0.243 NA
ATOM      7  C   UNL d   1     -41.562-122.802 -54.600  0.00  0.00     0.082 A 
ATOM      8  C   UNL d   1     -41.875-122.321 -54.012  0.00  0.00     0.030 A 
ATOM      9  C   UNL d   1     -41.708-122.638 -55.396  0.00  0.00     0.019 A 
ATOM     10  C   UNL d   1     -42.341-121.669 -54.216  0.00  0.00     0.002 A 
ATOM     11  C   UNL d   1     -42.487-121.506 -55.010  0.00  0.00     0.000 A 
ATOM     12  C   UNL d   1     -42.172-121.988 -55.594  0.00  0.00     0.002 A 
ENDBRANCH   1   4
BRANCH   1  13
ATOM     13  C   UNL d   1     -42.024-121.971 -51.797  0.00  0.00     0.161 C 
BRANCH  13  14
ATOM     14  C   UNL d   1     -42.077-122.471 -51.139  0.00  0.00     0.291 C 
ATOM     15  N   UNL d   1     -42.403-122.180 -50.439  0.00  0.00    -0.207 NA
ATOM     16  O   UNL d   1     -41.813-123.245 -51.178  0.00  0.00    -0.264 OA
BRANCH  15  17
ATOM     17  C   UNL d   1     -42.458-122.676 -49.779  0.00  0.00     0.085 A 
ATOM     18  C   UNL d   1     -43.197-122.857 -49.463  0.00  0.00     0.018 A 
ATOM     19  C   UNL d   1     -43.262-123.352 -48.805  0.00  0.00     0.002 A 
ATOM     20  C   UNL d   1     -43.885-122.538 -49.810  0.00  0.00     0.002 C 
ATOM     21  C   UNL d   1     -42.583-123.667 -48.462  0.00  0.00     0.000 A 
ATOM     22  C   UNL d   1     -41.841-123.490 -48.774  0.00  0.00     0.002 A 
ATOM     23  C   UNL d   1     -41.780-122.994 -49.433  0.00  0.00     0.019 A 
ATOM     24  C   UNL d   1     -41.143-123.808 -48.430  0.00  0.00     0.000 C 
ENDBRANCH  15  17
ENDBRANCH  13  14
ENDBRANCH   1  13
TORSDOF 4
ENDMDL
MODEL 3
REMARK VINA RESULT:      -3.0      1.108      4.911
REMARK  4 active torsions:
REMARK  status: ('A' for Active; 'I' for Inactive)
REMARK    1  A    between atoms: C_2  and  S_1 
REMARK    2  A    between atoms: C_5  and  S_1 
REMARK    3  A    between atoms: C_7  and  C_5 
REMARK       I    between atoms: N_9  and  C_7 
REMARK    4  A    between atoms: C_8  and  N_9 
ROOT
ATOM      1  S   UNL d   1     -41.825-122.576 -52.820  0.00  0.00     0.217 S 
ATOM      2  O   UNL d   1     -41.123-123.015 -52.759  0.00  0.00    -0.217 OA
ATOM      3  O   UNL d   1     -42.530-122.136 -52.881  0.00  0.00    -0.217 OA
ENDROOT
BRANCH   1   4
ATOM      4  C   UNL d   1     -41.937-122.855 -53.590  0.00  0.00     0.109 A 
ATOM      5  C   UNL d   1     -41.945-123.646 -53.823  0.00  0.00     0.110 A 
ATOM      6  N   UNL d   1     -42.072-123.672 -54.634  0.00  0.00    -0.243 NA
ATOM      7  C   UNL d   1     -42.142-122.894 -54.905  0.00  0.00     0.082 A 
ATOM      8  C   UNL d   1     -42.058-122.396 -54.257  0.00  0.00     0.030 A 
ATOM      9  C   UNL d   1     -42.272-122.582 -55.658  0.00  0.00     0.019 A 
ATOM     10  C   UNL d   1     -42.103-121.577 -54.357  0.00  0.00     0.002 A 
ATOM     11  C   UNL d   1     -42.232-121.264 -55.108  0.00  0.00     0.000 A 
ATOM     12  C   UNL d   1     -42.316-121.765 -55.753  0.00  0.00     0.002 A 
ENDBRANCH   1   4
BRANCH   1  13
ATOM     13  C   UNL d   1     -41.719-122.289 -52.039  0.00  0.00     0.161 C 
BRANCH  13  14
ATOM     14  C   UNL d   1     -41.986-122.744 -51.401  0.00  0.00     0.291 C 
ATOM     15  N   UNL d   1     -42.155-122.370 -50.685  0.00  0.00    -0.207 NA
ATOM     16  O   UNL d   1     -42.084-123.553 -51.474  0.00  0.00    -0.264 OA
BRANCH  15  17
ATOM     17  C   UNL d   1     -42.423-122.820 -50.044  0.00  0.00     0.085 A 
ATOM     18  C   UNL d   1     -41.910-122.998 -49.425  0.00  0.00     0.018 A 
ATOM     19  C   UNL d   1     -42.169-123.447 -48.781  0.00  0.00     0.002 A 
ATOM     20  C   UNL d   1     -41.123-122.723 -49.448  0.00  0.00     0.002 C 
ATOM     21  C   UNL d   1     -42.946-123.718 -48.759  0.00  0.00     0.000 A 
ATOM     22  C   UNL d   1     -43.464-123.543 -49.376  0.00  0.00     0.002 A 
ATOM     23  C   UNL d   1     -43.201-123.093 -50.018  0.00  0.00     0.019 A 
ATOM     24  C   UNL d   1     -44.259-123.817 -49.360  0.00  0.00     0.000 C 
ENDBRANCH  15  17
ENDBRANCH  13  14
ENDBRANCH   1  13
TORSDOF 4
ENDMDL
