MODEL 1
REMARK VINA RESULT:      -3.6      0.000      0.000
REMARK  5 active torsions:
REMARK  status: ('A' for Active; 'I' for Inactive)
REMARK    1  A    between atoms: O_2  and  S_1 
REMARK    2  A    between atoms: C_3  and  S_1 
REMARK    3  A    between atoms: C_6  and  O_2 
REMARK    4  A    between atoms: O_17  and  C_14 
REMARK    5  A    between atoms: C_20  and  O_17 
ROOT
ATOM      1  S   UNL d   1      33.224  18.706 -23.124  0.00  0.00     0.304 S 
ATOM      2  O   UNL d   1      33.236  18.273 -22.424  0.00  0.00    -0.193 OA
ATOM      3  O   UNL d   1      33.213  19.139 -23.823  0.00  0.00    -0.193 OA
ENDROOT
BRANCH   1   4
ATOM      4  O   UNL d   1      33.224  18.007 -23.557  0.00  0.00    -0.227 OA
BRANCH   4   5
ATOM      5  C   UNL d   1      32.510  17.651 -23.764  0.00  0.00     0.114 A 
ATOM      6  C   UNL d   1      32.276  16.944 -23.399  0.00  0.00     0.026 A 
ATOM      7  C   UNL d   1      31.565  16.591 -23.606  0.00  0.00     0.002 A 
ATOM      8  C   UNL d   1      31.334  15.887 -23.242  0.00  0.00     0.000 A 
ATOM      9  C   UNL d   1      31.078  16.939 -24.181  0.00  0.00     0.000 A 
ATOM     10  C   UNL d   1      30.617  15.528 -23.448  0.00  0.00     0.000 A 
ATOM     11  C   UNL d   1      30.131  15.876 -24.023  0.00  0.00     0.000 A 
ATOM     12  C   UNL d   1      30.364  16.582 -24.387  0.00  0.00     0.000 A 
ATOM     13  C   UNL d   1      31.306  17.639 -24.544  0.00  0.00     0.002 A 
ATOM     14  C   UNL d   1      32.024  17.999 -24.338  0.00  0.00     0.026 A 
ENDBRANCH   4   5
ENDBRANCH   1   4
BRANCH   1  15
ATOM     15  C   UNL d   1      33.224  19.406 -22.690  0.00  0.00     0.111 A 
ATOM     16  C   UNL d   1      33.208  19.382 -21.865  0.00  0.00     0.015 A 
ATOM     17  C   UNL d   1      33.208  20.082 -21.431  0.00  0.00     0.025 A 
ATOM     18  C   UNL d   1      33.224  20.814 -21.817  0.00  0.00     0.100 A 
ATOM     19  C   UNL d   1      33.241  20.832 -22.642  0.00  0.00     0.025 A 
ATOM     20  C   UNL d   1      33.241  20.133 -23.076  0.00  0.00     0.015 A 
BRANCH  18  21
ATOM     21  O   UNL d   1      33.224  21.514 -21.384  0.00  0.00    -0.305 OA
BRANCH  21  22
ATOM     22  C   UNL d   1      32.587  21.697 -20.900  0.00  0.00     0.123 C 
ATOM     23  C   UNL d   1      32.528  22.446 -20.563  0.00  0.00     0.029 C 
ENDBRANCH  21  22
ENDBRANCH  18  21
ENDBRANCH   1  15
TORSDOF 5
ENDMDL
MODEL 2
REMARK VINA RESULT:      -3.2      1.195      4.658
REMARK  5 active torsions:
REMARK  status: ('A' for Active; 'I' for Inactive)
REMARK    1  A    between atoms: O_2  and  S_1 
REMARK    2  A    between atoms: C_3  and  S_1 
REMARK    3  A    between atoms: C_6  and  O_2 
REMARK    4  A    between atoms: O_17  and  C_14 
REMARK    5  A    between atoms: C_20  and  O_17 
ROOT
ATOM      1  S   UNL d   1      32.511  17.642 -23.901  0.00  0.00     0.304 S 
ATOM      2  O   UNL d   1      32.711  17.126 -23.292  0.00  0.00    -0.193 OA
ATOM      3  O   UNL d   1      32.312  18.157 -24.509  0.00  0.00    -0.193 OA
ENDROOT
BRANCH   1   4
ATOM      4  O   UNL d   1      33.222  18.041 -23.795  0.00  0.00    -0.227 OA
BRANCH   4   5
ATOM      5  C   UNL d   1      33.225  18.795 -23.462  0.00  0.00     0.114 A 
ATOM      6  C   UNL d   1      33.215  18.888 -22.639  0.00  0.00     0.026 A 
ATOM      7  C   UNL d   1      33.218  19.639 -22.309  0.00  0.00     0.002 A 
ATOM      8  C   UNL d   1      33.209  19.729 -21.489  0.00  0.00     0.000 A 
ATOM      9  C   UNL d   1      33.231  20.309 -22.799  0.00  0.00     0.000 A 
ATOM     10  C   UNL d   1      33.212  20.486 -21.153  0.00  0.00     0.000 A 
ATOM     11  C   UNL d   1      33.224  21.155 -21.643  0.00  0.00     0.000 A 
ATOM     12  C   UNL d   1      33.234  21.064 -22.465  0.00  0.00     0.000 A 
ATOM     13  C   UNL d   1      33.240  20.222 -23.615  0.00  0.00     0.002 A 
ATOM     14  C   UNL d   1      33.237  19.465 -23.952  0.00  0.00     0.026 A 
ENDBRANCH   4   5
ENDBRANCH   1   4
BRANCH   1  15
ATOM     15  C   UNL d   1      31.800  17.242 -24.007  0.00  0.00     0.111 A 
ATOM     16  C   UNL d   1      31.224  17.547 -24.514  0.00  0.00     0.015 A 
ATOM     17  C   UNL d   1      30.512  17.147 -24.620  0.00  0.00     0.025 A 
ATOM     18  C   UNL d   1      30.367  16.436 -24.220  0.00  0.00     0.100 A 
ATOM     19  C   UNL d   1      30.946  16.135 -23.714  0.00  0.00     0.025 A 
ATOM     20  C   UNL d   1      31.657  16.535 -23.609  0.00  0.00     0.015 A 
BRANCH  18  21
ATOM     21  O   UNL d   1      29.656  16.036 -24.326  0.00  0.00    -0.305 OA
BRANCH  21  22
ATOM     22  C   UNL d   1      29.248  15.745 -23.676  0.00  0.00     0.123 C 
ATOM     23  C   UNL d   1      28.437  15.614 -23.724  0.00  0.00     0.029 C 
ENDBRANCH  21  22
ENDBRANCH  18  21
ENDBRANCH   1  15
TORSDOF 5
ENDMDL
MODEL 3
REMARK VINA RESULT:      -3.1      0.889      1.621
REMARK  5 active torsions:
REMARK  status: ('A' for Active; 'I' for Inactive)
REMARK    1  A    between atoms: O_2  and  S_1 
REMARK    2  A    between atoms: C_3  and  S_1 
REMARK    3  A    between atoms: C_6  and  O_2 
REMARK    4  A    between atoms: O_17  and  C_14 
REMARK    5  A    between atoms: C_20  and  O_17 
ROOT
ATOM      1  S   UNL d   1      32.601  17.837 -23.889  0.00  0.00     0.304 S 
ATOM      2  O   UNL d   1      32.789  17.417 -23.206  0.00  0.00    -0.193 OA
ATOM      3  O   UNL d   1      32.414  18.256 -24.570  0.00  0.00    -0.193 OA
ENDROOT
BRANCH   1   4
ATOM      4  O   UNL d   1      32.442  17.131 -24.279  0.00  0.00    -0.227 OA
BRANCH   4   5
ATOM      5  C   UNL d   1      31.743  16.723 -24.124  0.00  0.00     0.114 A 
ATOM      6  C   UNL d   1      31.016  17.032 -24.372  0.00  0.00     0.026 A 
ATOM      7  C   UNL d   1      30.321  16.624 -24.217  0.00  0.00     0.002 A 
ATOM      8  C   UNL d   1      29.597  16.934 -24.465  0.00  0.00     0.000 A 
ATOM      9  C   UNL d   1      30.344  15.901 -23.811  0.00  0.00     0.000 A 
ATOM     10  C   UNL d   1      28.894  16.526 -24.310  0.00  0.00     0.000 A 
ATOM     11  C   UNL d   1      28.918  15.802 -23.905  0.00  0.00     0.000 A 
ATOM     12  C   UNL d   1      29.644  15.492 -23.656  0.00  0.00     0.000 A 
ATOM     13  C   UNL d   1      31.063  15.590 -23.564  0.00  0.00     0.002 A 
ATOM     14  C   UNL d   1      31.767  15.999 -23.718  0.00  0.00     0.026 A 
ENDBRANCH   4   5
ENDBRANCH   1   4
BRANCH   1  15
ATOM     15  C   UNL d   1      32.760  18.543 -23.498  0.00  0.00     0.111 A 
ATOM     16  C   UNL d   1      32.813  19.250 -23.922  0.00  0.00     0.015 A 
ATOM     17  C   UNL d   1      32.972  19.956 -23.531  0.00  0.00     0.025 A 
ATOM     18  C   UNL d   1      33.081  19.966 -22.710  0.00  0.00     0.100 A 
ATOM     19  C   UNL d   1      33.027  19.257 -22.290  0.00  0.00     0.025 A 
ATOM     20  C   UNL d   1      32.868  18.551 -22.681  0.00  0.00     0.015 A 
BRANCH  18  21
ATOM     21  O   UNL d   1      33.240  20.672 -22.319  0.00  0.00    -0.305 OA
BRANCH  21  22
ATOM     22  C   UNL d   1      32.806  20.880 -21.654  0.00  0.00     0.123 C 
ATOM     23  C   UNL d   1      32.949  21.598 -21.277  0.00  0.00     0.029 C 
ENDBRANCH  21  22
ENDBRANCH  18  21
ENDBRANCH   1  15
TORSDOF 5
ENDMDL
