MODEL 1
REMARK VINA RESULT:      -7.5      0.000      0.000
REMARK  6 active torsions:
REMARK  status: ('A' for Active; 'I' for Inactive)
REMARK    1  A    between atoms: C_3  and  S_1 
REMARK    2  A    between atoms: N_4  and  S_1 
REMARK    3  A    between atoms: S_2  and  C_7 
REMARK    4  A    between atoms: C_8  and  S_2 
REMARK    5  A    between atoms: C_6  and  C_9 
REMARK       I    between atoms: N_10  and  C_6 
REMARK    6  A    between atoms: C_17  and  N_10 
ROOT
ATOM      1  C   UNL d   1     -49.762  12.554  22.598  0.00  0.00     0.115 A 
ATOM      2  C   UNL d   1     -49.016  12.907  22.538  0.00  0.00     0.019 A 
ATOM      3  C   UNL d   1     -48.428  12.678  23.066  0.00  0.00     0.059 A 
ATOM      4  C   UNL d   1     -49.910  11.993  23.167  0.00  0.00     0.070 A 
ATOM      5  C   UNL d   1     -48.575  12.118  23.635  0.00  0.00     0.006 A 
ATOM      6  C   UNL d   1     -49.315  11.769  23.693  0.00  0.00     0.012 A 
ATOM      7 CL   UNL d   1     -50.667  11.644  23.219  0.00  0.00    -0.082 Cl
ENDROOT
BRANCH   3   8
ATOM      8  C   UNL d   1     -47.667  13.020  23.025  0.00  0.00     0.279 C 
ATOM      9  N   UNL d   1     -47.150  12.813  22.420  0.00  0.00    -0.208 NA
ATOM     10  O   UNL d   1     -47.430  13.570  23.593  0.00  0.00    -0.265 OA
BRANCH   9  11
ATOM     11  C   UNL d   1     -46.400  13.154  22.384  0.00  0.00     0.085 A 
ATOM     12  C   UNL d   1     -45.722  12.668  22.335  0.00  0.00     0.031 A 
ATOM     13  C   UNL d   1     -44.960  13.008  22.298  0.00  0.00     0.094 A 
ATOM     14  C   UNL d   1     -44.871  13.845  22.310  0.00  0.00     0.012 A 
ATOM     15  C   UNL d   1     -45.550  14.331  22.359  0.00  0.00     0.002 A 
ATOM     16  C   UNL d   1     -46.311  13.991  22.396  0.00  0.00     0.019 A 
BRANCH  13  17
ATOM     17  S   UNL d   1     -44.389  12.431  22.253  0.00  0.00     0.262 S 
ATOM     18  O   UNL d   1     -43.809  11.857  22.198  0.00  0.00    -0.213 OA
ATOM     19  O   UNL d   1     -44.721  12.025  22.870  0.00  0.00    -0.213 OA
BRANCH  17  20
ATOM     20  C   UNL d   1     -44.043  12.835  21.626  0.00  0.00     0.364 C 
ATOM     21  F   UNL d   1     -43.937  12.463  20.914  0.00  0.00    -0.159 F 
ATOM     22  F   UNL d   1     -43.804  13.612  21.717  0.00  0.00    -0.159 F 
ENDBRANCH  17  20
ENDBRANCH  13  17
ENDBRANCH   9  11
ENDBRANCH   3   8
BRANCH   1  23
ATOM     23  S   UNL d   1     -50.349  12.791  22.062  0.00  0.00     0.272 S 
ATOM     24  O   UNL d   1     -50.230  12.088  21.627  0.00  0.00    -0.200 OA
ATOM     25  O   UNL d   1     -50.926  13.006  21.518  0.00  0.00    -0.200 OA
BRANCH  23  26
ATOM     26  N   UNL d   1     -50.477  13.483  22.476  0.00  0.00    -0.225 N 
ATOM     27  C   UNL d   1     -50.179  14.194  22.199  0.00  0.00     0.118 A 
ATOM     28  C   UNL d   1     -50.311  14.886  22.618  0.00  0.00     0.142 A 
ATOM     29  O   UNL d   1     -50.735  14.873  23.310  0.00  0.00    -0.300 OA
ATOM     30  C   UNL d   1     -51.043  14.156  23.602  0.00  0.00     0.142 A 
ATOM     31  C   UNL d   1     -50.908  13.470  23.178  0.00  0.00     0.118 A 
ENDBRANCH  23  26
ENDBRANCH   1  23
TORSDOF 6
ENDMDL
MODEL 2
REMARK VINA RESULT:      -7.2      1.294      2.063
REMARK  6 active torsions:
REMARK  status: ('A' for Active; 'I' for Inactive)
REMARK    1  A    between atoms: C_3  and  S_1 
REMARK    2  A    between atoms: N_4  and  S_1 
REMARK    3  A    between atoms: S_2  and  C_7 
REMARK    4  A    between atoms: C_8  and  S_2 
REMARK    5  A    between atoms: C_6  and  C_9 
REMARK       I    between atoms: N_10  and  C_6 
REMARK    6  A    between atoms: C_17  and  N_10 
ROOT
ATOM      1  C   UNL d   1     -49.595  14.366  22.854  0.00  0.00     0.115 A 
ATOM      2  C   UNL d   1     -48.914  13.917  22.997  0.00  0.00     0.019 A 
ATOM      3  C   UNL d   1     -48.184  14.225  22.775  0.00  0.00     0.059 A 
ATOM      4  C   UNL d   1     -49.542  15.095  22.501  0.00  0.00     0.070 A 
ATOM      5  C   UNL d   1     -48.131  14.954  22.422  0.00  0.00     0.006 A 
ATOM      6  C   UNL d   1     -48.806  15.397  22.281  0.00  0.00     0.012 A 
ATOM      7 CL   UNL d   1     -50.235  15.539  22.360  0.00  0.00    -0.082 Cl
ENDROOT
BRANCH   3   8
ATOM      8  C   UNL d   1     -47.484  13.790  22.910  0.00  0.00     0.279 C 
ATOM      9  N   UNL d   1     -47.052  13.490  22.278  0.00  0.00    -0.208 NA
ATOM     10  O   UNL d   1     -47.222  13.659  23.681  0.00  0.00    -0.265 OA
BRANCH   9  11
ATOM     11  C   UNL d   1     -46.362  13.062  22.417  0.00  0.00     0.085 A 
ATOM     12  C   UNL d   1     -45.631  13.338  22.118  0.00  0.00     0.031 A 
ATOM     13  C   UNL d   1     -44.929  12.908  22.256  0.00  0.00     0.094 A 
ATOM     14  C   UNL d   1     -44.953  12.191  22.698  0.00  0.00     0.012 A 
ATOM     15  C   UNL d   1     -45.684  11.916  22.996  0.00  0.00     0.002 A 
ATOM     16  C   UNL d   1     -46.385  12.345  22.859  0.00  0.00     0.019 A 
BRANCH  13  17
ATOM     17  S   UNL d   1     -44.292  13.280  21.915  0.00  0.00     0.262 S 
ATOM     18  O   UNL d   1     -43.647  13.643  21.567  0.00  0.00    -0.213 OA
ATOM     19  O   UNL d   1     -44.512  13.993  22.231  0.00  0.00    -0.213 OA
BRANCH  17  20
ATOM     20  C   UNL d   1     -44.058  12.562  21.590  0.00  0.00     0.364 C 
ATOM     21  F   UNL d   1     -44.363  12.321  20.880  0.00  0.00    -0.159 F 
ATOM     22  F   UNL d   1     -43.516  12.089  21.981  0.00  0.00    -0.159 F 
ENDBRANCH  17  20
ENDBRANCH  13  17
ENDBRANCH   9  11
ENDBRANCH   3   8
BRANCH   1  23
ATOM     23  S   UNL d   1     -50.326  14.047  23.081  0.00  0.00     0.272 S 
ATOM     24  O   UNL d   1     -50.375  14.608  23.696  0.00  0.00    -0.200 OA
ATOM     25  O   UNL d   1     -51.052  13.747  23.324  0.00  0.00    -0.200 OA
BRANCH  23  26
ATOM     26  N   UNL d   1     -50.293  13.491  22.483  0.00  0.00    -0.225 N 
ATOM     27  C   UNL d   1     -50.092  12.715  22.649  0.00  0.00     0.118 A 
ATOM     28  C   UNL d   1     -50.060  12.160  22.046  0.00  0.00     0.142 A 
ATOM     29  O   UNL d   1     -50.227  12.376  21.281  0.00  0.00    -0.300 OA
ATOM     30  C   UNL d   1     -50.432  13.163  21.100  0.00  0.00     0.142 A 
ATOM     31  C   UNL d   1     -50.462  13.709  21.707  0.00  0.00     0.118 A 
ENDBRANCH  23  26
ENDBRANCH   1  23
TORSDOF 6
ENDMDL
MODEL 3
REMARK VINA RESULT:      -5.5      8.952      9.999
REMARK  6 active torsions:
REMARK  status: ('A' for Active; 'I' for Inactive)
REMARK    1  A    between atoms: C_3  and  S_1 
REMARK    2  A    between atoms: N_4  and  S_1 
REMARK    3  A    between atoms: S_2  and  C_7 
REMARK    4  A    between atoms: C_8  and  S_2 
REMARK    5  A    between atoms: C_6  and  C_9 
REMARK       I    between atoms: N_10  and  C_6 
REMARK    6  A    between atoms: C_17  and  N_10 
ROOT
ATOM      1  C   UNL d   1     -38.854  14.819  17.866  0.00  0.00     0.115 A 
ATOM      2  C   UNL d   1     -39.029  14.776  18.674  0.00  0.00     0.019 A 
ATOM      3  C   UNL d   1     -38.649  15.293  19.189  0.00  0.00     0.059 A 
ATOM      4  C   UNL d   1     -38.317  15.361  17.589  0.00  0.00     0.070 A 
ATOM      5  C   UNL d   1     -38.112  15.835  18.912  0.00  0.00     0.006 A 
ATOM      6  C   UNL d   1     -37.940  15.877  18.112  0.00  0.00     0.012 A 
ATOM      7 CL   UNL d   1     -38.147  15.397  16.772  0.00  0.00    -0.082 Cl
ENDROOT
BRANCH   3   8
ATOM      8  C   UNL d   1     -38.810  15.268  20.008  0.00  0.00     0.279 C 
ATOM      9  N   UNL d   1     -38.271  14.928  20.528  0.00  0.00    -0.208 NA
ATOM     10  O   UNL d   1     -39.514  15.584  20.300  0.00  0.00    -0.265 OA
BRANCH   9  11
ATOM     11  C   UNL d   1     -38.436  14.906  21.335  0.00  0.00     0.085 A 
ATOM     12  C   UNL d   1     -38.513  14.171  21.726  0.00  0.00     0.031 A 
ATOM     13  C   UNL d   1     -38.679  14.142  22.544  0.00  0.00     0.094 A 
ATOM     14  C   UNL d   1     -38.770  14.856  22.981  0.00  0.00     0.012 A 
ATOM     15  C   UNL d   1     -38.693  15.592  22.590  0.00  0.00     0.002 A 
ATOM     16  C   UNL d   1     -38.527  15.619  21.773  0.00  0.00     0.019 A 
BRANCH  13  17
ATOM     17  S   UNL d   1     -38.729  13.373  22.801  0.00  0.00     0.262 S 
ATOM     18  O   UNL d   1     -38.793  12.600  23.063  0.00  0.00    -0.213 OA
ATOM     19  O   UNL d   1     -37.940  13.254  22.666  0.00  0.00    -0.213 OA
BRANCH  17  20
ATOM     20  C   UNL d   1     -39.532  13.482  22.943  0.00  0.00     0.364 C 
ATOM     21  F   UNL d   1     -40.079  13.197  22.418  0.00  0.00    -0.159 F 
ATOM     22  F   UNL d   1     -39.783  13.878  23.614  0.00  0.00    -0.159 F 
ENDBRANCH  17  20
ENDBRANCH  13  17
ENDBRANCH   9  11
ENDBRANCH   3   8
BRANCH   1  23
ATOM     23  S   UNL d   1     -39.242  14.294  17.355  0.00  0.00     0.272 S 
ATOM     24  O   UNL d   1     -38.578  13.789  17.376  0.00  0.00    -0.200 OA
ATOM     25  O   UNL d   1     -39.608  13.759  16.850  0.00  0.00    -0.200 OA
BRANCH  23  26
ATOM     26  N   UNL d   1     -39.899  14.777  17.325  0.00  0.00    -0.225 N 
ATOM     27  C   UNL d   1     -40.549  14.625  17.800  0.00  0.00     0.118 A 
ATOM     28  C   UNL d   1     -41.207  15.114  17.766  0.00  0.00     0.142 A 
ATOM     29  O   UNL d   1     -41.220  15.750  17.262  0.00  0.00    -0.300 OA
ATOM     30  C   UNL d   1     -40.566  15.915  16.774  0.00  0.00     0.142 A 
ATOM     31  C   UNL d   1     -39.913  15.423  16.814  0.00  0.00     0.118 A 
ENDBRANCH  23  26
ENDBRANCH   1  23
TORSDOF 6
ENDMDL
MODEL 4
REMARK VINA RESULT:      -5.1      8.299     10.099
REMARK  6 active torsions:
REMARK  status: ('A' for Active; 'I' for Inactive)
REMARK    1  A    between atoms: C_3  and  S_1 
REMARK    2  A    between atoms: N_4  and  S_1 
REMARK    3  A    between atoms: S_2  and  C_7 
REMARK    4  A    between atoms: C_8  and  S_2 
REMARK    5  A    between atoms: C_6  and  C_9 
REMARK       I    between atoms: N_10  and  C_6 
REMARK    6  A    between atoms: C_17  and  N_10 
ROOT
ATOM      1  C   UNL d   1     -39.431  15.083  17.128  0.00  0.00     0.115 A 
ATOM      2  C   UNL d   1     -39.449  15.082  17.956  0.00  0.00     0.019 A 
ATOM      3  C   UNL d   1     -40.179  15.057  18.335  0.00  0.00     0.059 A 
ATOM      4  C   UNL d   1     -40.120  15.059  16.700  0.00  0.00     0.070 A 
ATOM      5  C   UNL d   1     -40.869  15.033  17.907  0.00  0.00     0.006 A 
ATOM      6  C   UNL d   1     -40.848  15.034  17.087  0.00  0.00     0.012 A 
ATOM      7 CL   UNL d   1     -40.091  15.059  15.865  0.00  0.00    -0.082 Cl
ENDROOT
BRANCH   3   8
ATOM      8  C   UNL d   1     -40.222  15.056  19.169  0.00  0.00     0.279 C 
ATOM      9  N   UNL d   1     -40.037  14.377  19.594  0.00  0.00    -0.208 NA
ATOM     10  O   UNL d   1     -40.451  15.739  19.571  0.00  0.00    -0.265 OA
BRANCH   9  11
ATOM     11  C   UNL d   1     -40.081  14.382  20.417  0.00  0.00     0.085 A 
ATOM     12  C   UNL d   1     -39.386  14.295  20.874  0.00  0.00     0.031 A 
ATOM     13  C   UNL d   1     -39.425  14.299  21.708  0.00  0.00     0.094 A 
ATOM     14  C   UNL d   1     -40.168  14.390  22.095  0.00  0.00     0.012 A 
ATOM     15  C   UNL d   1     -40.863  14.476  21.638  0.00  0.00     0.002 A 
ATOM     16  C   UNL d   1     -40.823  14.472  20.805  0.00  0.00     0.019 A 
BRANCH  13  17
ATOM     17  S   UNL d   1     -38.685  14.208  22.031  0.00  0.00     0.262 S 
ATOM     18  O   UNL d   1     -37.944  14.104  22.361  0.00  0.00    -0.213 OA
ATOM     19  O   UNL d   1     -38.467  14.952  21.796  0.00  0.00    -0.213 OA
BRANCH  17  20
ATOM     20  C   UNL d   1     -38.895  13.451  22.275  0.00  0.00     0.364 C 
ATOM     21  F   UNL d   1     -38.493  12.808  21.990  0.00  0.00    -0.159 F 
ATOM     22  F   UNL d   1     -39.509  13.344  22.805  0.00  0.00    -0.159 F 
ENDBRANCH  17  20
ENDBRANCH  13  17
ENDBRANCH   9  11
ENDBRANCH   3   8
BRANCH   1  23
ATOM     23  S   UNL d   1     -38.691  15.108  16.756  0.00  0.00     0.272 S 
ATOM     24  O   UNL d   1     -38.797  15.922  16.606  0.00  0.00    -0.200 OA
ATOM     25  O   UNL d   1     -37.960  15.156  16.382  0.00  0.00    -0.200 OA
BRANCH  23  26
ATOM     26  N   UNL d   1     -38.571  14.312  16.895  0.00  0.00    -0.225 N 
ATOM     27  C   UNL d   1     -38.947  13.749  16.434  0.00  0.00     0.118 A 
ATOM     28  C   UNL d   1     -38.823  12.951  16.577  0.00  0.00     0.142 A 
ATOM     29  O   UNL d   1     -38.328  12.713  17.175  0.00  0.00    -0.300 OA
ATOM     30  C   UNL d   1     -37.940  13.276  17.650  0.00  0.00     0.142 A 
ATOM     31  C   UNL d   1     -38.068  14.070  17.501  0.00  0.00     0.118 A 
ENDBRANCH  23  26
ENDBRANCH   1  23
TORSDOF 6
ENDMDL
