MODEL 1
REMARK VINA RESULT:      83.2      0.000      0.000
REMARK  4 active torsions:
REMARK  status: ('A' for Active; 'I' for Inactive)
REMARK    1  A    between atoms: N_10  and  C_3 
REMARK    2  A    between atoms: C_11  and  C_5 
REMARK    3  A    between atoms: C_12  and  N_10 
REMARK    4  A    between atoms: O_21  and  C_14 
ROOT
ATOM      1  N   UNL d   1     -49.871  26.568  33.899  0.00  0.00    -0.184 N 
ATOM      2  C   UNL d   1     -50.418  25.953  33.738  0.00  0.00     0.168 A 
ATOM      3  C   UNL d   1     -50.117  27.356  33.856  0.00  0.00     0.217 A 
ATOM      4  N   UNL d   1     -48.858  25.603  34.138  0.00  0.00    -0.162 NA
ATOM      5  C   UNL d   1     -50.179  25.183  33.780  0.00  0.00     0.055 A 
ATOM      6  N   UNL d   1     -51.193  26.148  33.540  0.00  0.00    -0.227 NA
ATOM      7  C   UNL d   1     -50.884  27.533  33.659  0.00  0.00     0.066 A 
ATOM      8  C   UNL d   1     -49.397  24.998  33.980  0.00  0.00     0.104 A 
ATOM      9  C   UNL d   1     -51.438  26.924  33.497  0.00  0.00     0.087 A 
ATOM     10  C   UNL d   1     -51.280  28.236  33.574  0.00  0.00     0.006 A 
ATOM     11  C   UNL d   1     -49.163  24.215  34.020  0.00  0.00     0.023 C 
ATOM     12  C   UNL d   1     -52.160  27.267  33.316  0.00  0.00     0.019 A 
ATOM     13  C   UNL d   1     -52.057  28.090  33.366  0.00  0.00     0.002 A 
ENDROOT
BRANCH   3  14
ATOM     14  N   UNL d   1     -49.567  27.980  34.017  0.00  0.00    -0.383 NA
BRANCH  14  15
ATOM     15  C   UNL d   1     -49.031  28.594  34.218  0.00  0.00     0.134 A 
ATOM     16  C   UNL d   1     -48.334  28.438  34.643  0.00  0.00     0.034 A 
ATOM     17  C   UNL d   1     -47.800  29.055  34.842  0.00  0.00     0.027 A 
ATOM     18  C   UNL d   1     -47.962  29.850  34.613  0.00  0.00     0.094 A 
ATOM     19  C   UNL d   1     -48.679  30.022  34.174  0.00  0.00     0.027 A 
ATOM     20  C   UNL d   1     -49.211  29.402  33.977  0.00  0.00     0.034 A 
BRANCH  18  21
ATOM     21  O   UNL d   1     -47.431  30.470  34.810  0.00  0.00    -0.328 OA
ATOM     22  C   UNL d   1     -47.134  30.541  35.598  0.00  0.00     0.181 C 
ENDBRANCH  18  21
ENDBRANCH  14  15
ENDBRANCH   3  14
BRANCH   5  23
ATOM     23  C   UNL d   1     -50.715  24.581  33.622  0.00  0.00     0.004 A 
ATOM     24  C   UNL d   1     -50.451  23.810  33.520  0.00  0.00     0.000 A 
ATOM     25  C   UNL d   1     -50.982  23.208  33.364  0.00  0.00     0.000 A 
ATOM     26  C   UNL d   1     -51.788  23.376  33.307  0.00  0.00     0.000 A 
ATOM     27  C   UNL d   1     -52.056  24.134  33.407  0.00  0.00     0.000 A 
ATOM     28  C   UNL d   1     -51.514  24.744  33.566  0.00  0.00     0.000 A 
ENDBRANCH   5  23
TORSDOF 4
ENDMDL
