MODEL 1
REMARK VINA RESULT:      -3.3      0.000      0.000
REMARK  4 active torsions:
REMARK  status: ('A' for Active; 'I' for Inactive)
REMARK    1  A    between atoms: C_7  and  N_1 
REMARK    2  A    between atoms: N_6  and  C_2 
REMARK    3  A    between atoms: C_10  and  N_6 
REMARK    4  A    between atoms: C_12  and  C_7 
ROOT
ATOM      1  N   UNL d   1      32.390  16.669 -23.923  0.00  0.00    -0.239 N 
ATOM      2  C   UNL d   1      31.189  16.094 -24.150  0.00  0.00     0.151 A 
ATOM      3  C   UNL d   1      31.733  16.678 -24.449  0.00  0.00     0.285 A 
ATOM      4  C   UNL d   1      32.234  16.076 -23.309  0.00  0.00     0.269 A 
ATOM      5  C   UNL d   1      31.504  15.748 -23.475  0.00  0.00     0.086 A 
ATOM      6  O   UNL d   1      31.613  17.053 -25.009  0.00  0.00    -0.265 OA
ATOM      7  O   UNL d   1      32.718  16.015 -22.853  0.00  0.00    -0.267 OA
ENDROOT
BRANCH   2   8
ATOM      8  N   UNL d   1      30.452  15.888 -24.473  0.00  0.00    -0.181 N 
ATOM      9  O   UNL d   1      30.582  15.486 -25.097  0.00  0.00    -0.080 OA
BRANCH   8  10
ATOM     10  C   UNL d   1      29.755  16.130 -24.100  0.00  0.00     0.090 A 
ATOM     11  C   UNL d   1      29.415  15.679 -23.492  0.00  0.00     0.020 A 
ATOM     12  C   UNL d   1      28.711  15.931 -23.122  0.00  0.00     0.002 A 
ATOM     13  C   UNL d   1      28.334  16.636 -23.351  0.00  0.00     0.000 A 
ATOM     14  C   UNL d   1      28.676  17.085 -23.958  0.00  0.00     0.002 A 
ATOM     15  C   UNL d   1      29.376  16.841 -24.331  0.00  0.00     0.020 A 
ENDBRANCH   8  10
ENDBRANCH   2   8
BRANCH   1  16
ATOM     16  C   UNL d   1      33.055  17.073 -23.903  0.00  0.00     0.086 C 
BRANCH  16  17
ATOM     17  C   UNL d   1      33.050  17.870 -23.746  0.00  0.00     0.018 A 
ATOM     18  C   UNL d   1      32.932  18.130 -22.983  0.00  0.00     0.002 A 
ATOM     19  C   UNL d   1      32.927  18.928 -22.826  0.00  0.00     0.000 A 
ATOM     20  C   UNL d   1      33.037  19.463 -23.419  0.00  0.00     0.000 A 
ATOM     21  C   UNL d   1      33.156  19.199 -24.193  0.00  0.00     0.000 A 
ATOM     22  C   UNL d   1      33.163  18.391 -24.358  0.00  0.00     0.002 A 
ENDBRANCH  16  17
ENDBRANCH   1  16
TORSDOF 4
ENDMDL
MODEL 2
REMARK VINA RESULT:      -1.5      0.877      3.600
REMARK  4 active torsions:
REMARK  status: ('A' for Active; 'I' for Inactive)
REMARK    1  A    between atoms: C_7  and  N_1 
REMARK    2  A    between atoms: N_6  and  C_2 
REMARK    3  A    between atoms: C_10  and  N_6 
REMARK    4  A    between atoms: C_12  and  C_7 
ROOT
ATOM      1  N   UNL d   1      30.278  16.280 -24.281  0.00  0.00    -0.239 N 
ATOM      2  C   UNL d   1      31.605  16.383 -24.056  0.00  0.00     0.151 A 
ATOM      3  C   UNL d   1      30.977  16.654 -24.564  0.00  0.00     0.285 A 
ATOM      4  C   UNL d   1      30.494  15.784 -23.602  0.00  0.00     0.269 A 
ATOM      5  C   UNL d   1      31.299  15.869 -23.493  0.00  0.00     0.086 A 
ATOM      6  O   UNL d   1      31.073  17.088 -25.084  0.00  0.00    -0.265 OA
ATOM      7  O   UNL d   1      29.983  15.455 -23.325  0.00  0.00    -0.267 OA
ENDROOT
BRANCH   2   8
ATOM      8  N   UNL d   1      32.408  16.591 -24.102  0.00  0.00    -0.181 N 
ATOM      9  O   UNL d   1      32.754  16.068 -24.520  0.00  0.00    -0.080 OA
BRANCH   8  10
ATOM     10  C   UNL d   1      32.682  17.272 -23.722  0.00  0.00     0.090 A 
ATOM     11  C   UNL d   1      32.795  17.288 -22.900  0.00  0.00     0.020 A 
ATOM     12  C   UNL d   1      33.072  17.980 -22.524  0.00  0.00     0.002 A 
ATOM     13  C   UNL d   1      33.241  18.667 -22.961  0.00  0.00     0.000 A 
ATOM     14  C   UNL d   1      33.127  18.649 -23.783  0.00  0.00     0.002 A 
ATOM     15  C   UNL d   1      32.852  17.963 -24.163  0.00  0.00     0.020 A 
ENDBRANCH   8  10
ENDBRANCH   2   8
BRANCH   1  16
ATOM     16  C   UNL d   1      29.535  16.306 -24.513  0.00  0.00     0.086 C 
BRANCH  16  17
ATOM     17  C   UNL d   1      29.103  16.991 -24.439  0.00  0.00     0.018 A 
ATOM     18  C   UNL d   1      28.952  17.445 -25.097  0.00  0.00     0.002 A 
ATOM     19  C   UNL d   1      28.520  18.130 -25.023  0.00  0.00     0.000 A 
ATOM     20  C   UNL d   1      28.240  18.362 -24.303  0.00  0.00     0.000 A 
ATOM     21  C   UNL d   1      28.393  17.900 -23.635  0.00  0.00     0.000 A 
ATOM     22  C   UNL d   1      28.831  17.205 -23.705  0.00  0.00     0.002 A 
ENDBRANCH  16  17
ENDBRANCH   1  16
TORSDOF 4
ENDMDL
MODEL 3
REMARK VINA RESULT:      -0.7      3.061      4.568
REMARK  4 active torsions:
REMARK  status: ('A' for Active; 'I' for Inactive)
REMARK    1  A    between atoms: C_7  and  N_1 
REMARK    2  A    between atoms: N_6  and  C_2 
REMARK    3  A    between atoms: C_10  and  N_6 
REMARK    4  A    between atoms: C_12  and  C_7 
ROOT
ATOM      1  N   UNL d   1      33.138  20.897 -21.820  0.00  0.00    -0.239 N 
ATOM      2  C   UNL d   1      32.991  19.958 -22.779  0.00  0.00     0.151 A 
ATOM      3  C   UNL d   1      33.141  20.788 -22.655  0.00  0.00     0.285 A 
ATOM      4  C   UNL d   1      32.986  20.127 -21.449  0.00  0.00     0.269 A 
ATOM      5  C   UNL d   1      32.903  19.585 -22.054  0.00  0.00     0.086 A 
ATOM      6  O   UNL d   1      33.237  21.235 -23.164  0.00  0.00    -0.265 OA
ATOM      7  O   UNL d   1      32.970  20.140 -20.781  0.00  0.00    -0.267 OA
ENDROOT
BRANCH   2   8
ATOM      8  N   UNL d   1      32.939  19.566 -23.509  0.00  0.00    -0.181 N 
ATOM      9  O   UNL d   1      33.112  20.064 -24.048  0.00  0.00    -0.080 OA
BRANCH   8  10
ATOM     10  C   UNL d   1      32.726  18.767 -23.536  0.00  0.00     0.090 A 
ATOM     11  C   UNL d   1      33.237  18.178 -23.253  0.00  0.00     0.020 A 
ATOM     12  C   UNL d   1      33.013  17.374 -23.285  0.00  0.00     0.002 A 
ATOM     13  C   UNL d   1      32.278  17.145 -23.598  0.00  0.00     0.000 A 
ATOM     14  C   UNL d   1      31.769  17.737 -23.880  0.00  0.00     0.002 A 
ATOM     15  C   UNL d   1      31.985  18.538 -23.852  0.00  0.00     0.020 A 
ENDBRANCH   8  10
ENDBRANCH   2   8
BRANCH   1  16
ATOM     16  C   UNL d   1      33.241  21.524 -21.370  0.00  0.00     0.086 C 
BRANCH  16  17
ATOM     17  C   UNL d   1      32.764  22.177 -21.454  0.00  0.00     0.018 A 
ATOM     18  C   UNL d   1      32.855  22.662 -22.101  0.00  0.00     0.002 A 
ATOM     19  C   UNL d   1      32.378  23.315 -22.186  0.00  0.00     0.000 A 
ATOM     20  C   UNL d   1      31.815  23.485 -21.634  0.00  0.00     0.000 A 
ATOM     21  C   UNL d   1      31.722  22.992 -20.978  0.00  0.00     0.000 A 
ATOM     22  C   UNL d   1      32.203  22.329 -20.887  0.00  0.00     0.002 A 
ENDBRANCH  16  17
ENDBRANCH   1  16
TORSDOF 4
ENDMDL
MODEL 4
REMARK VINA RESULT:      -0.6      2.593      4.938
REMARK  4 active torsions:
REMARK  status: ('A' for Active; 'I' for Inactive)
REMARK    1  A    between atoms: C_7  and  N_1 
REMARK    2  A    between atoms: N_6  and  C_2 
REMARK    3  A    between atoms: C_10  and  N_6 
REMARK    4  A    between atoms: C_12  and  C_7 
ROOT
ATOM      1  N   UNL d   1      33.149  19.258 -23.368  0.00  0.00    -0.239 N 
ATOM      2  C   UNL d   1      33.075  20.174 -22.379  0.00  0.00     0.151 A 
ATOM      3  C   UNL d   1      33.101  19.336 -22.532  0.00  0.00     0.285 A 
ATOM      4  C   UNL d   1      33.151  20.054 -23.713  0.00  0.00     0.269 A 
ATOM      5  C   UNL d   1      33.105  20.582 -23.091  0.00  0.00     0.086 A 
ATOM      6  O   UNL d   1      33.084  18.863 -22.038  0.00  0.00    -0.265 OA
ATOM      7  O   UNL d   1      33.188  20.067 -24.380  0.00  0.00    -0.267 OA
ENDROOT
BRANCH   2   8
ATOM      8  N   UNL d   1      33.025  20.544 -21.638  0.00  0.00    -0.181 N 
ATOM      9  O   UNL d   1      33.218  20.035 -21.117  0.00  0.00    -0.080 OA
BRANCH   8  10
ATOM     10  C   UNL d   1      32.796  21.337 -21.585  0.00  0.00     0.090 A 
ATOM     11  C   UNL d   1      33.078  21.902 -22.123  0.00  0.00     0.020 A 
ATOM     12  C   UNL d   1      32.840  22.700 -22.062  0.00  0.00     0.002 A 
ATOM     13  C   UNL d   1      32.318  22.948 -21.464  0.00  0.00     0.000 A 
ATOM     14  C   UNL d   1      32.038  22.381 -20.926  0.00  0.00     0.002 A 
ATOM     15  C   UNL d   1      32.270  21.585 -20.981  0.00  0.00     0.020 A 
ENDBRANCH   8  10
ENDBRANCH   2   8
BRANCH   1  16
ATOM     16  C   UNL d   1      33.189  18.638 -23.839  0.00  0.00     0.086 C 
BRANCH  16  17
ATOM     17  C   UNL d   1      32.553  18.138 -23.918  0.00  0.00     0.018 A 
ATOM     18  C   UNL d   1      32.626  17.356 -23.704  0.00  0.00     0.002 A 
ATOM     19  C   UNL d   1      31.990  16.856 -23.783  0.00  0.00     0.000 A 
ATOM     20  C   UNL d   1      31.288  17.129 -24.071  0.00  0.00     0.000 A 
ATOM     21  C   UNL d   1      31.214  17.922 -24.288  0.00  0.00     0.000 A 
ATOM     22  C   UNL d   1      31.856  18.434 -24.210  0.00  0.00     0.002 A 
ENDBRANCH  16  17
ENDBRANCH   1  16
TORSDOF 4
ENDMDL
