MODEL 1
REMARK VINA RESULT:      20.0      0.000      0.000
REMARK  3 active torsions:
REMARK  status: ('A' for Active; 'I' for Inactive)
REMARK    1  A    between atoms: C_6  and  N_1 
REMARK    2  A    between atoms: C_7  and  O_10 
REMARK    3  A    between atoms: O_10  and  C_13 
ROOT
ATOM      1  C   UNL d   1     -57.787 -99.027 -44.355  0.00  0.00     0.070 A 
ATOM      2  C   UNL d   1     -57.376 -98.755 -45.030  0.00  0.00     0.020 A 
ATOM      3  C   UNL d   1     -57.373 -99.386 -43.737  0.00  0.00     0.020 A 
ATOM      4  C   UNL d   1     -56.141 -99.215 -44.442  0.00  0.00     0.105 A 
ATOM      5  C   UNL d   1     -56.556 -99.482 -43.774  0.00  0.00     0.026 A 
ATOM      6  C   UNL d   1     -56.556 -98.852 -45.067  0.00  0.00     0.026 A 
ENDROOT
BRANCH   1   7
ATOM      7  N   UNL d   1     -58.599 -98.931 -44.318  0.00  0.00    -0.242 N 
ATOM      8  C   UNL d   1     -59.076 -98.824 -43.630  0.00  0.00     0.267 A 
ATOM      9  C   UNL d   1     -59.841 -98.755 -43.873  0.00  0.00     0.066 A 
ATOM     10  O   UNL d   1     -58.825 -98.794 -42.847  0.00  0.00    -0.267 OA
ATOM     11  C   UNL d   1     -59.884 -98.811 -44.677  0.00  0.00     0.066 A 
ATOM     12  C   UNL d   1     -59.091 -98.922 -44.949  0.00  0.00     0.267 A 
ATOM     13  O   UNL d   1     -58.850 -99.009 -45.736  0.00  0.00    -0.267 OA
ENDBRANCH   1   7
BRANCH   4  14
ATOM     14  O   UNL d   1     -55.347 -99.308 -44.478  0.00  0.00    -0.260 OA
BRANCH  14  15
ATOM     15  C   UNL d   1     -55.021-100.052 -44.422  0.00  0.00     0.391 C 
ATOM     16  F   UNL d   1     -54.920-100.501 -45.085  0.00  0.00    -0.145 F 
ATOM     17  F   UNL d   1     -54.796-100.346 -43.697  0.00  0.00    -0.145 F 
ENDBRANCH  14  15
ENDBRANCH   4  14
TORSDOF 3
ENDMDL
