MODEL 1
REMARK VINA RESULT:      40.0      0.000      0.000
REMARK  2 active torsions:
REMARK  status: ('A' for Active; 'I' for Inactive)
REMARK    1  A    between atoms: C_10  and  N_3 
REMARK    2  A    between atoms: C_11  and  C_4 
ROOT
ATOM      1  C   UNL d   1      59.144  49.583  50.038  0.00  0.00     0.152 A 
ATOM      2  C   UNL d   1      59.831  49.607  50.483  0.00  0.00     0.065 A 
ATOM      3  N   UNL d   1      58.503  49.525  50.558  0.00  0.00    -0.290 N 
ATOM      4  C   UNL d   1      59.622  49.564  51.282  0.00  0.00     0.023 A 
ATOM      5  C   UNL d   1      58.805  49.514  51.324  0.00  0.00     0.082 A 
ATOM      6  N   UNL d   1      59.179  49.617  49.214  0.00  0.00    -0.206 NA
ATOM      7  C   UNL d   1      60.566  49.666  50.112  0.00  0.00     0.143 A 
ATOM      8  N   UNL d   1      60.602  49.699  49.288  0.00  0.00    -0.212 NA
ATOM      9  C   UNL d   1      59.914  49.675  48.843  0.00  0.00     0.201 A 
ATOM     10 CL   UNL d   1      61.253  49.690  50.557  0.00  0.00    -0.061 Cl
ENDROOT
BRANCH   3  11
ATOM     11  C   UNL d   1      57.707  49.483  50.389  0.00  0.00     0.065 A 
ATOM     12  C   UNL d   1      57.456  49.251  49.639  0.00  0.00     0.018 A 
ATOM     13  C   UNL d   1      56.650  49.208  49.466  0.00  0.00     0.002 A 
ATOM     14  C   UNL d   1      56.085  49.401  50.051  0.00  0.00     0.000 A 
ATOM     15  C   UNL d   1      56.347  49.634  50.799  0.00  0.00     0.002 A 
ATOM     16  C   UNL d   1      57.152  49.674  50.967  0.00  0.00     0.018 A 
ENDBRANCH   3  11
BRANCH   4  17
ATOM     17  C   UNL d   1      60.235  49.580  51.834  0.00  0.00     0.002 A 
ATOM     18  C   UNL d   1      61.022  49.548  51.582  0.00  0.00     0.000 A 
ATOM     19  C   UNL d   1      61.635  49.564  52.135  0.00  0.00     0.000 A 
ATOM     20  C   UNL d   1      61.461  49.612  52.938  0.00  0.00     0.000 A 
ATOM     21  C   UNL d   1      60.674  49.643  53.189  0.00  0.00     0.000 A 
ATOM     22  C   UNL d   1      60.064  49.628  52.641  0.00  0.00     0.000 A 
ENDBRANCH   4  17
TORSDOF 2
ENDMDL
