MODEL 1
REMARK VINA RESULT:      16.9      0.000      0.000
REMARK  2 active torsions:
REMARK  status: ('A' for Active; 'I' for Inactive)
REMARK    1  A    between atoms: N_2  and  S_1 
REMARK    2  A    between atoms: C_3  and  S_1 
ROOT
ATOM      1  N   UNL d   1      45.645 -16.356  44.336  0.00  0.00    -0.229 N 
ATOM      2  C   UNL d   1      46.097 -15.711  44.122  0.00  0.00     0.092 A 
ATOM      3  C   UNL d   1      45.836 -14.956  44.328  0.00  0.00     0.018 A 
ATOM      4  C   UNL d   1      44.936 -16.266  44.752  0.00  0.00     0.092 A 
ATOM      5  C   UNL d   1      45.114 -14.865  44.752  0.00  0.00     0.003 A 
ATOM      6  C   UNL d   1      44.679 -15.531  44.955  0.00  0.00     0.020 A 
ATOM      7  C   UNL d   1      46.278 -14.288  44.122  0.00  0.00     0.002 A 
ATOM      8  C   UNL d   1      44.860 -14.108  44.954  0.00  0.00     0.000 A 
ATOM      9  C   UNL d   1      46.011 -13.543  44.330  0.00  0.00     0.000 A 
ATOM     10  C   UNL d   1      45.302 -13.453  44.747  0.00  0.00     0.000 A 
ENDROOT
BRANCH   1  11
ATOM     11  S   UNL d   1      45.917 -17.133  44.122  0.00  0.00     0.277 S 
ATOM     12  O   UNL d   1      46.097 -17.290  44.928  0.00  0.00    -0.199 OA
ATOM     13  O   UNL d   1      45.739 -16.982  43.319  0.00  0.00    -0.199 OA
BRANCH  11  14
ATOM     14  C   UNL d   1      46.174 -17.876  43.901  0.00  0.00     0.133 A 
ATOM     15  S   UNL d   1      46.335 -18.474  44.419  0.00  0.00    -0.074 SA
ATOM     16  C   UNL d   1      46.590 -19.163  43.969  0.00  0.00     0.036 A 
ATOM     17  C   UNL d   1      46.575 -18.947  43.146  0.00  0.00     0.008 A 
ATOM     18  C   UNL d   1      46.325 -18.174  43.109  0.00  0.00     0.020 A 
ENDBRANCH  11  14
ENDBRANCH   1  11
TORSDOF 2
ENDMDL
MODEL 2
REMARK VINA RESULT:      17.2      0.870      4.044
REMARK  2 active torsions:
REMARK  status: ('A' for Active; 'I' for Inactive)
REMARK    1  A    between atoms: N_2  and  S_1 
REMARK    2  A    between atoms: C_3  and  S_1 
ROOT
ATOM      1  N   UNL d   1      46.084 -17.372  43.794  0.00  0.00    -0.229 N 
ATOM      2  C   UNL d   1      46.134 -17.960  44.358  0.00  0.00     0.092 A 
ATOM      3  C   UNL d   1      46.296 -18.732  44.116  0.00  0.00     0.018 A 
ATOM      4  C   UNL d   1      46.192 -17.536  42.991  0.00  0.00     0.092 A 
ATOM      5  C   UNL d   1      46.406 -18.899  43.298  0.00  0.00     0.003 A 
ATOM      6  C   UNL d   1      46.350 -18.288  42.752  0.00  0.00     0.020 A 
ATOM      7  C   UNL d   1      46.351 -19.344  44.670  0.00  0.00     0.002 A 
ATOM      8  C   UNL d   1      46.567 -19.672  43.064  0.00  0.00     0.000 A 
ATOM      9  C   UNL d   1      46.511 -20.106  44.421  0.00  0.00     0.000 A 
ATOM     10  C   UNL d   1      46.620 -20.270  43.618  0.00  0.00     0.000 A 
ENDROOT
BRANCH   1  11
ATOM     11  S   UNL d   1      45.917 -16.578  44.047  0.00  0.00     0.277 S 
ATOM     12  O   UNL d   1      45.191 -16.598  43.624  0.00  0.00    -0.199 OA
ATOM     13  O   UNL d   1      46.638 -16.553  44.469  0.00  0.00    -0.199 OA
BRANCH  11  14
ATOM     14  C   UNL d   1      45.772 -15.814  44.299  0.00  0.00     0.133 A 
ATOM     15  S   UNL d   1      45.104 -15.585  44.691  0.00  0.00    -0.074 SA
ATOM     16  C   UNL d   1      45.161 -14.742  44.858  0.00  0.00     0.036 A 
ATOM     17  C   UNL d   1      45.905 -14.473  44.543  0.00  0.00     0.008 A 
ATOM     18  C   UNL d   1      46.268 -15.119  44.208  0.00  0.00     0.020 A 
ENDBRANCH  11  14
ENDBRANCH   1  11
TORSDOF 2
ENDMDL
MODEL 3
REMARK VINA RESULT:      19.8      7.701      8.299
REMARK  2 active torsions:
REMARK  status: ('A' for Active; 'I' for Inactive)
REMARK    1  A    between atoms: N_2  and  S_1 
REMARK    2  A    between atoms: C_3  and  S_1 
ROOT
ATOM      1  N   UNL d   1      43.875 -15.570  36.703  0.00  0.00    -0.229 N 
ATOM      2  C   UNL d   1      43.252 -15.054  36.814  0.00  0.00     0.092 A 
ATOM      3  C   UNL d   1      42.483 -15.326  36.690  0.00  0.00     0.018 A 
ATOM      4  C   UNL d   1      43.749 -16.354  36.471  0.00  0.00     0.092 A 
ATOM      5  C   UNL d   1      42.354 -16.124  36.453  0.00  0.00     0.003 A 
ATOM      6  C   UNL d   1      42.999 -16.621  36.349  0.00  0.00     0.020 A 
ATOM      7  C   UNL d   1      41.836 -14.821  36.796  0.00  0.00     0.002 A 
ATOM      8  C   UNL d   1      41.584 -16.388  36.331  0.00  0.00     0.000 A 
ATOM      9  C   UNL d   1      41.077 -15.098  36.671  0.00  0.00     0.000 A 
ATOM     10  C   UNL d   1      40.951 -15.882  36.439  0.00  0.00     0.000 A 
ENDROOT
BRANCH   1  11
ATOM     11  S   UNL d   1      44.666 -15.287  36.832  0.00  0.00     0.277 S 
ATOM     12  O   UNL d   1      44.820 -15.948  37.327  0.00  0.00    -0.199 OA
ATOM     13  O   UNL d   1      44.518 -14.628  36.340  0.00  0.00    -0.199 OA
BRANCH  11  14
ATOM     14  C   UNL d   1      45.423 -15.002  36.945  0.00  0.00     0.133 A 
ATOM     15  S   UNL d   1      45.896 -14.721  36.354  0.00  0.00    -0.074 SA
ATOM     16  C   UNL d   1      46.646 -14.474  36.698  0.00  0.00     0.036 A 
ATOM     17  C   UNL d   1      46.600 -14.623  37.535  0.00  0.00     0.008 A 
ATOM     18  C   UNL d   1      45.865 -14.939  37.680  0.00  0.00     0.020 A 
ENDBRANCH  11  14
ENDBRANCH   1  11
TORSDOF 2
ENDMDL
