MODEL 1
REMARK VINA RESULT:      -4.8      0.000      0.000
REMARK  1 active torsions:
REMARK  status: ('A' for Active; 'I' for Inactive)
REMARK       I    between atoms: N_2  and  C_1 
REMARK       I    between atoms: N_4  and  C_1 
REMARK    1  A    between atoms: C_5  and  N_3 
ROOT
ATOM      1  C   UNL d   1      57.518  -1.105  30.787  0.00  0.00     0.340 C 
ATOM      2  N   UNL d   1      57.117  -0.806  31.461  0.00  0.00    -0.254 N 
ATOM      3  N   UNL d   1      56.334  -0.221  32.779  0.00  0.00    -0.301 N 
ATOM      4  N   UNL d   1      58.007  -0.612  30.334  0.00  0.00    -0.253 N 
ATOM      5  O   UNL d   1      57.419  -1.905  30.575  0.00  0.00    -0.245 OA
ATOM      6  C   UNL d   1      57.212  -0.018  31.672  0.00  0.00     0.104 A 
ATOM      7  C   UNL d   1      56.631  -1.317  31.903  0.00  0.00     0.104 A 
ATOM      8  C   UNL d   1      56.238  -1.023  32.564  0.00  0.00     0.100 A 
ATOM      9  C   UNL d   1      56.819   0.275  32.334  0.00  0.00     0.100 A 
ATOM     10  O   UNL d   1      58.978   0.364  29.434  0.00  0.00    -0.300 OA
ATOM     11  C   UNL d   1      58.397  -0.918  29.672  0.00  0.00     0.111 A 
ATOM     12  C   UNL d   1      58.100   0.177  30.549  0.00  0.00     0.111 A 
ATOM     13  C   UNL d   1      58.589   0.670  30.096  0.00  0.00     0.142 A 
ATOM     14  C   UNL d   1      58.882  -0.427  29.223  0.00  0.00     0.142 A 
ENDROOT
BRANCH   3  15
ATOM     15  C   UNL d   1      55.943   0.080  33.443  0.00  0.00     0.064 A 
ATOM     16  C   UNL d   1      56.373   0.229  34.126  0.00  0.00     0.018 A 
ATOM     17  C   UNL d   1      55.985   0.531  34.791  0.00  0.00     0.001 A 
ATOM     18  C   UNL d   1      56.412   0.682  35.480  0.00  0.00     0.000 C 
ATOM     19  C   UNL d   1      55.166   0.681  34.763  0.00  0.00     0.000 A 
ATOM     20  C   UNL d   1      54.740   0.530  34.073  0.00  0.00     0.001 A 
ATOM     21  C   UNL d   1      55.132   0.228  33.411  0.00  0.00     0.018 A 
ATOM     22  C   UNL d   1      53.927   0.678  34.045  0.00  0.00     0.000 C 
ENDBRANCH   3  15
TORSDOF 1
ENDMDL
MODEL 2
REMARK VINA RESULT:      -3.9      0.996      1.783
REMARK  1 active torsions:
REMARK  status: ('A' for Active; 'I' for Inactive)
REMARK       I    between atoms: N_2  and  C_1 
REMARK       I    between atoms: N_4  and  C_1 
REMARK    1  A    between atoms: C_5  and  N_3 
ROOT
ATOM      1  C   UNL d   1      58.216  -0.358  29.599  0.00  0.00     0.340 C 
ATOM      2  N   UNL d   1      57.842  -0.218  30.336  0.00  0.00    -0.254 N 
ATOM      3  N   UNL d   1      57.109   0.055  31.779  0.00  0.00    -0.301 N 
ATOM      4  N   UNL d   1      58.506  -1.111  29.408  0.00  0.00    -0.253 N 
ATOM      5  O   UNL d   1      58.296   0.270  29.055  0.00  0.00    -0.245 OA
ATOM      6  C   UNL d   1      57.762  -0.834  30.873  0.00  0.00     0.104 A 
ATOM      7  C   UNL d   1      57.558   0.545  30.508  0.00  0.00     0.104 A 
ATOM      8  C   UNL d   1      57.190   0.682  31.232  0.00  0.00     0.100 A 
ATOM      9  C   UNL d   1      57.395  -0.697  31.597  0.00  0.00     0.100 A 
ATOM     10  O   UNL d   1      59.082  -2.605  29.029  0.00  0.00    -0.300 OA
ATOM     11  C   UNL d   1      58.874  -1.236  28.678  0.00  0.00     0.111 A 
ATOM     12  C   UNL d   1      58.425  -1.726  29.949  0.00  0.00     0.111 A 
ATOM     13  C   UNL d   1      58.714  -2.480  29.759  0.00  0.00     0.142 A 
ATOM     14  C   UNL d   1      59.161  -1.985  28.491  0.00  0.00     0.142 A 
ENDROOT
BRANCH   3  15
ATOM     15  C   UNL d   1      56.741   0.185  32.508  0.00  0.00     0.064 A 
ATOM     16  C   UNL d   1      57.204   0.367  33.161  0.00  0.00     0.018 A 
ATOM     17  C   UNL d   1      56.839   0.498  33.892  0.00  0.00     0.001 A 
ATOM     18  C   UNL d   1      57.299   0.682  34.552  0.00  0.00     0.000 C 
ATOM     19  C   UNL d   1      56.011   0.444  33.960  0.00  0.00     0.000 A 
ATOM     20  C   UNL d   1      55.552   0.260  33.300  0.00  0.00     0.001 A 
ATOM     21  C   UNL d   1      55.921   0.130  32.571  0.00  0.00     0.018 A 
ATOM     22  C   UNL d   1      54.730   0.206  33.366  0.00  0.00     0.000 C 
ENDBRANCH   3  15
TORSDOF 1
ENDMDL
MODEL 3
REMARK VINA RESULT:      -3.1      1.882      4.741
REMARK  1 active torsions:
REMARK  status: ('A' for Active; 'I' for Inactive)
REMARK       I    between atoms: N_2  and  C_1 
REMARK       I    between atoms: N_4  and  C_1 
REMARK    1  A    between atoms: C_5  and  N_3 
ROOT
ATOM      1  C   UNL d   1      57.014   0.665  33.783  0.00  0.00     0.340 C 
ATOM      2  N   UNL d   1      57.354   0.665  33.017  0.00  0.00    -0.254 N 
ATOM      3  N   UNL d   1      58.021   0.665  31.518  0.00  0.00    -0.301 N 
ATOM      4  N   UNL d   1      56.190   0.649  33.879  0.00  0.00    -0.253 N 
ATOM      5  O   UNL d   1      57.511   0.682  34.453  0.00  0.00    -0.245 OA
ATOM      6  C   UNL d   1      56.867   0.649  32.357  0.00  0.00     0.104 A 
ATOM      7  C   UNL d   1      58.183   0.682  32.942  0.00  0.00     0.104 A 
ATOM      8  C   UNL d   1      58.518   0.682  32.190  0.00  0.00     0.100 A 
ATOM      9  C   UNL d   1      57.201   0.649  31.605  0.00  0.00     0.100 A 
ATOM     10  O   UNL d   1      54.556   0.616  34.071  0.00  0.00    -0.300 OA
ATOM     11  C   UNL d   1      55.866   0.649  34.640  0.00  0.00     0.111 A 
ATOM     12  C   UNL d   1      55.704   0.632  33.215  0.00  0.00     0.111 A 
ATOM     13  C   UNL d   1      54.881   0.616  33.310  0.00  0.00     0.142 A 
ATOM     14  C   UNL d   1      55.048   0.633  34.732  0.00  0.00     0.142 A 
ENDROOT
BRANCH   3  15
ATOM     15  C   UNL d   1      58.350   0.665  30.759  0.00  0.00     0.064 A 
ATOM     16  C   UNL d   1      59.167   0.661  30.679  0.00  0.00     0.018 A 
ATOM     17  C   UNL d   1      59.500   0.661  29.922  0.00  0.00     0.001 A 
ATOM     18  C   UNL d   1      60.320   0.656  29.834  0.00  0.00     0.000 C 
ATOM     19  C   UNL d   1      59.007   0.664  29.250  0.00  0.00     0.000 A 
ATOM     20  C   UNL d   1      58.187   0.669  29.338  0.00  0.00     0.001 A 
ATOM     21  C   UNL d   1      57.859   0.669  30.097  0.00  0.00     0.018 A 
ATOM     22  C   UNL d   1      57.697   0.672  28.672  0.00  0.00     0.000 C 
ENDBRANCH   3  15
TORSDOF 1
ENDMDL
