MODEL 1
REMARK VINA RESULT:      -9.7      0.000      0.000
REMARK  4 active torsions:
REMARK  status: ('A' for Active; 'I' for Inactive)
REMARK    1  A    between atoms: S_9  and  C_2 
REMARK    2  A    between atoms: C_11  and  C_3 
REMARK    3  A    between atoms: C_7  and  C_10 
REMARK       I    between atoms: N_8  and  C_7 
REMARK    4  A    between atoms: C_10  and  S_9 
ROOT
ATOM      1  N   UNL d   1      53.336  32.800  53.625  0.00  0.00    -0.220 NA
ATOM      2  C   UNL d   1      52.850  32.284  53.191  0.00  0.00     0.114 A 
ATOM      3  C   UNL d   1      53.925  32.492  54.107  0.00  0.00     0.163 A 
ATOM      4  N   UNL d   1      54.034  31.676  54.162  0.00  0.00    -0.227 NA
ATOM      5  C   UNL d   1      52.959  31.468  53.246  0.00  0.00     0.042 A 
ATOM      6  C   UNL d   1      53.555  31.168  53.735  0.00  0.00     0.085 A 
ATOM      7  C   UNL d   1      52.484  30.966  52.822  0.00  0.00     0.004 A 
ATOM      8  C   UNL d   1      53.667  30.365  53.793  0.00  0.00     0.019 A 
ATOM      9  C   UNL d   1      52.593  30.151  52.877  0.00  0.00     0.000 A 
ATOM     10  C   UNL d   1      53.189  29.851  53.367  0.00  0.00     0.002 A 
ENDROOT
BRANCH   2  11
ATOM     11  S   UNL d   1      52.259  32.585  52.705  0.00  0.00    -0.062 SA
BRANCH  11  12
ATOM     12  C   UNL d   1      51.899  33.295  52.883  0.00  0.00     0.098 C 
BRANCH  12  13
ATOM     13  C   UNL d   1      51.422  33.678  52.326  0.00  0.00     0.271 C 
ATOM     14  N   UNL d   1      50.760  34.105  52.564  0.00  0.00    -0.272 N 
ATOM     15  C   UNL d   1      50.293  34.481  52.010  0.00  0.00     0.083 A 
ATOM     16  C   UNL d   1      50.578  34.147  53.368  0.00  0.00     0.083 A 
ATOM     17  C   UNL d   1      49.631  34.908  52.243  0.00  0.00     0.019 A 
ATOM     18  C   UNL d   1      49.435  34.959  53.043  0.00  0.00     0.003 A 
ATOM     19  C   UNL d   1      49.912  34.577  53.600  0.00  0.00     0.019 A 
ATOM     20  O   UNL d   1      51.613  33.631  51.524  0.00  0.00    -0.266 OA
ENDBRANCH  12  13
ENDBRANCH  11  12
ENDBRANCH   2  11
BRANCH   3  21
ATOM     21  C   UNL d   1      54.408  32.996  54.538  0.00  0.00     0.036 A 
ATOM     22  C   UNL d   1      55.065  33.340  54.176  0.00  0.00     0.003 A 
ATOM     23  C   UNL d   1      55.554  33.850  54.610  0.00  0.00     0.000 A 
ATOM     24  C   UNL d   1      55.379  34.007  55.399  0.00  0.00     0.000 A 
ATOM     25  C   UNL d   1      54.722  33.663  55.762  0.00  0.00     0.000 A 
ATOM     26  C   UNL d   1      54.240  33.161  55.335  0.00  0.00     0.003 A 
ENDBRANCH   3  21
TORSDOF 4
ENDMDL
MODEL 2
REMARK VINA RESULT:      -9.5      1.397      4.537
REMARK  4 active torsions:
REMARK  status: ('A' for Active; 'I' for Inactive)
REMARK    1  A    between atoms: S_9  and  C_2 
REMARK    2  A    between atoms: C_11  and  C_3 
REMARK    3  A    between atoms: C_7  and  C_10 
REMARK       I    between atoms: N_8  and  C_7 
REMARK    4  A    between atoms: C_10  and  S_9 
ROOT
ATOM      1  N   UNL d   1      52.698  32.835  53.328  0.00  0.00    -0.220 NA
ATOM      2  C   UNL d   1      53.398  32.614  53.719  0.00  0.00     0.114 A 
ATOM      3  C   UNL d   1      52.403  33.595  53.423  0.00  0.00     0.163 A 
ATOM      4  N   UNL d   1      52.796  34.138  53.904  0.00  0.00    -0.227 NA
ATOM      5  C   UNL d   1      53.791  33.157  54.200  0.00  0.00     0.042 A 
ATOM      6  C   UNL d   1      53.485  33.921  54.289  0.00  0.00     0.085 A 
ATOM      7  C   UNL d   1      54.474  32.941  54.581  0.00  0.00     0.004 A 
ATOM      8  C   UNL d   1      53.869  34.459  54.762  0.00  0.00     0.019 A 
ATOM      9  C   UNL d   1      54.867  33.484  55.062  0.00  0.00     0.000 A 
ATOM     10  C   UNL d   1      54.560  34.247  55.151  0.00  0.00     0.002 A 
ENDROOT
BRANCH   2  11
ATOM     11  S   UNL d   1      53.700  31.856  53.629  0.00  0.00    -0.062 SA
BRANCH  11  12
ATOM     12  C   UNL d   1      53.245  31.204  53.813  0.00  0.00     0.098 C 
BRANCH  12  13
ATOM     13  C   UNL d   1      53.475  30.446  53.574  0.00  0.00     0.271 C 
ATOM     14  N   UNL d   1      53.407  29.807  54.087  0.00  0.00    -0.272 N 
ATOM     15  C   UNL d   1      53.635  29.060  53.844  0.00  0.00     0.083 A 
ATOM     16  C   UNL d   1      53.107  29.931  54.845  0.00  0.00     0.083 A 
ATOM     17  C   UNL d   1      53.570  28.419  54.353  0.00  0.00     0.019 A 
ATOM     18  C   UNL d   1      53.271  28.526  55.115  0.00  0.00     0.003 A 
ATOM     19  C   UNL d   1      53.042  29.283  55.355  0.00  0.00     0.019 A 
ATOM     20  O   UNL d   1      53.774  30.333  52.813  0.00  0.00    -0.266 OA
ENDBRANCH  12  13
ENDBRANCH  11  12
ENDBRANCH   2  11
BRANCH   3  21
ATOM     21  C   UNL d   1      51.712  33.818  53.040  0.00  0.00     0.036 A 
ATOM     22  C   UNL d   1      51.751  34.111  52.270  0.00  0.00     0.003 A 
ATOM     23  C   UNL d   1      51.054  34.337  51.881  0.00  0.00     0.000 A 
ATOM     24  C   UNL d   1      50.330  34.266  52.268  0.00  0.00     0.000 A 
ATOM     25  C   UNL d   1      50.292  33.974  53.040  0.00  0.00     0.000 A 
ATOM     26  C   UNL d   1      50.978  33.751  53.422  0.00  0.00     0.003 A 
ENDBRANCH   3  21
TORSDOF 4
ENDMDL
MODEL 3
REMARK VINA RESULT:      -9.0      0.666      2.743
REMARK  4 active torsions:
REMARK  status: ('A' for Active; 'I' for Inactive)
REMARK    1  A    between atoms: S_9  and  C_2 
REMARK    2  A    between atoms: C_11  and  C_3 
REMARK    3  A    between atoms: C_7  and  C_10 
REMARK       I    between atoms: N_8  and  C_7 
REMARK    4  A    between atoms: C_10  and  S_9 
ROOT
ATOM      1  N   UNL d   1      52.977  32.298  53.387  0.00  0.00    -0.220 NA
ATOM      2  C   UNL d   1      53.102  33.106  53.542  0.00  0.00     0.114 A 
ATOM      3  C   UNL d   1      53.392  31.735  53.818  0.00  0.00     0.163 A 
ATOM      4  N   UNL d   1      53.929  31.967  54.399  0.00  0.00    -0.227 NA
ATOM      5  C   UNL d   1      53.639  33.338  54.123  0.00  0.00     0.042 A 
ATOM      6  C   UNL d   1      54.052  32.762  54.551  0.00  0.00     0.085 A 
ATOM      7  C   UNL d   1      53.760  34.126  54.272  0.00  0.00     0.004 A 
ATOM      8  C   UNL d   1      54.582  32.986  55.125  0.00  0.00     0.019 A 
ATOM      9  C   UNL d   1      54.296  34.358  54.854  0.00  0.00     0.000 A 
ATOM     10  C   UNL d   1      54.709  33.782  55.281  0.00  0.00     0.002 A 
ENDROOT
BRANCH   2  11
ATOM     11  S   UNL d   1      52.691  33.676  53.115  0.00  0.00    -0.062 SA
BRANCH  11  12
ATOM     12  C   UNL d   1      51.877  33.646  53.061  0.00  0.00     0.098 C 
BRANCH  12  13
ATOM     13  C   UNL d   1      51.487  33.934  52.391  0.00  0.00     0.271 C 
ATOM     14  N   UNL d   1      50.722  34.231  52.448  0.00  0.00    -0.272 N 
ATOM     15  C   UNL d   1      50.341  34.515  51.783  0.00  0.00     0.083 A 
ATOM     16  C   UNL d   1      50.347  34.237  53.184  0.00  0.00     0.083 A 
ATOM     17  C   UNL d   1      49.577  34.812  51.835  0.00  0.00     0.019 A 
ATOM     18  C   UNL d   1      49.189  34.825  52.563  0.00  0.00     0.003 A 
ATOM     19  C   UNL d   1      49.578  34.536  53.233  0.00  0.00     0.019 A 
ATOM     20  O   UNL d   1      51.871  33.923  51.660  0.00  0.00    -0.266 OA
ENDBRANCH  12  13
ENDBRANCH  11  12
ENDBRANCH   2  11
BRANCH   3  21
ATOM     21  C   UNL d   1      53.273  30.937  53.670  0.00  0.00     0.036 A 
ATOM     22  C   UNL d   1      53.320  30.396  54.292  0.00  0.00     0.003 A 
ATOM     23  C   UNL d   1      53.200  29.589  54.144  0.00  0.00     0.000 A 
ATOM     24  C   UNL d   1      53.036  29.336  53.378  0.00  0.00     0.000 A 
ATOM     25  C   UNL d   1      52.989  29.877  52.756  0.00  0.00     0.000 A 
ATOM     26  C   UNL d   1      53.106  30.671  52.901  0.00  0.00     0.003 A 
ENDBRANCH   3  21
TORSDOF 4
ENDMDL
MODEL 4
REMARK VINA RESULT:      -8.8      1.269      3.766
REMARK  4 active torsions:
REMARK  status: ('A' for Active; 'I' for Inactive)
REMARK    1  A    between atoms: S_9  and  C_2 
REMARK    2  A    between atoms: C_11  and  C_3 
REMARK    3  A    between atoms: C_7  and  C_10 
REMARK       I    between atoms: N_8  and  C_7 
REMARK    4  A    between atoms: C_10  and  S_9 
ROOT
ATOM      1  N   UNL d   1      53.425  32.747  53.730  0.00  0.00    -0.220 NA
ATOM      2  C   UNL d   1      52.774  32.613  53.230  0.00  0.00     0.114 A 
ATOM      3  C   UNL d   1      53.593  33.510  53.981  0.00  0.00     0.163 A 
ATOM      4  N   UNL d   1      53.121  34.142  53.739  0.00  0.00    -0.227 NA
ATOM      5  C   UNL d   1      52.302  33.245  52.989  0.00  0.00     0.042 A 
ATOM      6  C   UNL d   1      52.480  34.011  53.247  0.00  0.00     0.085 A 
ATOM      7  C   UNL d   1      51.667  33.113  52.502  0.00  0.00     0.004 A 
ATOM      8  C   UNL d   1      52.018  34.636  53.012  0.00  0.00     0.019 A 
ATOM      9  C   UNL d   1      51.195  33.745  52.260  0.00  0.00     0.000 A 
ATOM     10  C   UNL d   1      51.374  34.510  52.519  0.00  0.00     0.002 A 
ENDROOT
BRANCH   2  11
ATOM     11  S   UNL d   1      52.599  31.852  52.975  0.00  0.00    -0.062 SA
BRANCH  11  12
ATOM     12  C   UNL d   1      52.696  31.215  53.476  0.00  0.00     0.098 C 
BRANCH  12  13
ATOM     13  C   UNL d   1      52.835  30.457  53.174  0.00  0.00     0.271 C 
ATOM     14  N   UNL d   1      53.026  29.835  53.677  0.00  0.00    -0.272 N 
ATOM     15  C   UNL d   1      53.162  29.088  53.373  0.00  0.00     0.083 A 
ATOM     16  C   UNL d   1      53.076  29.976  54.489  0.00  0.00     0.083 A 
ATOM     17  C   UNL d   1      53.352  28.464  53.871  0.00  0.00     0.019 A 
ATOM     18  C   UNL d   1      53.407  28.588  54.685  0.00  0.00     0.003 A 
ATOM     19  C   UNL d   1      53.268  29.345  54.988  0.00  0.00     0.019 A 
ATOM     20  O   UNL d   1      52.782  30.327  52.360  0.00  0.00    -0.266 OA
ENDBRANCH  12  13
ENDBRANCH  11  12
ENDBRANCH   2  11
BRANCH   3  21
ATOM     21  C   UNL d   1      54.235  33.648  54.474  0.00  0.00     0.036 A 
ATOM     22  C   UNL d   1      54.967  33.838  54.146  0.00  0.00     0.003 A 
ATOM     23  C   UNL d   1      55.616  33.978  54.644  0.00  0.00     0.000 A 
ATOM     24  C   UNL d   1      55.521  33.926  55.461  0.00  0.00     0.000 A 
ATOM     25  C   UNL d   1      54.788  33.736  55.788  0.00  0.00     0.000 A 
ATOM     26  C   UNL d   1      54.150  33.598  55.299  0.00  0.00     0.003 A 
ENDBRANCH   3  21
TORSDOF 4
ENDMDL
