MODEL 1
REMARK VINA RESULT:      -8.2      0.000      0.000
REMARK  4 active torsions:
REMARK  status: ('A' for Active; 'I' for Inactive)
REMARK    1  A    between atoms: C_11  and  C_4 
REMARK    2  A    between atoms: N_10  and  C_5 
REMARK    3  A    between atoms: C_15  and  N_10 
REMARK    4  A    between atoms: C_16  and  C_15 
ROOT
ATOM      1  N   UNL d   1     -46.962  12.533  23.178  0.00  0.00    -0.195 N 
ATOM      2  C   UNL d   1     -47.436  13.160  22.946  0.00  0.00     0.167 A 
ATOM      3  N   UNL d   1     -47.453  11.900  23.339  0.00  0.00    -0.163 NA
ATOM      4  C   UNL d   1     -48.217  12.911  22.965  0.00  0.00     0.055 A 
ATOM      5  C   UNL d   1     -46.147  12.628  23.210  0.00  0.00     0.167 A 
ATOM      6  C   UNL d   1     -48.227  12.143  23.204  0.00  0.00     0.104 A 
ATOM      7  N   UNL d   1     -47.097  13.886  22.745  0.00  0.00    -0.227 NA
ATOM      8  C   UNL d   1     -45.802  13.358  23.008  0.00  0.00     0.058 A 
ATOM      9  C   UNL d   1     -46.271  13.979  22.779  0.00  0.00     0.086 A 
ATOM     10  C   UNL d   1     -48.908  11.680  23.297  0.00  0.00     0.023 C 
ATOM     11  C   UNL d   1     -45.918  14.714  22.576  0.00  0.00     0.021 C 
ENDROOT
BRANCH   5  12
ATOM     12  N   UNL d   1     -45.668  11.994  23.445  0.00  0.00    -0.224 NA
BRANCH  12  13
ATOM     13  C   UNL d   1     -45.102  11.698  22.929  0.00  0.00     0.120 C 
BRANCH  13  14
ATOM     14  C   UNL d   1     -44.612  11.075  23.170  0.00  0.00     0.101 A 
ATOM     15  N   UNL d   1     -43.784  11.154  23.122  0.00  0.00    -0.242 NA
ATOM     16  C   UNL d   1     -43.296  10.534  23.361  0.00  0.00     0.099 A 
ATOM     17  C   UNL d   1     -43.633   9.833  23.650  0.00  0.00     0.021 A 
ATOM     18  C   UNL d   1     -44.451   9.755  23.698  0.00  0.00     0.003 A 
ATOM     19  C   UNL d   1     -44.939  10.375  23.458  0.00  0.00     0.021 A 
ENDBRANCH  13  14
ENDBRANCH  12  13
ENDBRANCH   5  12
BRANCH   4  20
ATOM     20  C   UNL d   1     -48.930  13.301  22.789  0.00  0.00     0.004 A 
ATOM     21  C   UNL d   1     -49.298  13.772  23.356  0.00  0.00     0.001 A 
ATOM     22  C   UNL d   1     -50.005  14.161  23.185  0.00  0.00     0.011 A 
ATOM     23  C   UNL d   1     -50.343  14.074  22.437  0.00  0.00     0.058 A 
ATOM     24  C   UNL d   1     -49.973  13.600  21.865  0.00  0.00     0.011 A 
ATOM     25 CL   UNL d   1     -51.063  14.470  22.264  0.00  0.00    -0.082 Cl
ATOM     26  C   UNL d   1     -49.268  13.214  22.040  0.00  0.00     0.001 A 
ENDBRANCH   4  20
TORSDOF 4
ENDMDL
MODEL 2
REMARK VINA RESULT:      -5.7      8.387     10.059
REMARK  4 active torsions:
REMARK  status: ('A' for Active; 'I' for Inactive)
REMARK    1  A    between atoms: C_11  and  C_4 
REMARK    2  A    between atoms: N_10  and  C_5 
REMARK    3  A    between atoms: C_15  and  N_10 
REMARK    4  A    between atoms: C_16  and  C_15 
ROOT
ATOM      1  N   UNL d   1     -39.453  14.281  17.484  0.00  0.00    -0.195 N 
ATOM      2  C   UNL d   1     -39.523  14.152  18.291  0.00  0.00     0.167 A 
ATOM      3  N   UNL d   1     -40.010  14.840  17.274  0.00  0.00    -0.163 NA
ATOM      4  C   UNL d   1     -40.124  14.632  18.574  0.00  0.00     0.055 A 
ATOM      5  C   UNL d   1     -38.888  13.868  17.054  0.00  0.00     0.167 A 
ATOM      6  C   UNL d   1     -40.421  15.051  17.955  0.00  0.00     0.104 A 
ATOM      7  N   UNL d   1     -39.029  13.610  18.670  0.00  0.00    -0.227 NA
ATOM      8  C   UNL d   1     -38.388  13.321  17.433  0.00  0.00     0.058 A 
ATOM      9  C   UNL d   1     -38.458  13.194  18.231  0.00  0.00     0.086 A 
ATOM     10  C   UNL d   1     -41.037  15.603  18.002  0.00  0.00     0.023 C 
ATOM     11  C   UNL d   1     -37.951  12.641  18.610  0.00  0.00     0.021 C 
ENDROOT
BRANCH   5  12
ATOM     12  N   UNL d   1     -38.816  13.999  16.238  0.00  0.00    -0.224 NA
BRANCH  12  13
ATOM     13  C   UNL d   1     -38.199  13.653  15.822  0.00  0.00     0.120 C 
BRANCH  13  14
ATOM     14  C   UNL d   1     -38.112  13.804  15.013  0.00  0.00     0.101 A 
ATOM     15  N   UNL d   1     -38.047  14.589  14.740  0.00  0.00    -0.242 NA
ATOM     16  C   UNL d   1     -37.961  14.739  13.934  0.00  0.00     0.099 A 
ATOM     17  C   UNL d   1     -37.940  14.106  13.397  0.00  0.00     0.021 A 
ATOM     18  C   UNL d   1     -38.004  13.332  13.667  0.00  0.00     0.003 A 
ATOM     19  C   UNL d   1     -38.090  13.181  14.473  0.00  0.00     0.021 A 
ENDBRANCH  13  14
ENDBRANCH  12  13
ENDBRANCH   5  12
BRANCH   4  20
ATOM     20  C   UNL d   1     -40.439  14.737  19.337  0.00  0.00     0.004 A 
ATOM     21  C   UNL d   1     -40.221  15.389  19.792  0.00  0.00     0.001 A 
ATOM     22  C   UNL d   1     -40.532  15.495  20.548  0.00  0.00     0.011 A 
ATOM     23  C   UNL d   1     -41.066  14.942  20.848  0.00  0.00     0.058 A 
ATOM     24  C   UNL d   1     -41.286  14.286  20.390  0.00  0.00     0.011 A 
ATOM     25 CL   UNL d   1     -41.381  15.052  21.619  0.00  0.00    -0.082 Cl
ATOM     26  C   UNL d   1     -40.974  14.183  19.636  0.00  0.00     0.001 A 
ENDBRANCH   4  20
TORSDOF 4
ENDMDL
MODEL 3
REMARK VINA RESULT:      -5.5      2.116      5.315
REMARK  4 active torsions:
REMARK  status: ('A' for Active; 'I' for Inactive)
REMARK    1  A    between atoms: C_11  and  C_4 
REMARK    2  A    between atoms: N_10  and  C_5 
REMARK    3  A    between atoms: C_15  and  N_10 
REMARK    4  A    between atoms: C_16  and  C_15 
ROOT
ATOM      1  N   UNL d   1     -47.471  13.472  22.924  0.00  0.00    -0.195 N 
ATOM      2  C   UNL d   1     -46.912  12.913  22.704  0.00  0.00     0.167 A 
ATOM      3  N   UNL d   1     -47.103  14.201  22.922  0.00  0.00    -0.163 NA
ATOM      4  C   UNL d   1     -46.203  13.301  22.569  0.00  0.00     0.055 A 
ATOM      5  C   UNL d   1     -48.238  13.235  23.095  0.00  0.00     0.167 A 
ATOM      6  C   UNL d   1     -46.318  14.086  22.701  0.00  0.00     0.104 A 
ATOM      7  N   UNL d   1     -47.119  12.115  22.655  0.00  0.00    -0.227 NA
ATOM      8  C   UNL d   1     -48.450  12.432  23.046  0.00  0.00     0.058 A 
ATOM      9  C   UNL d   1     -47.898  11.879  22.829  0.00  0.00     0.086 A 
ATOM     10  C   UNL d   1     -45.741  14.674  22.625  0.00  0.00     0.023 C 
ATOM     11  C   UNL d   1     -48.116  11.069  22.781  0.00  0.00     0.021 C 
ENDROOT
BRANCH   5  12
ATOM     12  N   UNL d   1     -48.803  13.800  23.316  0.00  0.00    -0.224 NA
BRANCH  12  13
ATOM     13  C   UNL d   1     -49.581  13.717  23.070  0.00  0.00     0.120 C 
BRANCH  13  14
ATOM     14  C   UNL d   1     -50.076  14.380  23.040  0.00  0.00     0.101 A 
ATOM     15  N   UNL d   1     -50.132  14.889  23.698  0.00  0.00    -0.242 NA
ATOM     16  C   UNL d   1     -50.625  15.549  23.668  0.00  0.00     0.099 A 
ATOM     17  C   UNL d   1     -51.064  15.704  22.980  0.00  0.00     0.021 A 
ATOM     18  C   UNL d   1     -51.009  15.202  22.331  0.00  0.00     0.003 A 
ATOM     19  C   UNL d   1     -50.516  14.542  22.361  0.00  0.00     0.021 A 
ENDBRANCH  13  14
ENDBRANCH  12  13
ENDBRANCH   5  12
BRANCH   4  20
ATOM     20  C   UNL d   1     -45.454  13.025  22.336  0.00  0.00     0.004 A 
ATOM     21  C   UNL d   1     -45.031  12.508  22.819  0.00  0.00     0.001 A 
ATOM     22  C   UNL d   1     -44.288  12.232  22.591  0.00  0.00     0.011 A 
ATOM     23  C   UNL d   1     -43.968  12.479  21.871  0.00  0.00     0.058 A 
ATOM     24  C   UNL d   1     -44.393  12.999  21.384  0.00  0.00     0.011 A 
ATOM     25 CL   UNL d   1     -43.212  12.197  21.641  0.00  0.00    -0.082 Cl
ATOM     26  C   UNL d   1     -45.134  13.272  21.615  0.00  0.00     0.001 A 
ENDBRANCH   4  20
TORSDOF 4
ENDMDL
MODEL 4
REMARK VINA RESULT:      -5.2      8.232      9.594
REMARK  4 active torsions:
REMARK  status: ('A' for Active; 'I' for Inactive)
REMARK    1  A    between atoms: C_11  and  C_4 
REMARK    2  A    between atoms: N_10  and  C_5 
REMARK    3  A    between atoms: C_15  and  N_10 
REMARK    4  A    between atoms: C_16  and  C_15 
ROOT
ATOM      1  N   UNL d   1     -39.270  14.000  19.488  0.00  0.00    -0.195 N 
ATOM      2  C   UNL d   1     -39.351  14.316  18.736  0.00  0.00     0.167 A 
ATOM      3  N   UNL d   1     -38.732  13.387  19.441  0.00  0.00    -0.163 NA
ATOM      4  C   UNL d   1     -38.863  13.896  18.229  0.00  0.00     0.055 A 
ATOM      5  C   UNL d   1     -39.699  14.317  20.112  0.00  0.00     0.167 A 
ATOM      6  C   UNL d   1     -38.486  13.330  18.657  0.00  0.00     0.104 A 
ATOM      7  N   UNL d   1     -39.863  14.951  18.604  0.00  0.00    -0.227 NA
ATOM      8  C   UNL d   1     -40.216  14.957  19.983  0.00  0.00     0.058 A 
ATOM      9  C   UNL d   1     -40.296  15.270  19.239  0.00  0.00     0.086 A 
ATOM     10  C   UNL d   1     -37.941  12.784  18.355  0.00  0.00     0.023 C 
ATOM     11  C   UNL d   1     -40.819  15.916  19.114  0.00  0.00     0.021 C 
ENDROOT
BRANCH   5  12
ATOM     12  N   UNL d   1     -39.617  13.998  20.872  0.00  0.00    -0.224 NA
BRANCH  12  13
ATOM     13  C   UNL d   1     -39.620  14.494  21.526  0.00  0.00     0.120 C 
BRANCH  13  14
ATOM     14  C   UNL d   1     -39.262  14.249  22.231  0.00  0.00     0.101 A 
ATOM     15  N   UNL d   1     -39.361  13.467  22.499  0.00  0.00    -0.242 NA
ATOM     16  C   UNL d   1     -39.004  13.223  23.201  0.00  0.00     0.099 A 
ATOM     17  C   UNL d   1     -38.545  13.760  23.638  0.00  0.00     0.021 A 
ATOM     18  C   UNL d   1     -38.447  14.532  23.372  0.00  0.00     0.003 A 
ATOM     19  C   UNL d   1     -38.804  14.776  22.671  0.00  0.00     0.021 A 
ENDBRANCH  13  14
ENDBRANCH  12  13
ENDBRANCH   5  12
BRANCH   4  20
ATOM     20  C   UNL d   1     -38.717  13.966  17.413  0.00  0.00     0.004 A 
ATOM     21  C   UNL d   1     -38.116  14.458  17.137  0.00  0.00     0.001 A 
ATOM     22  C   UNL d   1     -37.969  14.530  16.329  0.00  0.00     0.011 A 
ATOM     23  C   UNL d   1     -38.431  14.102  15.794  0.00  0.00     0.058 A 
ATOM     24  C   UNL d   1     -39.036  13.606  16.071  0.00  0.00     0.011 A 
ATOM     25 CL   UNL d   1     -38.280  14.176  14.972  0.00  0.00    -0.082 Cl
ATOM     26  C   UNL d   1     -39.179  13.538  16.878  0.00  0.00     0.001 A 
ENDBRANCH   4  20
TORSDOF 4
ENDMDL
