MODEL 1
REMARK VINA RESULT:      54.5      0.000      0.000
REMARK  4 active torsions:
REMARK  status: ('A' for Active; 'I' for Inactive)
REMARK    1  A    between atoms: N_3  and  S_1 
REMARK    2  A    between atoms: C_4  and  S_1 
REMARK    3  A    between atoms: S_2  and  C_5 
REMARK    4  A    between atoms: C_13  and  N_3 
ROOT
ATOM      1  N   UNL d   1     -49.829  27.678  33.308  0.00  0.00    -0.158 NA
ENDROOT
BRANCH   1   2
ATOM      2  S   UNL d   1     -49.392  27.957  33.937  0.00  0.00     0.285 S 
ATOM      3  O   UNL d   1     -49.466  27.232  34.324  0.00  0.00    -0.198 OA
ATOM      4  O   UNL d   1     -49.307  28.695  33.563  0.00  0.00    -0.198 OA
BRANCH   2   5
ATOM      5  C   UNL d   1     -48.931  28.256  34.599  0.00  0.00     0.105 A 
ATOM      6  C   UNL d   1     -48.662  29.019  34.578  0.00  0.00     0.015 A 
ATOM      7  C   UNL d   1     -48.220  29.322  35.200  0.00  0.00     0.022 A 
ATOM      8  C   UNL d   1     -48.050  28.852  35.844  0.00  0.00     0.103 A 
ATOM      9  C   UNL d   1     -48.327  28.068  35.862  0.00  0.00     0.022 A 
ATOM     10  N   UNL d   1     -47.597  29.167  36.477  0.00  0.00    -0.148 N 
ATOM     11  C   UNL d   1     -48.770  27.787  35.224  0.00  0.00     0.015 A 
ENDBRANCH   2   5
ENDBRANCH   1   2
BRANCH   1  12
ATOM     12  C   UNL d   1     -50.151  26.925  33.327  0.00  0.00     0.094 A 
ATOM     13  C   UNL d   1     -50.951  26.838  33.306  0.00  0.00     0.021 A 
ATOM     14  C   UNL d   1     -51.277  26.074  33.325  0.00  0.00     0.015 A 
ATOM     15  C   UNL d   1     -50.789  25.431  33.365  0.00  0.00     0.107 A 
ATOM     16  C   UNL d   1     -49.965  25.515  33.387  0.00  0.00     0.015 A 
ATOM     17  C   UNL d   1     -49.639  26.279  33.368  0.00  0.00     0.021 A 
BRANCH  15  18
ATOM     18  S   UNL d   1     -51.115  24.667  33.384  0.00  0.00     0.302 S 
ATOM     19  O   UNL d   1     -51.883  24.997  33.457  0.00  0.00    -0.197 OA
ATOM     20  O   UNL d   1     -50.369  24.347  33.314  0.00  0.00    -0.197 OA
ATOM     21  N   UNL d   1     -51.438  23.911  33.404  0.00  0.00    -0.043 N 
ENDBRANCH  15  18
ENDBRANCH   1  12
TORSDOF 4
ENDMDL
MODEL 2
REMARK VINA RESULT:      56.6      3.350      5.716
REMARK  4 active torsions:
REMARK  status: ('A' for Active; 'I' for Inactive)
REMARK    1  A    between atoms: N_3  and  S_1 
REMARK    2  A    between atoms: C_4  and  S_1 
REMARK    3  A    between atoms: S_2  and  C_5 
REMARK    4  A    between atoms: C_13  and  N_3 
ROOT
ATOM      1  N   UNL d   1     -47.127  30.414  35.639  0.00  0.00    -0.158 NA
ENDROOT
BRANCH   1   2
ATOM      2  S   UNL d   1     -47.598  29.751  35.595  0.00  0.00     0.285 S 
ATOM      3  O   UNL d   1     -48.093  30.050  36.184  0.00  0.00    -0.198 OA
ATOM      4  O   UNL d   1     -47.111  29.433  35.001  0.00  0.00    -0.198 OA
BRANCH   2   5
ATOM      5  C   UNL d   1     -48.092  29.049  35.545  0.00  0.00     0.105 A 
ATOM      6  C   UNL d   1     -48.146  28.655  34.841  0.00  0.00     0.015 A 
ATOM      7  C   UNL d   1     -48.612  27.983  34.773  0.00  0.00     0.022 A 
ATOM      8  C   UNL d   1     -49.025  27.709  35.421  0.00  0.00     0.103 A 
ATOM      9  C   UNL d   1     -48.968  28.116  36.143  0.00  0.00     0.022 A 
ATOM     10  N   UNL d   1     -49.501  27.021  35.346  0.00  0.00    -0.148 N 
ATOM     11  C   UNL d   1     -48.492  28.790  36.185  0.00  0.00     0.015 A 
ENDBRANCH   2   5
ENDBRANCH   1   2
BRANCH   1  12
ATOM     12  C   UNL d   1     -47.287  31.068  35.173  0.00  0.00     0.094 A 
ATOM     13  C   UNL d   1     -47.799  30.997  34.556  0.00  0.00     0.021 A 
ATOM     14  C   UNL d   1     -47.961  31.661  34.083  0.00  0.00     0.015 A 
ATOM     15  C   UNL d   1     -47.604  32.367  34.247  0.00  0.00     0.107 A 
ATOM     16  C   UNL d   1     -47.075  32.445  34.880  0.00  0.00     0.015 A 
ATOM     17  C   UNL d   1     -46.913  31.782  35.353  0.00  0.00     0.021 A 
BRANCH  15  18
ATOM     18  S   UNL d   1     -47.765  33.030  33.774  0.00  0.00     0.302 S 
ATOM     19  O   UNL d   1     -46.982  33.007  33.474  0.00  0.00    -0.197 OA
ATOM     20  O   UNL d   1     -48.526  33.053  34.066  0.00  0.00    -0.197 OA
ATOM     21  N   UNL d   1     -47.926  33.687  33.306  0.00  0.00    -0.043 N 
ENDBRANCH  15  18
ENDBRANCH   1  12
TORSDOF 4
ENDMDL
