MODEL 1
REMARK VINA RESULT:      -3.5      0.000      0.000
REMARK  5 active torsions:
REMARK  status: ('A' for Active; 'I' for Inactive)
REMARK    1  A    between atoms: C_12  and  N_3 
REMARK    2  A    between atoms: C_10  and  N_7 
REMARK    3  A    between atoms: C_11  and  C_10 
REMARK    4  A    between atoms: C_15  and  C_11 
REMARK    5  A    between atoms: C_16  and  C_12 
ROOT
ATOM      1  C   UNL d   1      33.196  18.864 -23.025  0.00  0.00     0.191 A 
ATOM      2  C   UNL d   1      33.205  19.524 -23.535  0.00  0.00     0.196 A 
ATOM      3  N   UNL d   1      33.194  18.183 -23.501  0.00  0.00    -0.191 N 
ATOM      4  N   UNL d   1      33.191  18.977 -22.216  0.00  0.00    -0.204 NA
ATOM      5  N   UNL d   1      33.209  19.235 -24.314  0.00  0.00    -0.122 NA
ATOM      6  N   UNL d   1      33.202  18.425 -24.282  0.00  0.00    -0.058 NA
ATOM      7  N   UNL d   1      33.204  20.397 -22.404  0.00  0.00    -0.251 N 
ATOM      8  C   UNL d   1      33.209  20.278 -23.221  0.00  0.00     0.289 A 
ATOM      9  C   UNL d   1      33.195  19.738 -21.894  0.00  0.00     0.187 A 
ATOM     10  O   UNL d   1      33.219  20.938 -23.731  0.00  0.00    -0.265 OA
ENDROOT
BRANCH   7  11
ATOM     11  C   UNL d   1      33.208  21.162 -22.077  0.00  0.00     0.127 C 
BRANCH  11  12
ATOM     12  C   UNL d   1      32.851  21.308 -21.339  0.00  0.00     0.213 C 
ATOM     13  O   UNL d   1      32.533  20.680 -20.906  0.00  0.00    -0.285 OA
BRANCH  12  14
ATOM     14  C   UNL d   1      32.819  22.075 -21.049  0.00  0.00     0.041 A 
ATOM     15  C   UNL d   1      33.186  22.264 -20.334  0.00  0.00     0.003 A 
ATOM     16  C   UNL d   1      33.157  23.024 -20.043  0.00  0.00     0.000 A 
ATOM     17  C   UNL d   1      32.756  23.611 -20.469  0.00  0.00     0.000 A 
ATOM     18  C   UNL d   1      32.389  23.422 -21.184  0.00  0.00     0.000 A 
ATOM     19  C   UNL d   1      32.419  22.662 -21.474  0.00  0.00     0.003 A 
ENDBRANCH  12  14
ENDBRANCH  11  12
ENDBRANCH   7  11
BRANCH   3  20
ATOM     20  C   UNL d   1      33.185  17.390 -23.232  0.00  0.00     0.104 C 
BRANCH  20  21
ATOM     21  C   UNL d   1      32.722  16.823 -23.630  0.00  0.00     0.019 A 
ATOM     22  C   UNL d   1      31.899  16.840 -23.573  0.00  0.00     0.002 A 
ATOM     23  C   UNL d   1      31.465  16.279 -23.967  0.00  0.00     0.000 A 
ATOM     24  C   UNL d   1      31.820  15.700 -24.417  0.00  0.00     0.000 A 
ATOM     25  C   UNL d   1      32.665  15.683 -24.475  0.00  0.00     0.000 A 
ATOM     26  C   UNL d   1      33.105  16.249 -24.078  0.00  0.00     0.002 A 
ENDBRANCH  20  21
ENDBRANCH   3  20
TORSDOF 5
ENDMDL
MODEL 2
REMARK VINA RESULT:      -3.0      1.002      5.558
REMARK  5 active torsions:
REMARK  status: ('A' for Active; 'I' for Inactive)
REMARK    1  A    between atoms: C_12  and  N_3 
REMARK    2  A    between atoms: C_10  and  N_7 
REMARK    3  A    between atoms: C_11  and  C_10 
REMARK    4  A    between atoms: C_15  and  C_11 
REMARK    5  A    between atoms: C_16  and  C_12 
ROOT
ATOM      1  C   UNL d   1      33.238  20.617 -22.280  0.00  0.00     0.191 A 
ATOM      2  C   UNL d   1      33.238  19.914 -21.832  0.00  0.00     0.196 A 
ATOM      3  N   UNL d   1      33.239  21.252 -21.745  0.00  0.00    -0.191 N 
ATOM      4  N   UNL d   1      33.238  20.577 -23.097  0.00  0.00    -0.204 NA
ATOM      5  N   UNL d   1      33.239  20.131 -21.030  0.00  0.00    -0.122 NA
ATOM      6  N   UNL d   1      33.239  20.941 -20.989  0.00  0.00    -0.058 NA
ATOM      7  N   UNL d   1      33.237  19.146 -23.038  0.00  0.00    -0.251 N 
ATOM      8  C   UNL d   1      33.238  19.191 -22.214  0.00  0.00     0.289 A 
ATOM      9  C   UNL d   1      33.237  19.850 -23.486  0.00  0.00     0.187 A 
ATOM     10  O   UNL d   1      33.238  18.487 -21.766  0.00  0.00    -0.265 OA
ENDROOT
BRANCH   7  11
ATOM     11  C   UNL d   1      33.237  18.414 -23.432  0.00  0.00     0.127 C 
BRANCH  11  12
ATOM     12  C   UNL d   1      32.718  18.278 -24.070  0.00  0.00     0.213 C 
ATOM     13  O   UNL d   1      32.464  18.912 -24.535  0.00  0.00    -0.285 OA
BRANCH  12  14
ATOM     14  C   UNL d   1      32.463  17.514 -24.228  0.00  0.00     0.041 A 
ATOM     15  C   UNL d   1      31.659  17.329 -24.190  0.00  0.00     0.003 A 
ATOM     16  C   UNL d   1      31.402  16.572 -24.346  0.00  0.00     0.000 A 
ATOM     17  C   UNL d   1      31.952  15.985 -24.544  0.00  0.00     0.000 A 
ATOM     18  C   UNL d   1      32.756  16.170 -24.582  0.00  0.00     0.000 A 
ATOM     19  C   UNL d   1      33.012  16.927 -24.425  0.00  0.00     0.003 A 
ENDBRANCH  12  14
ENDBRANCH  11  12
ENDBRANCH   7  11
BRANCH   3  20
ATOM     20  C   UNL d   1      33.239  22.067 -21.941  0.00  0.00     0.104 C 
BRANCH  20  21
ATOM     21  C   UNL d   1      32.888  22.617 -21.424  0.00  0.00     0.019 A 
ATOM     22  C   UNL d   1      32.209  23.028 -21.648  0.00  0.00     0.002 A 
ATOM     23  C   UNL d   1      31.881  23.561 -21.131  0.00  0.00     0.000 A 
ATOM     24  C   UNL d   1      32.205  23.700 -20.396  0.00  0.00     0.000 A 
ATOM     25  C   UNL d   1      32.903  23.277 -20.166  0.00  0.00     0.000 A 
ATOM     26  C   UNL d   1      33.235  22.739 -20.687  0.00  0.00     0.002 A 
ENDBRANCH  20  21
ENDBRANCH   3  20
TORSDOF 5
ENDMDL
