MODEL 1
REMARK VINA RESULT:      76.4      0.000      0.000
REMARK  5 active torsions:
REMARK  status: ('A' for Active; 'I' for Inactive)
REMARK    1  A    between atoms: O_8  and  S_1 
REMARK    2  A    between atoms: C_13  and  S_1 
REMARK    3  A    between atoms: C_7  and  C_2 
REMARK    4  A    between atoms: C_18  and  C_7 
REMARK    5  A    between atoms: C_14  and  O_8 
ROOT
ATOM      1  C   UNL d   1     -54.800-100.622 -41.837  0.00  0.00     0.139 A 
ATOM      2  C   UNL d   1     -54.776-100.623 -40.507  0.00  0.00     0.064 A 
ATOM      3  C   UNL d   1     -54.762-100.137 -41.170  0.00  0.00     0.220 A 
ATOM      4  C   UNL d   1     -54.822-101.408 -40.758  0.00  0.00     0.105 A 
ATOM      5  O   UNL d   1     -54.837-101.406 -41.583  0.00  0.00    -0.304 OA
ATOM      6  C   UNL d   1     -54.844-102.007 -40.206  0.00  0.00     0.050 A 
ATOM      7  C   UNL d   1     -54.751-100.448 -39.703  0.00  0.00     0.007 A 
ATOM      8  C   UNL d   1     -54.819-101.832 -39.401  0.00  0.00     0.116 A 
ATOM      9  O   UNL d   1     -54.718 -99.314 -41.178  0.00  0.00    -0.284 OA
ATOM     10  C   UNL d   1     -54.773-101.055 -39.154  0.00  0.00     0.026 A 
ENDROOT
BRANCH   8  11
ATOM     11  O   UNL d   1     -54.842-102.440 -38.848  0.00  0.00    -0.227 OA
BRANCH  11  12
ATOM     12  S   UNL d   1     -55.196-102.318 -38.113  0.00  0.00     0.304 S 
ATOM     13  O   UNL d   1     -54.713-102.874 -37.773  0.00  0.00    -0.193 OA
ATOM     14  O   UNL d   1     -55.685-101.758 -38.443  0.00  0.00    -0.193 OA
BRANCH  12  15
ATOM     15  C   UNL d   1     -55.554-102.191 -37.380  0.00  0.00     0.111 A 
ATOM     16  C   UNL d   1     -56.324-102.471 -37.239  0.00  0.00     0.013 A 
ATOM     17  C   UNL d   1     -56.682-102.345 -36.506  0.00  0.00     0.001 A 
ATOM     18  C   UNL d   1     -56.274-101.939 -35.907  0.00  0.00     0.000 A 
ATOM     19  C   UNL d   1     -55.506-101.663 -36.054  0.00  0.00     0.001 A 
ATOM     20  C   UNL d   1     -55.151-101.790 -36.788  0.00  0.00     0.013 A 
ENDBRANCH  12  15
ENDBRANCH  11  12
ENDBRANCH   8  11
BRANCH   1  21
ATOM     21  C   UNL d   1     -54.802-100.371 -42.623  0.00  0.00     0.029 C 
BRANCH  21  22
ATOM     22  C   UNL d   1     -55.052-100.880 -43.227  0.00  0.00     0.021 A 
ATOM     23  C   UNL d   1     -55.239-101.656 -43.043  0.00  0.00     0.099 A 
ATOM     24  N   UNL d   1     -55.488-102.171 -43.631  0.00  0.00    -0.242 NA
ATOM     25  C   UNL d   1     -55.551-101.901 -44.418  0.00  0.00     0.099 A 
ATOM     26  C   UNL d   1     -55.361-101.117 -44.598  0.00  0.00     0.021 A 
ATOM     27  C   UNL d   1     -55.111-100.609 -43.994  0.00  0.00     0.003 A 
ENDBRANCH  21  22
ENDBRANCH   1  21
TORSDOF 5
ENDMDL
