MODEL 1
REMARK VINA RESULT:      74.3      0.000      0.000
REMARK  4 active torsions:
REMARK  status: ('A' for Active; 'I' for Inactive)
REMARK    1  A    between atoms: C_2  and  C_1 
REMARK    2  A    between atoms: O_18  and  C_16 
REMARK    3  A    between atoms: C_17  and  C_19 
REMARK    4  A    between atoms: C_19  and  O_18 
ROOT
ATOM      1  C   UNL d   1     -51.081  25.983  34.190  0.00  0.00     0.030 A 
ATOM      2  C   UNL d   1     -51.101  26.298  34.953  0.00  0.00     0.027 A 
ATOM      3  C   UNL d   1     -50.003  26.849  33.853  0.00  0.00     0.300 A 
ATOM      4  C   UNL d   1     -50.529  26.263  33.644  0.00  0.00     0.071 A 
ATOM      5  C   UNL d   1     -50.568  26.892  35.165  0.00  0.00     0.103 A 
ATOM      6  O   UNL d   1     -50.017  27.171  34.618  0.00  0.00    -0.273 OA
ATOM      7  C   UNL d   1     -51.658  26.019  35.509  0.00  0.00     0.027 A 
ATOM      8  O   UNL d   1     -49.455  27.124  33.306  0.00  0.00    -0.259 OA
ATOM      9  C   UNL d   1     -50.589  27.207  35.927  0.00  0.00     0.027 A 
ATOM     10  C   UNL d   1     -51.668  26.337  36.258  0.00  0.00     0.100 A 
ATOM     11  C   UNL d   1     -51.137  26.932  36.474  0.00  0.00     0.027 A 
ENDROOT
BRANCH   1  12
ATOM     12  C   UNL d   1     -51.623  25.382  33.982  0.00  0.00     0.100 A 
ATOM     13  O   UNL d   1     -51.449  24.588  33.854  0.00  0.00    -0.307 OA
ATOM     14  C   UNL d   1     -52.147  24.208  33.663  0.00  0.00     0.100 A 
ATOM     15  C   UNL d   1     -52.313  23.421  33.480  0.00  0.00     0.025 A 
ATOM     16  C   UNL d   1     -52.762  24.759  33.669  0.00  0.00     0.025 A 
ATOM     17  C   UNL d   1     -53.088  23.192  33.306  0.00  0.00     0.002 A 
ATOM     18  C   UNL d   1     -53.695  23.752  33.316  0.00  0.00     0.000 A 
ATOM     19  C   UNL d   1     -53.524  24.536  33.498  0.00  0.00     0.002 A 
ATOM     20  C   UNL d   1     -52.430  25.492  33.869  0.00  0.00     0.027 A 
ENDBRANCH   1  12
BRANCH  10  21
ATOM     21  O   UNL d   1     -52.222  26.059  36.810  0.00  0.00    -0.302 OA
BRANCH  21  22
ATOM     22  C   UNL d   1     -51.971  25.805  37.542  0.00  0.00     0.165 C 
BRANCH  22  23
ATOM     23  C   UNL d   1     -52.513  25.687  38.147  0.00  0.00     0.220 C 
ATOM     24  O   UNL d   1     -53.160  25.190  38.025  0.00  0.00    -0.284 OA
ATOM     25  C   UNL d   1     -52.416  26.061  38.876  0.00  0.00     0.048 C 
ENDBRANCH  22  23
ENDBRANCH  21  22
ENDBRANCH  10  21
TORSDOF 4
ENDMDL
MODEL 2
REMARK VINA RESULT:      74.9      4.529      6.992
REMARK  4 active torsions:
REMARK  status: ('A' for Active; 'I' for Inactive)
REMARK    1  A    between atoms: C_2  and  C_1 
REMARK    2  A    between atoms: O_18  and  C_16 
REMARK    3  A    between atoms: C_17  and  C_19 
REMARK    4  A    between atoms: C_19  and  O_18 
ROOT
ATOM      1  C   UNL d   1     -47.431  30.652  35.664  0.00  0.00     0.030 A 
ATOM      2  C   UNL d   1     -47.754  29.900  35.552  0.00  0.00     0.027 A 
ATOM      3  C   UNL d   1     -46.788  30.207  36.853  0.00  0.00     0.300 A 
ATOM      4  C   UNL d   1     -46.948  30.800  36.316  0.00  0.00     0.071 A 
ATOM      5  C   UNL d   1     -47.591  29.300  36.096  0.00  0.00     0.103 A 
ATOM      6  O   UNL d   1     -47.108  29.449  36.748  0.00  0.00    -0.273 OA
ATOM      7  C   UNL d   1     -48.243  29.746  34.894  0.00  0.00     0.027 A 
ATOM      8  O   UNL d   1     -46.306  30.359  37.501  0.00  0.00    -0.259 OA
ATOM      9  C   UNL d   1     -47.914  28.550  35.983  0.00  0.00     0.027 A 
ATOM     10  C   UNL d   1     -48.556  29.001  34.794  0.00  0.00     0.100 A 
ATOM     11  C   UNL d   1     -48.395  28.398  35.335  0.00  0.00     0.027 A 
ENDROOT
BRANCH   1  12
ATOM     12  C   UNL d   1     -47.600  31.256  35.111  0.00  0.00     0.100 A 
ATOM     13  O   UNL d   1     -48.342  31.470  34.830  0.00  0.00    -0.307 OA
ATOM     14  C   UNL d   1     -48.241  32.085  34.300  0.00  0.00     0.100 A 
ATOM     15  C   UNL d   1     -48.779  32.519  33.851  0.00  0.00     0.025 A 
ATOM     16  C   UNL d   1     -47.435  32.260  34.245  0.00  0.00     0.025 A 
ATOM     17  C   UNL d   1     -48.510  33.121  33.353  0.00  0.00     0.002 A 
ATOM     18  C   UNL d   1     -47.703  33.287  33.306  0.00  0.00     0.000 A 
ATOM     19  C   UNL d   1     -47.170  32.851  33.756  0.00  0.00     0.002 A 
ATOM     20  C   UNL d   1     -47.038  31.739  34.754  0.00  0.00     0.027 A 
ENDBRANCH   1  12
BRANCH  10  21
ATOM     21  O   UNL d   1     -49.042  28.849  34.139  0.00  0.00    -0.302 OA
BRANCH  21  22
ATOM     22  C   UNL d   1     -49.264  28.084  33.969  0.00  0.00     0.165 C 
BRANCH  22  23
ATOM     23  C   UNL d   1     -49.941  27.939  33.529  0.00  0.00     0.220 C 
ATOM     24  O   UNL d   1     -50.126  27.166  33.306  0.00  0.00    -0.284 OA
ATOM     25  C   UNL d   1     -50.438  28.558  33.307  0.00  0.00     0.048 C 
ENDBRANCH  22  23
ENDBRANCH  21  22
ENDBRANCH  10  21
TORSDOF 4
ENDMDL
