MODEL 1
REMARK VINA RESULT:      73.1      0.000      0.000
REMARK  5 active torsions:
REMARK  status: ('A' for Active; 'I' for Inactive)
REMARK    1  A    between atoms: C_8  and  N_1 
REMARK    2  A    between atoms: S_4  and  C_10 
REMARK    3  A    between atoms: C_5  and  C_8 
REMARK       I    between atoms: N_9  and  C_5 
REMARK    4  A    between atoms: C_20  and  C_8 
REMARK    5  A    between atoms: C_19  and  N_9 
ROOT
ATOM      1  C   UNL d   1     -51.006  26.203  34.063  0.00  0.00     0.140 C 
ENDROOT
BRANCH   1   2
ATOM      2  C   UNL d   1     -51.233  26.758  34.630  0.00  0.00     0.344 C 
ATOM      3  N   UNL d   1     -51.441  26.507  35.382  0.00  0.00    -0.363 NA
ATOM      4  O   UNL d   1     -51.249  27.561  34.437  0.00  0.00    -0.249 OA
BRANCH   3   5
ATOM      5  C   UNL d   1     -51.653  26.285  36.139  0.00  0.00     0.135 A 
ATOM      6  C   UNL d   1     -52.388  25.947  36.301  0.00  0.00     0.033 A 
ATOM      7  C   UNL d   1     -52.589  25.727  37.070  0.00  0.00     0.016 A 
ATOM      8  C   UNL d   1     -52.042  25.851  37.683  0.00  0.00     0.107 A 
ATOM      9  C   UNL d   1     -51.308  26.188  37.521  0.00  0.00     0.016 A 
ATOM     10  C   UNL d   1     -51.115  26.405  36.748  0.00  0.00     0.033 A 
BRANCH   8  11
ATOM     11  S   UNL d   1     -52.243  25.631  38.453  0.00  0.00     0.302 S 
ATOM     12  O   UNL d   1     -51.476  25.613  38.648  0.00  0.00    -0.197 OA
ATOM     13  O   UNL d   1     -53.041  25.651  38.246  0.00  0.00    -0.197 OA
ATOM     14  N   UNL d   1     -52.447  25.413  39.217  0.00  0.00    -0.043 N 
ENDBRANCH   8  11
ENDBRANCH   3   5
ENDBRANCH   1   2
BRANCH   1  15
ATOM     15  N   UNL d   1     -51.496  25.559  33.899  0.00  0.00    -0.236 N 
ATOM     16  C   UNL d   1     -51.271  24.764  33.880  0.00  0.00     0.267 A 
ATOM     17  C   UNL d   1     -51.941  24.310  33.692  0.00  0.00     0.061 A 
ATOM     18  O   UNL d   1     -50.513  24.473  34.022  0.00  0.00    -0.267 OA
ATOM     19  C   UNL d   1     -52.062  23.493  33.595  0.00  0.00     0.005 A 
ATOM     20  C   UNL d   1     -52.586  24.832  33.595  0.00  0.00     0.061 A 
ATOM     21  C   UNL d   1     -52.805  23.202  33.405  0.00  0.00     0.000 A 
ATOM     22  C   UNL d   1     -53.440  23.722  33.310  0.00  0.00     0.000 A 
ATOM     23  C   UNL d   1     -53.331  24.532  33.404  0.00  0.00     0.005 A 
ATOM     24  C   UNL d   1     -52.312  25.604  33.723  0.00  0.00     0.267 A 
ATOM     25  O   UNL d   1     -52.765  26.286  33.682  0.00  0.00    -0.267 OA
ENDBRANCH   1  15
BRANCH   1  26
ATOM     26  C   UNL d   1     -50.298  26.295  33.668  0.00  0.00     0.022 C 
ATOM     27  C   UNL d   1     -50.108  27.007  33.306  0.00  0.00     0.002 C 
ATOM     28  C   UNL d   1     -49.766  25.666  33.632  0.00  0.00     0.002 C 
ENDBRANCH   1  26
TORSDOF 5
ENDMDL
