MODEL 1
REMARK VINA RESULT:      -5.3      0.000      0.000
REMARK  3 active torsions:
REMARK  status: ('A' for Active; 'I' for Inactive)
REMARK    1  A    between atoms: N_6  and  C_1 
REMARK    2  A    between atoms: C_14  and  N_4 
REMARK    3  A    between atoms: C_9  and  N_6 
ROOT
ATOM      1  C   UNL d   1     -41.307-122.364 -52.252  0.00  0.00     0.157 A 
ATOM      2  C   UNL d   1     -41.517-121.878 -52.882  0.00  0.00     0.298 A 
ATOM      3  N   UNL d   1     -41.513-123.148 -53.301  0.00  0.00    -0.238 N 
ATOM      4  N   UNL d   1     -41.645-122.370 -53.539  0.00  0.00    -0.209 N 
ATOM      5  C   UNL d   1     -41.302-123.145 -52.496  0.00  0.00     0.104 A 
ATOM      6  O   UNL d   1     -41.589-121.056 -52.876  0.00  0.00    -0.263 OA
ATOM      7  C   UNL d   1     -41.581-123.817 -53.786  0.00  0.00     0.120 C 
ATOM      8  C   UNL d   1     -41.123-123.801 -52.039  0.00  0.00     0.022 C 
ENDROOT
BRANCH   1   9
ATOM      9  N   UNL d   1     -41.129-122.098 -51.482  0.00  0.00    -0.239 NA
BRANCH   9  10
ATOM     10  C   UNL d   1     -41.627-122.292 -50.850  0.00  0.00     0.082 A 
ATOM     11  C   UNL d   1     -42.415-122.019 -50.841  0.00  0.00     0.022 A 
ATOM     12  C   UNL d   1     -42.903-122.212 -50.218  0.00  0.00     0.041 A 
ATOM     13  C   UNL d   1     -43.687-121.941 -50.207  0.00  0.00     0.003 C 
ATOM     14  C   UNL d   1     -42.625-122.680 -49.587  0.00  0.00     0.196 A 
ATOM     15  C   UNL d   1     -41.844-122.948 -49.600  0.00  0.00     0.041 A 
ATOM     16  O   UNL d   1     -43.124-122.874 -48.955  0.00  0.00    -0.287 OA
ATOM     17  C   UNL d   1     -41.351-122.753 -50.230  0.00  0.00     0.022 A 
ATOM     18  C   UNL d   1     -41.576-123.409 -48.975  0.00  0.00     0.003 C 
ENDBRANCH   9  10
ENDBRANCH   1   9
BRANCH   4  19
ATOM     19  C   UNL d   1     -41.866-122.123 -54.294  0.00  0.00     0.085 A 
ATOM     20  C   UNL d   1     -42.625-121.848 -54.433  0.00  0.00     0.019 A 
ATOM     21  C   UNL d   1     -42.851-121.599 -55.190  0.00  0.00     0.002 A 
ATOM     22  C   UNL d   1     -42.306-121.628 -55.810  0.00  0.00     0.000 A 
ATOM     23  C   UNL d   1     -41.544-121.903 -55.672  0.00  0.00     0.002 A 
ATOM     24  C   UNL d   1     -41.316-122.154 -54.912  0.00  0.00     0.019 A 
ENDBRANCH   4  19
TORSDOF 3
ENDMDL
MODEL 2
REMARK VINA RESULT:      -2.4      1.284      4.490
REMARK  3 active torsions:
REMARK  status: ('A' for Active; 'I' for Inactive)
REMARK    1  A    between atoms: N_6  and  C_1 
REMARK    2  A    between atoms: C_14  and  N_4 
REMARK    3  A    between atoms: C_9  and  N_6 
ROOT
ATOM      1  C   UNL d   1     -41.468-122.408 -51.996  0.00  0.00     0.157 A 
ATOM      2  C   UNL d   1     -41.775-123.007 -51.523  0.00  0.00     0.298 A 
ATOM      3  N   UNL d   1     -41.923-121.839 -50.888  0.00  0.00    -0.238 N 
ATOM      4  N   UNL d   1     -42.060-122.649 -50.829  0.00  0.00    -0.209 N 
ATOM      5  C   UNL d   1     -41.553-121.687 -51.618  0.00  0.00     0.104 A 
ATOM      6  O   UNL d   1     -41.801-123.814 -51.693  0.00  0.00    -0.263 OA
ATOM      7  C   UNL d   1     -42.123-121.274 -50.315  0.00  0.00     0.120 C 
ATOM      8  C   UNL d   1     -41.320-120.954 -51.901  0.00  0.00     0.022 C 
ENDROOT
BRANCH   1   9
ATOM      9  N   UNL d   1     -41.124-122.522 -52.747  0.00  0.00    -0.239 NA
BRANCH   9  10
ATOM     10  C   UNL d   1     -41.589-122.464 -53.429  0.00  0.00     0.082 A 
ATOM     11  C   UNL d   1     -41.768-123.147 -53.871  0.00  0.00     0.022 A 
ATOM     12  C   UNL d   1     -42.226-123.086 -54.543  0.00  0.00     0.041 A 
ATOM     13  C   UNL d   1     -42.406-123.765 -54.984  0.00  0.00     0.003 C 
ATOM     14  C   UNL d   1     -42.519-122.348 -54.795  0.00  0.00     0.196 A 
ATOM     15  C   UNL d   1     -42.338-121.673 -54.354  0.00  0.00     0.041 A 
ATOM     16  O   UNL d   1     -42.984-122.290 -55.477  0.00  0.00    -0.287 OA
ATOM     17  C   UNL d   1     -41.875-121.734 -53.675  0.00  0.00     0.022 A 
ATOM     18  C   UNL d   1     -42.629-120.948 -54.607  0.00  0.00     0.003 C 
ENDBRANCH   9  10
ENDBRANCH   1   9
BRANCH   4  19
ATOM     19  C   UNL d   1     -42.416-123.038 -50.194  0.00  0.00     0.085 A 
ATOM     20  C   UNL d   1     -41.957-123.423 -49.636  0.00  0.00     0.019 A 
ATOM     21  C   UNL d   1     -42.311-123.814 -48.997  0.00  0.00     0.002 A 
ATOM     22  C   UNL d   1     -43.133-123.816 -48.923  0.00  0.00     0.000 A 
ATOM     23  C   UNL d   1     -43.595-123.430 -49.482  0.00  0.00     0.002 A 
ATOM     24  C   UNL d   1     -43.241-123.036 -50.125  0.00  0.00     0.019 A 
ENDBRANCH   4  19
TORSDOF 3
ENDMDL
