MODEL 1
REMARK VINA RESULT:      -4.2      0.000      0.000
REMARK  2 active torsions:
REMARK  status: ('A' for Active; 'I' for Inactive)
REMARK    1  A    between atoms: C_8  and  C_1 
REMARK    2  A    between atoms: N_5  and  C_8 
ROOT
ATOM      1  C   UNL d   1     -41.789-122.239 -51.087  0.00  0.00     0.059 A 
ATOM      2  C   UNL d   1     -42.851-122.543 -50.194  0.00  0.00     0.121 A 
ATOM      3  C   UNL d   1     -42.554-122.114 -50.817  0.00  0.00     0.214 A 
ATOM      4  C   UNL d   1     -42.377-123.116 -49.824  0.00  0.00     0.032 A 
ATOM      5  C   UNL d   1     -41.613-123.249 -50.085  0.00  0.00     0.059 A 
ATOM      6  C   UNL d   1     -41.321-122.804 -50.723  0.00  0.00     0.016 A 
ATOM      7  N   UNL d   1     -43.613-122.417 -49.926  0.00  0.00    -0.241 NA
ATOM      8 CL   UNL d   1     -41.143-123.817 -49.719  0.00  0.00    -0.082 Cl
ATOM      9  O   UNL d   1     -43.029-121.540 -51.186  0.00  0.00    -0.285 OA
ATOM     10  C   UNL d   1     -42.680-123.544 -49.200  0.00  0.00     0.004 A 
ATOM     11  C   UNL d   1     -43.917-122.848 -49.297  0.00  0.00     0.099 A 
ATOM     12  C   UNL d   1     -43.449-123.413 -48.933  0.00  0.00     0.021 A 
ENDROOT
BRANCH   1  13
ATOM     13  C   UNL d   1     -41.486-121.797 -51.727  0.00  0.00     0.084 C 
BRANCH  13  14
ATOM     14  N   UNL d   1     -41.496-122.118 -52.493  0.00  0.00    -0.302 N 
ATOM     15  C   UNL d   1     -41.865-121.713 -53.095  0.00  0.00     0.080 A 
ATOM     16  C   UNL d   1     -41.874-122.035 -53.862  0.00  0.00     0.018 A 
ATOM     17  C   UNL d   1     -42.248-121.627 -54.474  0.00  0.00     0.002 A 
ATOM     18  C   UNL d   1     -41.508-122.763 -54.008  0.00  0.00     0.003 A 
ATOM     19  C   UNL d   1     -42.258-121.950 -55.245  0.00  0.00     0.000 A 
ATOM     20  C   UNL d   1     -41.893-122.675 -55.392  0.00  0.00     0.000 A 
ATOM     21  C   UNL d   1     -41.523-123.076 -54.783  0.00  0.00     0.000 A 
ATOM     22  C   UNL d   1     -41.143-123.157 -53.402  0.00  0.00     0.019 A 
ATOM     23  C   UNL d   1     -41.127-122.846 -52.630  0.00  0.00     0.080 A 
ENDBRANCH  13  14
ENDBRANCH   1  13
TORSDOF 2
ENDMDL
MODEL 2
REMARK VINA RESULT:      -4.1      1.507      4.672
REMARK  2 active torsions:
REMARK  status: ('A' for Active; 'I' for Inactive)
REMARK    1  A    between atoms: C_8  and  C_1 
REMARK    2  A    between atoms: N_5  and  C_8 
ROOT
ATOM      1  C   UNL d   1     -41.218-122.810 -51.229  0.00  0.00     0.059 A 
ATOM      2  C   UNL d   1     -41.476-122.438 -52.576  0.00  0.00     0.121 A 
ATOM      3  C   UNL d   1     -41.383-123.012 -52.007  0.00  0.00     0.214 A 
ATOM      4  C   UNL d   1     -41.403-121.637 -52.369  0.00  0.00     0.032 A 
ATOM      5  C   UNL d   1     -41.239-121.424 -51.597  0.00  0.00     0.059 A 
ATOM      6  C   UNL d   1     -41.146-122.020 -51.025  0.00  0.00     0.016 A 
ATOM      7  N   UNL d   1     -41.640-122.641 -53.350  0.00  0.00    -0.241 NA
ATOM      8 CL   UNL d   1     -41.166-120.630 -51.392  0.00  0.00    -0.082 Cl
ATOM      9  O   UNL d   1     -41.456-123.814 -52.214  0.00  0.00    -0.285 OA
ATOM     10  C   UNL d   1     -41.497-121.066 -52.943  0.00  0.00     0.004 A 
ATOM     11  C   UNL d   1     -41.735-122.066 -53.927  0.00  0.00     0.099 A 
ATOM     12  C   UNL d   1     -41.663-121.276 -53.723  0.00  0.00     0.021 A 
ENDROOT
BRANCH   1  13
ATOM     13  C   UNL d   1     -41.123-123.400 -50.647  0.00  0.00     0.084 C 
BRANCH  13  14
ATOM     14  N   UNL d   1     -41.537-123.345 -49.929  0.00  0.00    -0.302 N 
ATOM     15  C   UNL d   1     -41.126-123.306 -49.228  0.00  0.00     0.080 A 
ATOM     16  C   UNL d   1     -41.541-123.251 -48.509  0.00  0.00     0.018 A 
ATOM     17  C   UNL d   1     -41.127-123.212 -47.797  0.00  0.00     0.002 A 
ATOM     18  C   UNL d   1     -42.369-123.236 -48.513  0.00  0.00     0.003 A 
ATOM     19  C   UNL d   1     -41.544-123.156 -47.075  0.00  0.00     0.000 A 
ATOM     20  C   UNL d   1     -42.368-123.141 -47.076  0.00  0.00     0.000 A 
ATOM     21  C   UNL d   1     -42.776-123.180 -47.784  0.00  0.00     0.000 A 
ATOM     22  C   UNL d   1     -42.769-123.274 -49.216  0.00  0.00     0.019 A 
ATOM     23  C   UNL d   1     -42.365-123.330 -49.942  0.00  0.00     0.080 A 
ENDBRANCH  13  14
ENDBRANCH   1  13
TORSDOF 2
ENDMDL
MODEL 3
REMARK VINA RESULT:      -2.5      1.556      2.182
REMARK  2 active torsions:
REMARK  status: ('A' for Active; 'I' for Inactive)
REMARK    1  A    between atoms: C_8  and  C_1 
REMARK    2  A    between atoms: N_5  and  C_8 
ROOT
ATOM      1  C   UNL d   1     -42.279-122.454 -49.403  0.00  0.00     0.059 A 
ATOM      2  C   UNL d   1     -42.209-122.904 -48.057  0.00  0.00     0.121 A 
ATOM      3  C   UNL d   1     -41.912-122.459 -48.669  0.00  0.00     0.214 A 
ATOM      4  C   UNL d   1     -42.892-123.361 -48.174  0.00  0.00     0.032 A 
ATOM      5  C   UNL d   1     -43.266-123.364 -48.901  0.00  0.00     0.059 A 
ATOM      6  C   UNL d   1     -42.953-122.905 -49.519  0.00  0.00     0.016 A 
ATOM      7  N   UNL d   1     -41.842-122.907 -47.327  0.00  0.00    -0.241 NA
ATOM      8 CL   UNL d   1     -43.944-123.817 -49.017  0.00  0.00    -0.082 Cl
ATOM      9  O   UNL d   1     -41.227-122.001 -48.552  0.00  0.00    -0.285 OA
ATOM     10  C   UNL d   1     -43.186-123.805 -47.557  0.00  0.00     0.004 A 
ATOM     11  C   UNL d   1     -42.138-123.355 -46.706  0.00  0.00     0.099 A 
ATOM     12  C   UNL d   1     -42.812-123.805 -46.821  0.00  0.00     0.021 A 
ENDROOT
BRANCH   1  13
ATOM     13  C   UNL d   1     -41.972-121.997 -50.030  0.00  0.00     0.084 C 
BRANCH  13  14
ATOM     14  N   UNL d   1     -41.759-122.363 -50.745  0.00  0.00    -0.302 N 
ATOM     15  C   UNL d   1     -41.826-121.951 -51.444  0.00  0.00     0.080 A 
ATOM     16  C   UNL d   1     -41.613-122.317 -52.160  0.00  0.00     0.018 A 
ATOM     17  C   UNL d   1     -41.679-121.902 -52.869  0.00  0.00     0.002 A 
ATOM     18  C   UNL d   1     -41.335-123.098 -52.155  0.00  0.00     0.003 A 
ATOM     19  C   UNL d   1     -41.465-122.271 -53.589  0.00  0.00     0.000 A 
ATOM     20  C   UNL d   1     -41.188-123.047 -53.586  0.00  0.00     0.000 A 
ATOM     21  C   UNL d   1     -41.124-123.456 -52.881  0.00  0.00     0.000 A 
ATOM     22  C   UNL d   1     -41.273-123.498 -51.454  0.00  0.00     0.019 A 
ATOM     23  C   UNL d   1     -41.483-123.143 -50.732  0.00  0.00     0.080 A 
ENDBRANCH  13  14
ENDBRANCH   1  13
TORSDOF 2
ENDMDL
