MODEL 1
REMARK VINA RESULT:     -10.7      0.000      0.000
REMARK  3 active torsions:
REMARK  status: ('A' for Active; 'I' for Inactive)
REMARK    1  A    between atoms: S_3  and  C_1 
REMARK    2  A    between atoms: C_7  and  N_2 
REMARK    3  A    between atoms: C_11  and  C_7 
ROOT
ATOM      1  C   UNL d   1      52.550  31.991  53.028  0.00  0.00     0.255 A 
ATOM      2  N   UNL d   1      53.046  32.618  53.155  0.00  0.00    -0.278 N 
ATOM      3  N   UNL d   1      51.797  32.255  52.915  0.00  0.00    -0.215 NA
ATOM      4  C   UNL d   1      52.585  33.315  53.121  0.00  0.00     0.084 A 
ATOM      5  C   UNL d   1      51.806  33.089  52.971  0.00  0.00     0.100 A 
ATOM      6  C   UNL d   1      52.775  34.114  53.206  0.00  0.00     0.019 A 
ATOM      7  C   UNL d   1      51.215  33.661  52.906  0.00  0.00     0.021 A 
ATOM      8  C   UNL d   1      52.183  34.686  53.141  0.00  0.00     0.002 A 
ATOM      9  C   UNL d   1      51.404  34.460  52.991  0.00  0.00     0.002 A 
ENDROOT
BRANCH   2  10
ATOM     10  C   UNL d   1      53.865  32.598  53.295  0.00  0.00     0.082 C 
BRANCH  10  11
ATOM     11  C   UNL d   1      54.168  32.852  54.011  0.00  0.00     0.018 A 
ATOM     12  C   UNL d   1      54.757  33.438  54.039  0.00  0.00     0.002 A 
ATOM     13  C   UNL d   1      55.063  33.695  54.753  0.00  0.00     0.000 A 
ATOM     14  C   UNL d   1      54.792  33.378  55.451  0.00  0.00     0.000 A 
ATOM     15  C   UNL d   1      54.201  32.791  55.428  0.00  0.00     0.000 A 
ATOM     16  C   UNL d   1      53.897  32.536  54.712  0.00  0.00     0.002 A 
ENDBRANCH  10  11
ENDBRANCH   2  10
BRANCH   1  17
ATOM     17  S   UNL d   1      52.783  31.199  53.016  0.00  0.00     0.174 S 
ATOM     18  O   UNL d   1      52.393  31.075  53.733  0.00  0.00    -0.589 OA
ATOM     19  O   UNL d   1      53.015  30.408  53.005  0.00  0.00    -0.589 OA
ATOM     20  O   UNL d   1      53.173  31.324  52.299  0.00  0.00    -0.589 OA
ENDBRANCH   1  17
TORSDOF 3
ENDMDL
MODEL 2
REMARK VINA RESULT:     -10.3      1.483      2.353
REMARK  3 active torsions:
REMARK  status: ('A' for Active; 'I' for Inactive)
REMARK    1  A    between atoms: S_3  and  C_1 
REMARK    2  A    between atoms: C_7  and  N_2 
REMARK    3  A    between atoms: C_11  and  C_7 
ROOT
ATOM      1  C   UNL d   1      52.200  32.671  53.006  0.00  0.00     0.255 A 
ATOM      2  N   UNL d   1      52.990  32.570  53.149  0.00  0.00    -0.278 N 
ATOM      3  N   UNL d   1      51.832  31.954  52.980  0.00  0.00    -0.215 NA
ATOM      4  C   UNL d   1      53.131  31.749  53.217  0.00  0.00     0.084 A 
ATOM      5  C   UNL d   1      52.409  31.365  53.112  0.00  0.00     0.100 A 
ATOM      6  C   UNL d   1      53.816  31.310  53.359  0.00  0.00     0.019 A 
ATOM      7  C   UNL d   1      52.370  30.541  53.149  0.00  0.00     0.021 A 
ATOM      8  C   UNL d   1      53.777  30.486  53.396  0.00  0.00     0.002 A 
ATOM      9  C   UNL d   1      53.054  30.102  53.291  0.00  0.00     0.002 A 
ENDROOT
BRANCH   2  10
ATOM     10  C   UNL d   1      53.573  33.158  53.219  0.00  0.00     0.082 C 
BRANCH  10  11
ATOM     11  C   UNL d   1      53.947  33.286  53.935  0.00  0.00     0.018 A 
ATOM     12  C   UNL d   1      54.772  33.216  54.001  0.00  0.00     0.002 A 
ATOM     13  C   UNL d   1      55.151  33.343  54.715  0.00  0.00     0.000 A 
ATOM     14  C   UNL d   1      54.720  33.542  55.376  0.00  0.00     0.000 A 
ATOM     15  C   UNL d   1      53.892  33.614  55.313  0.00  0.00     0.000 A 
ATOM     16  C   UNL d   1      53.517  33.486  54.597  0.00  0.00     0.002 A 
ENDBRANCH  10  11
ENDBRANCH   2  10
BRANCH   1  17
ATOM     17  S   UNL d   1      51.828  33.400  52.903  0.00  0.00     0.174 S 
ATOM     18  O   UNL d   1      52.225  33.502  52.187  0.00  0.00    -0.589 OA
ATOM     19  O   UNL d   1      51.455  34.129  52.799  0.00  0.00    -0.589 OA
ATOM     20  O   UNL d   1      51.430  33.299  53.620  0.00  0.00    -0.589 OA
ENDBRANCH   1  17
TORSDOF 3
ENDMDL
MODEL 3
REMARK VINA RESULT:     -10.1      0.717      2.697
REMARK  3 active torsions:
REMARK  status: ('A' for Active; 'I' for Inactive)
REMARK    1  A    between atoms: S_3  and  C_1 
REMARK    2  A    between atoms: C_7  and  N_2 
REMARK    3  A    between atoms: C_11  and  C_7 
ROOT
ATOM      1  C   UNL d   1      53.249  31.830  53.485  0.00  0.00     0.255 A 
ATOM      2  N   UNL d   1      53.129  32.617  53.341  0.00  0.00    -0.278 N 
ATOM      3  N   UNL d   1      53.680  31.736  54.160  0.00  0.00    -0.215 NA
ATOM      4  C   UNL d   1      53.502  33.046  53.955  0.00  0.00     0.084 A 
ATOM      5  C   UNL d   1      53.845  32.496  54.466  0.00  0.00     0.100 A 
ATOM      6  C   UNL d   1      53.570  33.853  54.111  0.00  0.00     0.019 A 
ATOM      7  C   UNL d   1      54.257  32.754  55.133  0.00  0.00     0.021 A 
ATOM      8  C   UNL d   1      53.982  34.111  54.778  0.00  0.00     0.002 A 
ATOM      9  C   UNL d   1      54.326  33.561  55.289  0.00  0.00     0.002 A 
ENDROOT
BRANCH   2  10
ATOM     10  C   UNL d   1      52.716  32.961  52.708  0.00  0.00     0.082 C 
BRANCH  10  11
ATOM     11  C   UNL d   1      52.015  33.361  52.840  0.00  0.00     0.018 A 
ATOM     12  C   UNL d   1      51.926  34.152  52.602  0.00  0.00     0.002 A 
ATOM     13  C   UNL d   1      51.226  34.557  52.732  0.00  0.00     0.000 A 
ATOM     14  C   UNL d   1      50.603  34.185  53.100  0.00  0.00     0.000 A 
ATOM     15  C   UNL d   1      50.688  33.391  53.340  0.00  0.00     0.000 A 
ATOM     16  C   UNL d   1      51.389  32.990  53.208  0.00  0.00     0.002 A 
ENDBRANCH  10  11
ENDBRANCH   2  10
BRANCH   1  17
ATOM     17  S   UNL d   1      52.972  31.215  53.010  0.00  0.00     0.174 S 
ATOM     18  O   UNL d   1      53.455  31.474  52.393  0.00  0.00    -0.589 OA
ATOM     19  O   UNL d   1      52.695  30.600  52.535  0.00  0.00    -0.589 OA
ATOM     20  O   UNL d   1      52.489  30.956  53.627  0.00  0.00    -0.589 OA
ENDBRANCH   1  17
TORSDOF 3
ENDMDL
MODEL 4
REMARK VINA RESULT:     -10.1      2.441      3.803
REMARK  3 active torsions:
REMARK  status: ('A' for Active; 'I' for Inactive)
REMARK    1  A    between atoms: S_3  and  C_1 
REMARK    2  A    between atoms: C_7  and  N_2 
REMARK    3  A    between atoms: C_11  and  C_7 
ROOT
ATOM      1  C   UNL d   1      53.340  34.796  54.505  0.00  0.00     0.255 A 
ATOM      2  N   UNL d   1      53.155  34.419  53.813  0.00  0.00    -0.278 N 
ATOM      3  N   UNL d   1      53.689  34.277  55.015  0.00  0.00    -0.215 NA
ATOM      4  C   UNL d   1      53.399  33.623  53.886  0.00  0.00     0.084 A 
ATOM      5  C   UNL d   1      53.732  33.534  54.636  0.00  0.00     0.100 A 
ATOM      6  C   UNL d   1      53.360  32.978  53.373  0.00  0.00     0.019 A 
ATOM      7  C   UNL d   1      54.026  32.801  54.873  0.00  0.00     0.021 A 
ATOM      8  C   UNL d   1      53.655  32.244  53.610  0.00  0.00     0.002 A 
ATOM      9  C   UNL d   1      53.987  32.156  54.360  0.00  0.00     0.002 A 
ENDROOT
BRANCH   2  10
ATOM     10  C   UNL d   1      52.791  34.744  53.141  0.00  0.00     0.082 C 
BRANCH  10  11
ATOM     11  C   UNL d   1      52.038  34.508  52.924  0.00  0.00     0.018 A 
ATOM     12  C   UNL d   1      51.404  34.570  53.458  0.00  0.00     0.002 A 
ATOM     13  C   UNL d   1      50.649  34.335  53.246  0.00  0.00     0.000 A 
ATOM     14  C   UNL d   1      50.509  34.036  52.503  0.00  0.00     0.000 A 
ATOM     15  C   UNL d   1      51.142  33.973  51.964  0.00  0.00     0.000 A 
ATOM     16  C   UNL d   1      51.895  34.208  52.180  0.00  0.00     0.002 A 
ENDBRANCH  10  11
ENDBRANCH   2  10
BRANCH   1  17
ATOM     17  S   UNL d   1      53.192  35.592  54.665  0.00  0.00     0.174 S 
ATOM     18  O   UNL d   1      52.676  35.375  55.271  0.00  0.00    -0.589 OA
ATOM     19  O   UNL d   1      53.045  36.388  54.824  0.00  0.00    -0.589 OA
ATOM     20  O   UNL d   1      53.709  35.809  54.058  0.00  0.00    -0.589 OA
ENDBRANCH   1  17
TORSDOF 3
ENDMDL
MODEL 5
REMARK VINA RESULT:     -10.0      1.787      3.147
REMARK  3 active torsions:
REMARK  status: ('A' for Active; 'I' for Inactive)
REMARK    1  A    between atoms: S_3  and  C_1 
REMARK    2  A    between atoms: C_7  and  N_2 
REMARK    3  A    between atoms: C_11  and  C_7 
ROOT
ATOM      1  C   UNL d   1      54.000  32.677  54.339  0.00  0.00     0.255 A 
ATOM      2  N   UNL d   1      53.575  32.745  53.654  0.00  0.00    -0.278 N 
ATOM      3  N   UNL d   1      54.040  31.903  54.562  0.00  0.00    -0.215 NA
ATOM      4  C   UNL d   1      53.333  31.976  53.429  0.00  0.00     0.084 A 
ATOM      5  C   UNL d   1      53.624  31.451  53.996  0.00  0.00     0.100 A 
ATOM      6  C   UNL d   1      52.893  31.694  52.792  0.00  0.00     0.019 A 
ATOM      7  C   UNL d   1      53.474  30.643  53.925  0.00  0.00     0.021 A 
ATOM      8  C   UNL d   1      52.743  30.885  52.721  0.00  0.00     0.002 A 
ATOM      9  C   UNL d   1      53.033  30.360  53.287  0.00  0.00     0.002 A 
ENDROOT
BRANCH   2  10
ATOM     10  C   UNL d   1      53.399  33.439  53.232  0.00  0.00     0.082 C 
BRANCH  10  11
ATOM     11  C   UNL d   1      52.625  33.693  53.160  0.00  0.00     0.018 A 
ATOM     12  C   UNL d   1      52.292  33.835  52.412  0.00  0.00     0.002 A 
ATOM     13  C   UNL d   1      51.518  34.090  52.336  0.00  0.00     0.000 A 
ATOM     14  C   UNL d   1      51.060  34.209  52.997  0.00  0.00     0.000 A 
ATOM     15  C   UNL d   1      51.390  34.068  53.750  0.00  0.00     0.000 A 
ATOM     16  C   UNL d   1      52.165  33.813  53.822  0.00  0.00     0.002 A 
ENDBRANCH  10  11
ENDBRANCH   2  10
BRANCH   1  17
ATOM     17  S   UNL d   1      54.341  33.308  54.748  0.00  0.00     0.174 S 
ATOM     18  O   UNL d   1      53.783  33.218  55.350  0.00  0.00    -0.589 OA
ATOM     19  O   UNL d   1      54.682  33.938  55.157  0.00  0.00    -0.589 OA
ATOM     20  O   UNL d   1      54.899  33.397  54.146  0.00  0.00    -0.589 OA
ENDBRANCH   1  17
TORSDOF 3
ENDMDL
MODEL 6
REMARK VINA RESULT:      -9.9      1.636      2.879
REMARK  3 active torsions:
REMARK  status: ('A' for Active; 'I' for Inactive)
REMARK    1  A    between atoms: S_3  and  C_1 
REMARK    2  A    between atoms: C_7  and  N_2 
REMARK    3  A    between atoms: C_11  and  C_7 
ROOT
ATOM      1  C   UNL d   1      52.302  33.532  53.494  0.00  0.00     0.255 A 
ATOM      2  N   UNL d   1      52.892  32.992  53.367  0.00  0.00    -0.278 N 
ATOM      3  N   UNL d   1      52.494  34.006  54.118  0.00  0.00    -0.215 NA
ATOM      4  C   UNL d   1      53.488  33.129  53.938  0.00  0.00     0.084 A 
ATOM      5  C   UNL d   1      53.239  33.761  54.406  0.00  0.00     0.100 A 
ATOM      6  C   UNL d   1      54.212  32.765  54.087  0.00  0.00     0.019 A 
ATOM      7  C   UNL d   1      53.715  34.029  55.024  0.00  0.00     0.021 A 
ATOM      8  C   UNL d   1      54.689  33.032  54.705  0.00  0.00     0.002 A 
ATOM      9  C   UNL d   1      54.441  33.664  55.174  0.00  0.00     0.002 A 
ENDROOT
BRANCH   2  10
ATOM     10  C   UNL d   1      52.922  32.402  52.783  0.00  0.00     0.082 C 
BRANCH  10  11
ATOM     11  C   UNL d   1      52.894  31.612  52.993  0.00  0.00     0.018 A 
ATOM     12  C   UNL d   1      53.574  31.136  52.947  0.00  0.00     0.002 A 
ATOM     13  C   UNL d   1      53.551  30.344  53.155  0.00  0.00     0.000 A 
ATOM     14  C   UNL d   1      52.855  30.011  53.413  0.00  0.00     0.000 A 
ATOM     15  C   UNL d   1      52.171  30.485  53.460  0.00  0.00     0.000 A 
ATOM     16  C   UNL d   1      52.198  31.276  53.251  0.00  0.00     0.002 A 
ENDBRANCH  10  11
ENDBRANCH   2  10
BRANCH   1  17
ATOM     17  S   UNL d   1      51.609  33.588  53.051  0.00  0.00     0.174 S 
ATOM     18  O   UNL d   1      52.044  33.862  52.405  0.00  0.00    -0.589 OA
ATOM     19  O   UNL d   1      50.915  33.644  52.608  0.00  0.00    -0.589 OA
ATOM     20  O   UNL d   1      51.174  33.313  53.697  0.00  0.00    -0.589 OA
ENDBRANCH   1  17
TORSDOF 3
ENDMDL
MODEL 7
REMARK VINA RESULT:      -9.7      1.838      2.571
REMARK  3 active torsions:
REMARK  status: ('A' for Active; 'I' for Inactive)
REMARK    1  A    between atoms: S_3  and  C_1 
REMARK    2  A    between atoms: C_7  and  N_2 
REMARK    3  A    between atoms: C_11  and  C_7 
ROOT
ATOM      1  C   UNL d   1      53.700  33.443  54.383  0.00  0.00     0.255 A 
ATOM      2  N   UNL d   1      53.512  33.000  53.733  0.00  0.00    -0.278 N 
ATOM      3  N   UNL d   1      53.150  34.024  54.488  0.00  0.00    -0.215 NA
ATOM      4  C   UNL d   1      52.808  33.313  53.408  0.00  0.00     0.084 A 
ATOM      5  C   UNL d   1      52.582  33.952  53.879  0.00  0.00     0.100 A 
ATOM      6  C   UNL d   1      52.353  33.101  52.754  0.00  0.00     0.019 A 
ATOM      7  C   UNL d   1      51.901  34.379  53.696  0.00  0.00     0.021 A 
ATOM      8  C   UNL d   1      51.671  33.528  52.570  0.00  0.00     0.002 A 
ATOM      9  C   UNL d   1      51.445  34.167  53.041  0.00  0.00     0.002 A 
ENDROOT
BRANCH   2  10
ATOM     10  C   UNL d   1      53.927  32.348  53.426  0.00  0.00     0.082 C 
BRANCH  10  11
ATOM     11  C   UNL d   1      53.599  31.600  53.454  0.00  0.00     0.018 A 
ATOM     12  C   UNL d   1      53.336  31.225  52.761  0.00  0.00     0.002 A 
ATOM     13  C   UNL d   1      53.007  30.475  52.784  0.00  0.00     0.000 A 
ATOM     14  C   UNL d   1      52.934  30.084  53.493  0.00  0.00     0.000 A 
ATOM     15  C   UNL d   1      53.197  30.456  54.191  0.00  0.00     0.000 A 
ATOM     16  C   UNL d   1      53.525  31.206  54.164  0.00  0.00     0.002 A 
ENDBRANCH  10  11
ENDBRANCH   2  10
BRANCH   1  17
ATOM     17  S   UNL d   1      54.356  33.319  54.867  0.00  0.00     0.174 S 
ATOM     18  O   UNL d   1      54.853  33.559  54.254  0.00  0.00    -0.589 OA
ATOM     19  O   UNL d   1      55.013  33.195  55.351  0.00  0.00    -0.589 OA
ATOM     20  O   UNL d   1      53.859  33.080  55.481  0.00  0.00    -0.589 OA
ENDBRANCH   1  17
TORSDOF 3
ENDMDL
