MODEL 1
REMARK VINA RESULT:      52.9      0.000      0.000
REMARK  2 active torsions:
REMARK  status: ('A' for Active; 'I' for Inactive)
REMARK    1  A    between atoms: N_9  and  C_3 
REMARK    2  A    between atoms: C_11  and  C_4 
ROOT
ATOM      1  N   UNL d   1      14.110  13.524  -2.459  0.00  0.00    -0.196 N 
ATOM      2  C   UNL d   1      13.882  13.836  -3.217  0.00  0.00     0.167 A 
ATOM      3  C   UNL d   1      14.008  12.735  -2.317  0.00  0.00     0.153 A 
ATOM      4  C   UNL d   1      13.977  14.626  -3.377  0.00  0.00     0.057 A 
ATOM      5  N   UNL d   1      14.519  14.827  -2.059  0.00  0.00    -0.161 NA
ATOM      6  N   UNL d   1      13.568  13.340  -3.784  0.00  0.00    -0.227 NA
ATOM      7  C   UNL d   1      13.692  12.226  -2.883  0.00  0.00     0.057 A 
ATOM      8  C   UNL d   1      14.298  15.130  -2.794  0.00  0.00     0.124 A 
ATOM      9  C   UNL d   1      13.468  12.533  -3.629  0.00  0.00     0.086 A 
ATOM     10  C   UNL d   1      13.137  12.010  -4.226  0.00  0.00     0.021 C 
ENDROOT
BRANCH   4  11
ATOM     11  C   UNL d   1      13.756  14.929  -4.112  0.00  0.00     0.005 A 
ATOM     12  C   UNL d   1      14.309  15.304  -4.578  0.00  0.00     0.001 A 
ATOM     13  C   UNL d   1      14.088  15.607  -5.313  0.00  0.00     0.011 A 
ATOM     14  C   UNL d   1      13.318  15.529  -5.569  0.00  0.00     0.058 A 
ATOM     15  C   UNL d   1      12.769  15.149  -5.091  0.00  0.00     0.011 A 
ATOM     16 CL   UNL d   1      13.087  15.847  -6.340  0.00  0.00    -0.082 Cl
ATOM     17  C   UNL d   1      12.986  14.851  -4.367  0.00  0.00     0.001 A 
ENDBRANCH   4  11
BRANCH   3  18
ATOM     18  N   UNL d   1      14.237  12.416  -1.552  0.00  0.00    -0.285 N 
ATOM     19  C   UNL d   1      13.639  12.105  -1.022  0.00  0.00     0.108 A 
ATOM     20  C   UNL d   1      13.869  11.790  -0.266  0.00  0.00     0.142 A 
ATOM     21  O   UNL d   1      14.703  11.779  -0.024  0.00  0.00    -0.300 OA
ATOM     22  C   UNL d   1      15.289  12.096  -0.571  0.00  0.00     0.142 A 
ATOM     23  C   UNL d   1      15.058  12.411  -1.327  0.00  0.00     0.108 A 
ENDBRANCH   3  18
TORSDOF 2
ENDMDL
MODEL 2
REMARK VINA RESULT:      54.9      1.771      3.111
REMARK  2 active torsions:
REMARK  status: ('A' for Active; 'I' for Inactive)
REMARK    1  A    between atoms: N_9  and  C_3 
REMARK    2  A    between atoms: C_11  and  C_4 
ROOT
ATOM      1  N   UNL d   1      14.402  14.375  -2.142  0.00  0.00    -0.196 N 
ATOM      2  C   UNL d   1      14.109  14.007  -2.851  0.00  0.00     0.167 A 
ATOM      3  C   UNL d   1      14.592  15.159  -2.162  0.00  0.00     0.153 A 
ATOM      4  C   UNL d   1      13.912  13.220  -2.850  0.00  0.00     0.057 A 
ATOM      5  N   UNL d   1      14.282  13.130  -1.462  0.00  0.00    -0.161 NA
ATOM      6  N   UNL d   1      14.026  14.447  -3.534  0.00  0.00    -0.227 NA
ATOM      7  C   UNL d   1      14.512  15.613  -2.846  0.00  0.00     0.057 A 
ATOM      8  C   UNL d   1      13.999  12.774  -2.150  0.00  0.00     0.124 A 
ATOM      9  C   UNL d   1      14.224  15.250  -3.544  0.00  0.00     0.086 A 
ATOM     10  C   UNL d   1      14.137  15.715  -4.263  0.00  0.00     0.021 C 
ENDROOT
BRANCH   4  11
ATOM     11  C   UNL d   1      13.629  12.863  -3.538  0.00  0.00     0.005 A 
ATOM     12  C   UNL d   1      13.055  13.235  -3.980  0.00  0.00     0.001 A 
ATOM     13  C   UNL d   1      12.771  12.879  -4.668  0.00  0.00     0.011 A 
ATOM     14  C   UNL d   1      13.066  12.155  -4.901  0.00  0.00     0.058 A 
ATOM     15  C   UNL d   1      13.644  11.789  -4.447  0.00  0.00     0.011 A 
ATOM     16 CL   UNL d   1      12.769  11.781  -5.622  0.00  0.00    -0.082 Cl
ATOM     17  C   UNL d   1      13.924  12.140  -3.770  0.00  0.00     0.001 A 
ENDBRANCH   4  11
BRANCH   3  18
ATOM     18  N   UNL d   1      14.888  15.535  -1.447  0.00  0.00    -0.285 N 
ATOM     19  C   UNL d   1      14.973  16.388  -1.417  0.00  0.00     0.108 A 
ATOM     20  C   UNL d   1      15.267  16.756  -0.708  0.00  0.00     0.142 A 
ATOM     21  O   UNL d   1      15.481  16.279  -0.014  0.00  0.00    -0.300 OA
ATOM     22  C   UNL d   1      15.388  15.423  -0.066  0.00  0.00     0.142 A 
ATOM     23  C   UNL d   1      15.095  15.055  -0.775  0.00  0.00     0.108 A 
ENDBRANCH   3  18
TORSDOF 2
ENDMDL
