MODEL 1
REMARK VINA RESULT:      -3.5      0.000      0.000
REMARK  5 active torsions:
REMARK  status: ('A' for Active; 'I' for Inactive)
REMARK    1  A    between atoms: N_3  and  C_1 
REMARK       I    between atoms: C_9  and  N_3 
REMARK       I    between atoms: N_7  and  C_8 
REMARK    2  A    between atoms: C_8  and  C_14 
REMARK    3  A    between atoms: C_15  and  C_9 
REMARK    4  A    between atoms: S_12  and  C_15 
REMARK    5  A    between atoms: C_14  and  S_12 
ROOT
ATOM      1  N   UNL d   1      32.824  18.999 -23.706  0.00  0.00    -0.183 NA
ATOM      2  C   UNL d   1      33.060  19.182 -22.933  0.00  0.00     0.287 C 
ATOM      3  O   UNL d   1      33.120  18.581 -22.364  0.00  0.00    -0.265 OA
ENDROOT
BRANCH   2   4
ATOM      4  C   UNL d   1      33.236  19.954 -22.725  0.00  0.00     0.098 C 
BRANCH   4   5
ATOM      5  S   UNL d   1      33.034  20.245 -21.974  0.00  0.00    -0.076 SA
BRANCH   5   6
ATOM      6  C   UNL d   1      32.977  21.059 -21.846  0.00  0.00     0.097 C 
BRANCH   6   7
ATOM      7  C   UNL d   1      32.886  21.355 -21.083  0.00  0.00     0.271 C 
ATOM      8  N   UNL d   1      32.633  22.128 -20.976  0.00  0.00    -0.272 N 
ATOM      9  C   UNL d   1      32.476  22.591 -21.642  0.00  0.00     0.083 A 
ATOM     10  C   UNL d   1      32.542  22.426 -20.227  0.00  0.00     0.083 A 
ATOM     11  C   UNL d   1      32.221  23.369 -21.537  0.00  0.00     0.019 A 
ATOM     12  C   UNL d   1      32.128  23.674 -20.785  0.00  0.00     0.003 A 
ATOM     13  C   UNL d   1      32.287  23.208 -20.121  0.00  0.00     0.019 A 
ATOM     14  O   UNL d   1      33.049  20.878 -20.432  0.00  0.00    -0.266 OA
ENDBRANCH   6   7
ENDBRANCH   5   6
ENDBRANCH   4   5
ENDBRANCH   2   4
BRANCH   1  15
ATOM     15  C   UNL d   1      32.698  18.181 -23.701  0.00  0.00     0.182 A 
ATOM     16  N   UNL d   1      32.064  17.783 -24.052  0.00  0.00    -0.283 N 
ATOM     17  C   UNL d   1      32.159  16.971 -23.912  0.00  0.00     0.072 A 
ATOM     18  C   UNL d   1      31.452  18.136 -24.464  0.00  0.00     0.101 C 
ATOM     19  C   UNL d   1      31.711  16.317 -24.122  0.00  0.00     0.017 A 
ATOM     20  C   UNL d   1      32.852  16.867 -23.474  0.00  0.00     0.048 A 
ATOM     21  C   UNL d   1      31.944  15.568 -23.903  0.00  0.00    -0.011 A 
ATOM     22  C   UNL d   1      32.637  15.465 -23.465  0.00  0.00     0.027 A 
ATOM     23  C   UNL d   1      33.098  16.110 -23.246  0.00  0.00    -0.004 A 
ATOM     24  S   UNL d   1      33.188  17.615 -23.342  0.00  0.00    -0.048 SA
ENDBRANCH   1  15
TORSDOF 5
ENDMDL
MODEL 2
REMARK VINA RESULT:      -3.1      1.108      5.797
REMARK  5 active torsions:
REMARK  status: ('A' for Active; 'I' for Inactive)
REMARK    1  A    between atoms: N_3  and  C_1 
REMARK       I    between atoms: C_9  and  N_3 
REMARK       I    between atoms: N_7  and  C_8 
REMARK    2  A    between atoms: C_8  and  C_14 
REMARK    3  A    between atoms: C_15  and  C_9 
REMARK    4  A    between atoms: S_12  and  C_15 
REMARK    5  A    between atoms: C_14  and  S_12 
ROOT
ATOM      1  N   UNL d   1      33.021  20.182 -21.627  0.00  0.00    -0.183 NA
ATOM      2  C   UNL d   1      33.061  19.968 -22.426  0.00  0.00     0.287 C 
ATOM      3  O   UNL d   1      32.980  20.546 -23.015  0.00  0.00    -0.265 OA
ENDROOT
BRANCH   2   4
ATOM      4  C   UNL d   1      33.181  19.186 -22.641  0.00  0.00     0.098 C 
BRANCH   4   5
ATOM      5  S   UNL d   1      32.810  18.872 -23.313  0.00  0.00    -0.076 SA
BRANCH   5   6
ATOM      6  C   UNL d   1      32.700  18.057 -23.384  0.00  0.00     0.097 C 
BRANCH   6   7
ATOM      7  C   UNL d   1      32.410  17.734 -24.084  0.00  0.00     0.271 C 
ATOM      8  N   UNL d   1      32.086  16.980 -24.078  0.00  0.00    -0.272 N 
ATOM      9  C   UNL d   1      32.060  16.564 -23.366  0.00  0.00     0.083 A 
ATOM     10  C   UNL d   1      31.798  16.657 -24.765  0.00  0.00     0.083 A 
ATOM     11  C   UNL d   1      31.735  15.805 -23.358  0.00  0.00     0.019 A 
ATOM     12  C   UNL d   1      31.443  15.474 -24.046  0.00  0.00     0.003 A 
ATOM     13  C   UNL d   1      31.471  15.895 -24.757  0.00  0.00     0.019 A 
ATOM     14  O   UNL d   1      32.445  18.166 -24.783  0.00  0.00    -0.266 OA
ENDBRANCH   6   7
ENDBRANCH   5   6
ENDBRANCH   4   5
ENDBRANCH   2   4
BRANCH   1  15
ATOM     15  C   UNL d   1      32.898  21.000 -21.633  0.00  0.00     0.182 A 
ATOM     16  N   UNL d   1      32.412  21.424 -21.115  0.00  0.00    -0.283 N 
ATOM     17  C   UNL d   1      32.452  22.227 -21.320  0.00  0.00     0.072 A 
ATOM     18  C   UNL d   1      31.970  21.101 -20.507  0.00  0.00     0.101 C 
ATOM     19  C   UNL d   1      32.096  22.897 -21.009  0.00  0.00     0.017 A 
ATOM     20  C   UNL d   1      32.963  22.299 -21.965  0.00  0.00     0.048 A 
ATOM     21  C   UNL d   1      32.241  23.630 -21.331  0.00  0.00    -0.011 A 
ATOM     22  C   UNL d   1      32.752  23.702 -21.976  0.00  0.00     0.027 A 
ATOM     23  C   UNL d   1      33.119  23.040 -22.300  0.00  0.00    -0.004 A 
ATOM     24  S   UNL d   1      33.241  21.541 -22.161  0.00  0.00    -0.048 SA
ENDBRANCH   1  15
TORSDOF 5
ENDMDL
MODEL 3
REMARK VINA RESULT:      -2.7      0.999      5.630
REMARK  5 active torsions:
REMARK  status: ('A' for Active; 'I' for Inactive)
REMARK    1  A    between atoms: N_3  and  C_1 
REMARK       I    between atoms: C_9  and  N_3 
REMARK       I    between atoms: N_7  and  C_8 
REMARK    2  A    between atoms: C_8  and  C_14 
REMARK    3  A    between atoms: C_15  and  C_9 
REMARK    4  A    between atoms: S_12  and  C_15 
REMARK    5  A    between atoms: C_14  and  S_12 
ROOT
ATOM      1  N   UNL d   1      33.220  21.022 -22.758  0.00  0.00    -0.183 NA
ATOM      2  C   UNL d   1      33.187  20.241 -22.484  0.00  0.00     0.287 C 
ATOM      3  O   UNL d   1      33.098  20.088 -21.674  0.00  0.00    -0.265 OA
ENDROOT
BRANCH   2   4
ATOM      4  C   UNL d   1      33.241  19.614 -23.010  0.00  0.00     0.098 C 
BRANCH   4   5
ATOM      5  S   UNL d   1      32.865  18.893 -22.846  0.00  0.00    -0.076 SA
BRANCH   5   6
ATOM      6  C   UNL d   1      32.585  18.421 -23.463  0.00  0.00     0.097 C 
BRANCH   6   7
ATOM      7  C   UNL d   1      32.450  17.617 -23.346  0.00  0.00     0.271 C 
ATOM      8  N   UNL d   1      31.872  17.236 -23.785  0.00  0.00    -0.272 N 
ATOM      9  C   UNL d   1      31.438  17.672 -24.337  0.00  0.00     0.083 A 
ATOM     10  C   UNL d   1      31.734  16.443 -23.674  0.00  0.00     0.083 A 
ATOM     11  C   UNL d   1      30.856  17.289 -24.780  0.00  0.00     0.019 A 
ATOM     12  C   UNL d   1      30.713  16.492 -24.672  0.00  0.00     0.003 A 
ATOM     13  C   UNL d   1      31.149  16.059 -24.119  0.00  0.00     0.019 A 
ATOM     14  O   UNL d   1      32.893  17.201 -22.791  0.00  0.00    -0.266 OA
ENDBRANCH   6   7
ENDBRANCH   5   6
ENDBRANCH   4   5
ENDBRANCH   2   4
BRANCH   1  15
ATOM     15  C   UNL d   1      33.148  21.487 -22.078  0.00  0.00     0.182 A 
ATOM     16  N   UNL d   1      32.986  22.298 -22.057  0.00  0.00    -0.283 N 
ATOM     17  C   UNL d   1      32.963  22.537 -21.263  0.00  0.00     0.072 A 
ATOM     18  C   UNL d   1      32.869  22.776 -22.711  0.00  0.00     0.101 C 
ATOM     19  C   UNL d   1      32.828  23.264 -20.907  0.00  0.00     0.017 A 
ATOM     20  C   UNL d   1      33.111  21.874 -20.793  0.00  0.00     0.048 A 
ATOM     21  C   UNL d   1      32.839  23.336 -20.096  0.00  0.00    -0.011 A 
ATOM     22  C   UNL d   1      32.988  22.673 -19.627  0.00  0.00     0.027 A 
ATOM     23  C   UNL d   1      33.125  21.937 -19.967  0.00  0.00    -0.004 A 
ATOM     24  S   UNL d   1      33.226  21.222 -21.295  0.00  0.00    -0.048 SA
ENDBRANCH   1  15
TORSDOF 5
ENDMDL
