MODEL 1
REMARK VINA RESULT:      -7.8      0.000      0.000
REMARK  5 active torsions:
REMARK  status: ('A' for Active; 'I' for Inactive)
REMARK    1  A    between atoms: C_2  and  S_1 
REMARK    2  A    between atoms: N_5  and  S_1 
REMARK    3  A    between atoms: O_18  and  C_4 
REMARK    4  A    between atoms: C_13  and  N_5 
REMARK    5  A    between atoms: C_11  and  C_13 
ROOT
ATOM      1  C   UNL d   1      52.893  33.455  53.645  0.00  0.00     0.128 A 
ATOM      2  C   UNL d   1      53.344  33.674  54.300  0.00  0.00     0.026 A 
ATOM      3  C   UNL d   1      52.471  34.026  53.226  0.00  0.00     0.106 A 
ATOM      4  C   UNL d   1      53.372  34.466  54.536  0.00  0.00     0.059 A 
ATOM      5  C   UNL d   1      52.500  34.818  53.462  0.00  0.00     0.026 A 
ATOM      6  C   UNL d   1      52.950  35.038  54.117  0.00  0.00     0.013 A 
ATOM      7 CL   UNL d   1      53.823  34.686  55.191  0.00  0.00    -0.082 Cl
ATOM      8  C   UNL d   1      52.979  35.830  54.353  0.00  0.00     0.001 C 
ENDROOT
BRANCH   1   9
ATOM      9  S   UNL d   1      52.865  32.663  53.408  0.00  0.00     0.287 S 
ATOM     10  O   UNL d   1      53.588  32.754  53.017  0.00  0.00    -0.198 OA
ATOM     11  O   UNL d   1      52.143  32.572  53.799  0.00  0.00    -0.198 OA
BRANCH   9  12
ATOM     12  N   UNL d   1      52.836  31.871  53.172  0.00  0.00    -0.155 NA
BRANCH  12  13
ATOM     13  C   UNL d   1      53.385  31.331  53.468  0.00  0.00     0.137 C 
BRANCH  13  14
ATOM     14  C   UNL d   1      53.227  30.520  53.437  0.00  0.00     0.120 A 
ATOM     15  O   UNL d   1      52.817  30.126  52.836  0.00  0.00    -0.304 OA
ATOM     16  C   UNL d   1      52.789  29.328  53.029  0.00  0.00     0.123 A 
ATOM     17  C   UNL d   1      53.182  29.223  53.749  0.00  0.00     0.029 A 
ATOM     18  C   UNL d   1      53.450  29.958  53.996  0.00  0.00     0.028 A 
ENDBRANCH  13  14
ENDBRANCH  12  13
ENDBRANCH   9  12
ENDBRANCH   1   9
BRANCH   3  19
ATOM     19  O   UNL d   1      52.018  33.808  52.567  0.00  0.00    -0.327 OA
ATOM     20  C   UNL d   1      51.541  34.366  52.191  0.00  0.00     0.181 C 
ENDBRANCH   3  19
TORSDOF 5
ENDMDL
MODEL 2
REMARK VINA RESULT:      -7.7      1.570      3.701
REMARK  5 active torsions:
REMARK  status: ('A' for Active; 'I' for Inactive)
REMARK    1  A    between atoms: C_2  and  S_1 
REMARK    2  A    between atoms: N_5  and  S_1 
REMARK    3  A    between atoms: O_18  and  C_4 
REMARK    4  A    between atoms: C_13  and  N_5 
REMARK    5  A    between atoms: C_11  and  C_13 
ROOT
ATOM      1  C   UNL d   1      52.420  33.420  53.547  0.00  0.00     0.128 A 
ATOM      2  C   UNL d   1      52.717  33.978  54.077  0.00  0.00     0.026 A 
ATOM      3  C   UNL d   1      52.802  32.694  53.457  0.00  0.00     0.106 A 
ATOM      4  C   UNL d   1      53.396  33.810  54.518  0.00  0.00     0.059 A 
ATOM      5  C   UNL d   1      53.481  32.526  53.898  0.00  0.00     0.026 A 
ATOM      6  C   UNL d   1      53.777  33.084  54.429  0.00  0.00     0.013 A 
ATOM      7 CL   UNL d   1      53.692  34.368  55.049  0.00  0.00    -0.082 Cl
ATOM      8  C   UNL d   1      54.457  32.916  54.870  0.00  0.00     0.001 C 
ENDROOT
BRANCH   1   9
ATOM      9  S   UNL d   1      51.741  33.588  53.106  0.00  0.00     0.287 S 
ATOM     10  O   UNL d   1      52.207  33.950  52.527  0.00  0.00    -0.198 OA
ATOM     11  O   UNL d   1      51.276  33.226  53.685  0.00  0.00    -0.198 OA
BRANCH   9  12
ATOM     12  N   UNL d   1      51.062  33.756  52.665  0.00  0.00    -0.155 NA
BRANCH  12  13
ATOM     13  C   UNL d   1      50.608  34.421  52.843  0.00  0.00     0.137 C 
BRANCH  13  14
ATOM     14  C   UNL d   1      49.918  34.579  52.415  0.00  0.00     0.120 A 
ATOM     15  O   UNL d   1      49.772  34.364  51.629  0.00  0.00    -0.304 OA
ATOM     16  C   UNL d   1      49.022  34.631  51.428  0.00  0.00     0.123 A 
ATOM     17  C   UNL d   1      48.699  35.011  52.087  0.00  0.00     0.029 A 
ATOM     18  C   UNL d   1      49.252  34.977  52.691  0.00  0.00     0.028 A 
ENDBRANCH  13  14
ENDBRANCH  12  13
ENDBRANCH   9  12
ENDBRANCH   1   9
BRANCH   3  19
ATOM     19  O   UNL d   1      52.505  32.133  52.926  0.00  0.00    -0.327 OA
ATOM     20  C   UNL d   1      52.829  31.374  52.903  0.00  0.00     0.181 C 
ENDBRANCH   3  19
TORSDOF 5
ENDMDL
