MODEL 1
REMARK VINA RESULT:       5.9      0.000      0.000
REMARK  9 active torsions:
REMARK  status: ('A' for Active; 'I' for Inactive)
REMARK    1  A    between atoms: C_9  and  N_1 
REMARK    2  A    between atoms: S_8  and  C_2 
REMARK    3  A    between atoms: C_7  and  C_12 
REMARK       I    between atoms: N_13  and  C_7 
REMARK    4  A    between atoms: C_26  and  S_8 
REMARK    5  A    between atoms: C_27  and  N_13 
REMARK    6  A    between atoms: C_15  and  C_27 
REMARK    7  A    between atoms: C_16  and  C_26 
REMARK    8  A    between atoms: O_31  and  C_16 
REMARK    9  A    between atoms: C_33  and  O_31 
ROOT
ATOM      1  N   UNL d   1      30.316  17.489 -24.237  0.00  0.00    -0.254 N 
ATOM      2  C   UNL d   1      31.055  17.167 -24.359  0.00  0.00     0.182 A 
ATOM      3  C   UNL d   1      30.224  18.301 -24.159  0.00  0.00     0.268 A 
ATOM      4  N   UNL d   1      31.705  17.662 -24.402  0.00  0.00    -0.222 NA
ATOM      5  C   UNL d   1      30.871  18.795 -24.202  0.00  0.00     0.074 A 
ATOM      6  C   UNL d   1      31.625  18.476 -24.326  0.00  0.00     0.088 A 
ATOM      7  C   UNL d   1      32.288  18.972 -24.371  0.00  0.00     0.024 A 
ATOM      8  C   UNL d   1      30.790  19.613 -24.125  0.00  0.00     0.006 A 
ATOM      9  C   UNL d   1      32.196  19.788 -24.292  0.00  0.00     0.059 A 
ATOM     10  O   UNL d   1      29.469  18.621 -24.035  0.00  0.00    -0.267 OA
ATOM     11  C   UNL d   1      31.441  20.108 -24.169  0.00  0.00     0.005 A 
ENDROOT
BRANCH   9  12
ATOM     12  C   UNL d   1      32.857  20.288 -24.337  0.00  0.00     0.279 C 
ATOM     13  N   UNL d   1      33.200  20.548 -23.650  0.00  0.00    -0.204 NA
ATOM     14  O   UNL d   1      33.144  20.504 -25.076  0.00  0.00    -0.265 OA
BRANCH  13  15
ATOM     15  C   UNL d   1      32.899  20.322 -22.920  0.00  0.00     0.127 C 
BRANCH  15  16
ATOM     16  C   UNL d   1      32.942  20.836 -22.278  0.00  0.00     0.119 A 
ATOM     17  O   UNL d   1      32.856  21.638 -22.207  0.00  0.00    -0.304 OA
ATOM     18  C   UNL d   1      32.958  21.860 -21.425  0.00  0.00     0.123 A 
ATOM     19  C   UNL d   1      33.113  21.160 -21.008  0.00  0.00     0.029 A 
ATOM     20  C   UNL d   1      33.104  20.535 -21.521  0.00  0.00     0.028 A 
ENDBRANCH  15  16
ENDBRANCH  13  15
ENDBRANCH   9  12
BRANCH   2  21
ATOM     21  S   UNL d   1      31.147  16.351 -24.437  0.00  0.00    -0.044 SA
BRANCH  21  22
ATOM     22  C   UNL d   1      31.744  16.047 -24.906  0.00  0.00     0.107 C 
BRANCH  22  23
ATOM     23  C   UNL d   1      32.379  15.657 -24.552  0.00  0.00     0.307 C 
ATOM     24  O   UNL d   1      33.059  15.472 -24.988  0.00  0.00    -0.258 OA
BRANCH  23  25
ATOM     25  O   UNL d   1      32.329  15.453 -23.750  0.00  0.00    -0.271 OA
BRANCH  25  26
ATOM     26  C   UNL d   1      32.966  15.626 -23.254  0.00  0.00     0.126 C 
ATOM     27  C   UNL d   1      32.824  15.724 -22.460  0.00  0.00     0.029 C 
ENDBRANCH  25  26
ENDBRANCH  23  25
ENDBRANCH  22  23
ENDBRANCH  21  22
ENDBRANCH   2  21
BRANCH   1  28
ATOM     28  C   UNL d   1      29.657  16.993 -24.192  0.00  0.00     0.069 A 
ATOM     29  C   UNL d   1      29.381  16.740 -23.457  0.00  0.00     0.020 A 
ATOM     30  C   UNL d   1      28.733  16.252 -23.407  0.00  0.00     0.031 A 
ATOM     31  C   UNL d   1      28.352  16.009 -24.097  0.00  0.00     0.140 A 
ATOM     32  C   UNL d   1      28.629  16.263 -24.831  0.00  0.00     0.031 A 
ATOM     33  F   UNL d   1      27.687  15.508 -24.044  0.00  0.00    -0.204 F 
ATOM     34  C   UNL d   1      29.279  16.753 -24.881  0.00  0.00     0.020 A 
ENDBRANCH   1  28
TORSDOF 9
ENDMDL
MODEL 2
REMARK VINA RESULT:       6.9      1.851      3.295
REMARK  9 active torsions:
REMARK  status: ('A' for Active; 'I' for Inactive)
REMARK    1  A    between atoms: C_9  and  N_1 
REMARK    2  A    between atoms: S_8  and  C_2 
REMARK    3  A    between atoms: C_7  and  C_12 
REMARK       I    between atoms: N_13  and  C_7 
REMARK    4  A    between atoms: C_26  and  S_8 
REMARK    5  A    between atoms: C_27  and  N_13 
REMARK    6  A    between atoms: C_15  and  C_27 
REMARK    7  A    between atoms: C_16  and  C_26 
REMARK    8  A    between atoms: O_31  and  C_16 
REMARK    9  A    between atoms: C_33  and  O_31 
ROOT
ATOM      1  N   UNL d   1      32.272  18.805 -23.718  0.00  0.00    -0.254 N 
ATOM      2  C   UNL d   1      31.773  19.201 -24.227  0.00  0.00     0.182 A 
ATOM      3  C   UNL d   1      32.736  19.221 -23.183  0.00  0.00     0.268 A 
ATOM      4  N   UNL d   1      31.739  20.019 -24.199  0.00  0.00    -0.222 NA
ATOM      5  C   UNL d   1      32.703  20.035 -23.154  0.00  0.00     0.074 A 
ATOM      6  C   UNL d   1      32.198  20.445 -23.668  0.00  0.00     0.088 A 
ATOM      7  C   UNL d   1      32.159  21.272 -23.645  0.00  0.00     0.024 A 
ATOM      8  C   UNL d   1      33.165  20.463 -22.621  0.00  0.00     0.006 A 
ATOM      9  C   UNL d   1      32.625  21.690 -23.107  0.00  0.00     0.059 A 
ATOM     10  O   UNL d   1      33.241  18.811 -22.669  0.00  0.00    -0.267 OA
ATOM     11  C   UNL d   1      33.130  21.280 -22.593  0.00  0.00     0.005 A 
ENDROOT
BRANCH   9  12
ATOM     12  C   UNL d   1      32.589  22.520 -23.081  0.00  0.00     0.279 C 
ATOM     13  N   UNL d   1      32.457  22.884 -22.368  0.00  0.00    -0.204 NA
ATOM     14  O   UNL d   1      32.688  22.945 -23.776  0.00  0.00    -0.265 OA
BRANCH  13  15
ATOM     15  C   UNL d   1      32.360  22.442 -21.683  0.00  0.00     0.127 C 
BRANCH  15  16
ATOM     16  C   UNL d   1      32.419  22.805 -20.946  0.00  0.00     0.119 A 
ATOM     17  O   UNL d   1      32.992  22.805 -20.375  0.00  0.00    -0.304 OA
ATOM     18  C   UNL d   1      32.755  23.269 -19.743  0.00  0.00     0.123 A 
ATOM     19  C   UNL d   1      32.006  23.562 -19.944  0.00  0.00     0.029 A 
ATOM     20  C   UNL d   1      31.796  23.283 -20.674  0.00  0.00     0.028 A 
ENDBRANCH  15  16
ENDBRANCH  13  15
ENDBRANCH   9  12
BRANCH   2  21
ATOM     21  S   UNL d   1      31.307  18.783 -24.764  0.00  0.00    -0.044 SA
BRANCH  21  22
ATOM     22  C   UNL d   1      30.582  19.081 -24.999  0.00  0.00     0.107 C 
BRANCH  22  23
ATOM     23  C   UNL d   1      29.890  18.735 -24.713  0.00  0.00     0.307 C 
ATOM     24  O   UNL d   1      29.422  19.125 -24.152  0.00  0.00    -0.258 OA
BRANCH  23  25
ATOM     25  O   UNL d   1      29.667  17.988 -24.995  0.00  0.00    -0.271 OA
BRANCH  25  26
ATOM     26  C   UNL d   1      28.865  17.821 -25.092  0.00  0.00     0.126 C 
ATOM     27  C   UNL d   1      28.394  17.784 -24.430  0.00  0.00     0.029 C 
ENDBRANCH  25  26
ENDBRANCH  23  25
ENDBRANCH  22  23
ENDBRANCH  21  22
ENDBRANCH   2  21
BRANCH   1  28
ATOM     28  C   UNL d   1      32.310  17.981 -23.743  0.00  0.00     0.069 A 
ATOM     29  C   UNL d   1      32.686  17.604 -24.373  0.00  0.00     0.020 A 
ATOM     30  C   UNL d   1      32.726  16.793 -24.404  0.00  0.00     0.031 A 
ATOM     31  C   UNL d   1      32.387  16.346 -23.800  0.00  0.00     0.140 A 
ATOM     32  C   UNL d   1      32.010  16.723 -23.170  0.00  0.00     0.031 A 
ATOM     33  F   UNL d   1      32.428  15.513 -23.832  0.00  0.00    -0.204 F 
ATOM     34  C   UNL d   1      31.971  17.537 -23.140  0.00  0.00     0.020 A 
ENDBRANCH   1  28
TORSDOF 9
ENDMDL
MODEL 3
REMARK VINA RESULT:       7.7      2.346      5.656
REMARK  9 active torsions:
REMARK  status: ('A' for Active; 'I' for Inactive)
REMARK    1  A    between atoms: C_9  and  N_1 
REMARK    2  A    between atoms: S_8  and  C_2 
REMARK    3  A    between atoms: C_7  and  C_12 
REMARK       I    between atoms: N_13  and  C_7 
REMARK    4  A    between atoms: C_26  and  S_8 
REMARK    5  A    between atoms: C_27  and  N_13 
REMARK    6  A    between atoms: C_15  and  C_27 
REMARK    7  A    between atoms: C_16  and  C_26 
REMARK    8  A    between atoms: O_31  and  C_16 
REMARK    9  A    between atoms: C_33  and  O_31 
ROOT
ATOM      1  N   UNL d   1      32.484  20.361 -22.850  0.00  0.00    -0.254 N 
ATOM      2  C   UNL d   1      32.155  19.955 -22.225  0.00  0.00     0.182 A 
ATOM      3  C   UNL d   1      32.752  19.957 -23.513  0.00  0.00     0.268 A 
ATOM      4  N   UNL d   1      32.094  19.139 -22.264  0.00  0.00    -0.222 NA
ATOM      5  C   UNL d   1      32.692  19.146 -23.554  0.00  0.00     0.074 A 
ATOM      6  C   UNL d   1      32.359  18.725 -22.922  0.00  0.00     0.088 A 
ATOM      7  C   UNL d   1      32.295  17.900 -22.956  0.00  0.00     0.024 A 
ATOM      8  C   UNL d   1      32.958  18.730 -24.215  0.00  0.00     0.006 A 
ATOM      9  C   UNL d   1      32.564  17.494 -23.622  0.00  0.00     0.059 A 
ATOM     10  O   UNL d   1      33.085  20.378 -24.145  0.00  0.00    -0.267 OA
ATOM     11  C   UNL d   1      32.897  17.914 -24.254  0.00  0.00     0.005 A 
ENDROOT
BRANCH   9  12
ATOM     12  C   UNL d   1      32.501  16.666 -23.660  0.00  0.00     0.279 C 
ATOM     13  N   UNL d   1      31.880  16.338 -24.063  0.00  0.00    -0.204 NA
ATOM     14  O   UNL d   1      33.071  16.207 -23.288  0.00  0.00    -0.265 OA
BRANCH  13  15
ATOM     15  C   UNL d   1      31.319  16.814 -24.428  0.00  0.00     0.127 C 
BRANCH  15  16
ATOM     16  C   UNL d   1      30.595  16.496 -24.659  0.00  0.00     0.119 A 
ATOM     17  O   UNL d   1      29.890  16.830 -24.875  0.00  0.00    -0.304 OA
ATOM     18  C   UNL d   1      29.348  16.241 -25.053  0.00  0.00     0.123 A 
ATOM     19  C   UNL d   1      29.745  15.523 -24.939  0.00  0.00     0.029 A 
ATOM     20  C   UNL d   1      30.503  15.671 -24.700  0.00  0.00     0.028 A 
ENDBRANCH  15  16
ENDBRANCH  13  15
ENDBRANCH   9  12
BRANCH   2  21
ATOM     21  S   UNL d   1      31.886  20.360 -21.558  0.00  0.00    -0.044 SA
BRANCH  21  22
ATOM     22  C   UNL d   1      32.315  20.339 -20.862  0.00  0.00     0.107 C 
BRANCH  22  23
ATOM     23  C   UNL d   1      32.124  20.863 -20.253  0.00  0.00     0.307 C 
ATOM     24  O   UNL d   1      31.396  20.810 -19.862  0.00  0.00    -0.258 OA
BRANCH  23  25
ATOM     25  O   UNL d   1      32.674  21.445 -20.037  0.00  0.00    -0.271 OA
BRANCH  25  26
ATOM     26  C   UNL d   1      32.661  21.737 -19.265  0.00  0.00     0.126 C 
ATOM     27  C   UNL d   1      32.792  22.530 -19.148  0.00  0.00     0.029 C 
ENDBRANCH  25  26
ENDBRANCH  23  25
ENDBRANCH  22  23
ENDBRANCH  21  22
ENDBRANCH   2  21
BRANCH   1  28
ATOM     28  C   UNL d   1      32.546  21.183 -22.814  0.00  0.00     0.069 A 
ATOM     29  C   UNL d   1      32.008  21.657 -23.223  0.00  0.00     0.020 A 
ATOM     30  C   UNL d   1      32.065  22.466 -23.192  0.00  0.00     0.031 A 
ATOM     31  C   UNL d   1      32.665  22.815 -22.747  0.00  0.00     0.140 A 
ATOM     32  C   UNL d   1      33.203  22.342 -22.338  0.00  0.00     0.031 A 
ATOM     33  F   UNL d   1      32.722  23.647 -22.715  0.00  0.00    -0.204 F 
ATOM     34  C   UNL d   1      33.146  21.529 -22.370  0.00  0.00     0.020 A 
ENDBRANCH   1  28
TORSDOF 9
ENDMDL
