MODEL 1
REMARK VINA RESULT:     106.1      0.000      0.000
REMARK  4 active torsions:
REMARK  status: ('A' for Active; 'I' for Inactive)
REMARK    1  A    between atoms: C_8  and  C_1 
REMARK    2  A    between atoms: C_10  and  C_7 
REMARK    3  A    between atoms: N_9  and  C_10 
REMARK    4  A    between atoms: O_23  and  C_15 
ROOT
ATOM      1  C   UNL d   1      61.534  47.055  50.097  0.00  0.00     0.064 A 
ATOM      2  C   UNL d   1      60.877  48.358  50.877  0.00  0.00     0.107 A 
ATOM      3  C   UNL d   1      61.520  47.080  50.921  0.00  0.00     0.199 A 
ATOM      4  C   UNL d   1      61.192  47.732  51.316  0.00  0.00     0.062 A 
ATOM      5  C   UNL d   1      61.216  47.688  49.653  0.00  0.00     0.103 A 
ATOM      6  O   UNL d   1      60.886  48.343  50.047  0.00  0.00    -0.307 OA
ATOM      7  C   UNL d   1      60.549  49.010  51.264  0.00  0.00     0.079 A 
ATOM      8  C   UNL d   1      61.176  47.761  52.139  0.00  0.00     0.009 A 
ATOM      9  C   UNL d   1      60.538  49.031  52.081  0.00  0.00     0.199 A 
ATOM     10  O   UNL d   1      61.831  46.461  51.355  0.00  0.00    -0.286 OA
ATOM     11  C   UNL d   1      60.852  48.405  52.519  0.00  0.00     0.042 A 
ATOM     12  C   UNL d   1      61.230  47.663  48.829  0.00  0.00     0.027 C 
ATOM     13  O   UNL d   1      60.208  49.686  52.473  0.00  0.00    -0.286 OA
ENDROOT
BRANCH   1  14
ATOM     14  C   UNL d   1      61.862  46.404  49.711  0.00  0.00     0.027 A 
ATOM     15  C   UNL d   1      61.430  45.702  49.644  0.00  0.00     0.094 A 
ATOM     16  C   UNL d   1      61.765  45.056  49.256  0.00  0.00     0.024 A 
ATOM     17  C   UNL d   1      62.525  45.107  48.938  0.00  0.00     0.002 A 
ATOM     18  C   UNL d   1      62.953  45.810  49.007  0.00  0.00     0.000 A 
ATOM     19  C   UNL d   1      62.625  46.462  49.393  0.00  0.00     0.002 A 
BRANCH  15  20
ATOM     20  O   UNL d   1      60.671  45.651  49.963  0.00  0.00    -0.328 OA
ATOM     21  C   UNL d   1      60.181  45.016  49.759  0.00  0.00     0.181 C 
ENDBRANCH  15  20
ENDBRANCH   1  14
BRANCH   7  22
ATOM     22  C   UNL d   1      60.235  49.636  50.825  0.00  0.00     0.086 C 
BRANCH  22  23
ATOM     23  N   UNL d   1      59.431  49.651  50.644  0.00  0.00    -0.300 N 
ATOM     24  C   UNL d   1      59.187  49.658  49.856  0.00  0.00     0.100 A 
ATOM     25  C   UNL d   1      58.373  49.673  49.665  0.00  0.00     0.100 A 
ATOM     26  N   UNL d   1      57.817  49.681  50.266  0.00  0.00    -0.299 N 
ATOM     27  C   UNL d   1      58.070  49.674  51.063  0.00  0.00     0.100 A 
ATOM     28  C   UNL d   1      57.013  49.696  50.096  0.00  0.00     0.100 C 
ATOM     29  C   UNL d   1      58.875  49.659  51.245  0.00  0.00     0.100 A 
ENDBRANCH  22  23
ENDBRANCH   7  22
TORSDOF 4
ENDMDL
