MODEL 1
REMARK VINA RESULT:      -2.2      0.000      0.000
REMARK  2 active torsions:
REMARK  status: ('A' for Active; 'I' for Inactive)
REMARK    1  A    between atoms: C_9  and  N_2 
REMARK    2  A    between atoms: C_7  and  C_4 
ROOT
ATOM      1  C   UNL d   1      58.069  -0.111  30.736  0.00  0.00     0.136 A 
ATOM      2  N   UNL d   1      58.482  -0.588  30.201  0.00  0.00    -0.282 N 
ATOM      3  C   UNL d   1      57.444  -0.435  31.172  0.00  0.00     0.152 A 
ATOM      4  C   UNL d   1      58.267  -1.387  30.106  0.00  0.00     0.158 A 
ATOM      5  N   UNL d   1      57.643  -1.703  30.545  0.00  0.00    -0.189 NA
ATOM      6  C   UNL d   1      57.232  -1.226  31.078  0.00  0.00     0.292 A 
ATOM      7  C   UNL d   1      57.034   0.042  31.705  0.00  0.00     0.108 C 
ATOM      8  N   UNL d   1      56.618   0.519  32.242  0.00  0.00    -0.191 NA
ATOM      9  S   UNL d   1      58.275   0.682  30.837  0.00  0.00    -0.058 SA
ATOM     10  O   UNL d   1      56.604  -1.541  31.520  0.00  0.00    -0.264 OA
ENDROOT
BRANCH   2  11
ATOM     11  C   UNL d   1      59.101  -0.272  29.767  0.00  0.00     0.066 A 
ATOM     12  C   UNL d   1      59.867  -0.293  30.074  0.00  0.00     0.018 A 
ATOM     13  C   UNL d   1      60.487   0.026  29.635  0.00  0.00     0.002 A 
ATOM     14  C   UNL d   1      60.346   0.364  28.893  0.00  0.00     0.000 A 
ATOM     15  C   UNL d   1      59.575   0.383  28.588  0.00  0.00     0.002 A 
ATOM     16  C   UNL d   1      60.967   0.682  28.455  0.00  0.00     0.000 C 
ATOM     17  C   UNL d   1      58.954   0.065  29.026  0.00  0.00     0.018 A 
ENDBRANCH   2  11
BRANCH   4  18
ATOM     18  C   UNL d   1      58.678  -1.864  29.573  0.00  0.00     0.064 A 
ATOM     19  S   UNL d   1      58.509  -1.950  28.775  0.00  0.00    -0.083 SA
ATOM     20  C   UNL d   1      59.055  -2.475  28.460  0.00  0.00     0.035 A 
ATOM     21  C   UNL d   1      59.561  -2.714  29.063  0.00  0.00     0.008 A 
ATOM     22  C   UNL d   1      59.336  -2.343  29.750  0.00  0.00     0.010 A 
ENDBRANCH   4  18
TORSDOF 2
ENDMDL
MODEL 2
REMARK VINA RESULT:       0.8      1.098      2.314
REMARK  2 active torsions:
REMARK  status: ('A' for Active; 'I' for Inactive)
REMARK    1  A    between atoms: C_9  and  N_2 
REMARK    2  A    between atoms: C_7  and  C_4 
ROOT
ATOM      1  C   UNL d   1      57.601  -1.183  30.869  0.00  0.00     0.136 A 
ATOM      2  N   UNL d   1      58.117  -0.889  30.294  0.00  0.00    -0.282 N 
ATOM      3  C   UNL d   1      57.160  -0.654  31.330  0.00  0.00     0.152 A 
ATOM      4  C   UNL d   1      58.190  -0.067  30.182  0.00  0.00     0.158 A 
ATOM      5  N   UNL d   1      57.747   0.454  30.646  0.00  0.00    -0.189 NA
ATOM      6  C   UNL d   1      57.233   0.160  31.219  0.00  0.00     0.292 A 
ATOM      7  C   UNL d   1      56.646  -0.949  31.903  0.00  0.00     0.108 C 
ATOM      8  N   UNL d   1      56.128  -1.241  32.480  0.00  0.00    -0.191 NA
ATOM      9  S   UNL d   1      57.522  -1.996  30.987  0.00  0.00    -0.058 SA
ATOM     10  O   UNL d   1      56.787   0.682  31.686  0.00  0.00    -0.264 OA
ENDROOT
BRANCH   2  11
ATOM     11  C   UNL d   1      58.555  -1.410  29.836  0.00  0.00     0.066 A 
ATOM     12  C   UNL d   1      58.217  -1.743  29.161  0.00  0.00     0.018 A 
ATOM     13  C   UNL d   1      58.659  -2.264  28.702  0.00  0.00     0.002 A 
ATOM     14  C   UNL d   1      59.436  -2.454  28.915  0.00  0.00     0.000 A 
ATOM     15  C   UNL d   1      59.772  -2.118  29.593  0.00  0.00     0.002 A 
ATOM     16  C   UNL d   1      59.878  -2.976  28.455  0.00  0.00     0.000 C 
ATOM     17  C   UNL d   1      59.331  -1.595  30.053  0.00  0.00     0.018 A 
ENDBRANCH   2  11
BRANCH   4  18
ATOM     18  C   UNL d   1      58.704   0.227  29.609  0.00  0.00     0.064 A 
ATOM     19  S   UNL d   1      58.508   0.405  28.832  0.00  0.00    -0.083 SA
ATOM     20  C   UNL d   1      59.186   0.681  28.462  0.00  0.00     0.035 A 
ATOM     21  C   UNL d   1      59.800   0.674  29.009  0.00  0.00     0.008 A 
ATOM     22  C   UNL d   1      59.513   0.396  29.716  0.00  0.00     0.010 A 
ENDBRANCH   4  18
TORSDOF 2
ENDMDL
