MODEL 1
REMARK VINA RESULT:      15.0      0.000      0.000
REMARK  6 active torsions:
REMARK  status: ('A' for Active; 'I' for Inactive)
REMARK    1  A    between atoms: C_4  and  C_1 
REMARK    2  A    between atoms: C_3  and  N_8 
REMARK       I    between atoms: N_8  and  C_4 
REMARK    3  A    between atoms: C_14  and  C_6 
REMARK    4  A    between atoms: C_15  and  C_10 
REMARK    5  A    between atoms: C_12  and  C_16 
REMARK    6  A    between atoms: C_19  and  C_15 
ROOT
ATOM      1  C   UNL d   1      45.629 -16.262  44.357  0.00  0.00     0.083 A 
ATOM      2  C   UNL d   1      45.956 -15.527  44.190  0.00  0.00     0.032 A 
ATOM      3  C   UNL d   1      45.420 -14.948  44.429  0.00  0.00     0.100 A 
ATOM      4  C   UNL d   1      44.888 -16.140  44.700  0.00  0.00     0.105 A 
ATOM      5  O   UNL d   1      44.758 -15.328  44.746  0.00  0.00    -0.307 OA
ATOM      6  C   UNL d   1      44.367 -16.726  44.955  0.00  0.00     0.027 C 
ENDROOT
BRANCH   1   7
ATOM      7  C   UNL d   1      45.981 -16.994  44.206  0.00  0.00     0.283 C 
ATOM      8  N   UNL d   1      45.660 -17.680  44.539  0.00  0.00    -0.181 NA
ATOM      9  O   UNL d   1      46.646 -17.039  43.729  0.00  0.00    -0.265 OA
BRANCH   8  10
ATOM     10  C   UNL d   1      46.011 -18.411  44.389  0.00  0.00     0.216 A 
ATOM     11  N   UNL d   1      46.059 -18.780  43.658  0.00  0.00    -0.200 NA
ATOM     12  C   UNL d   1      46.453 -19.497  43.762  0.00  0.00     0.175 A 
ATOM     13  N   UNL d   1      46.646 -19.565  44.563  0.00  0.00    -0.187 NA
ATOM     14  S   UNL d   1      46.371 -18.891  44.945  0.00  0.00     0.054 SA
BRANCH  12  15
ATOM     15  C   UNL d   1      46.623 -20.047  43.174  0.00  0.00     0.082 C 
BRANCH  15  16
ATOM     16  C   UNL d   1      46.182 -20.051  42.476  0.00  0.00     0.199 C 
ATOM     17  O   UNL d   1      45.379 -20.245  42.502  0.00  0.00    -0.286 OA
ATOM     18  C   UNL d   1      46.540 -19.863  41.759  0.00  0.00     0.045 C 
ENDBRANCH  15  16
ENDBRANCH  12  15
ENDBRANCH   8  10
ENDBRANCH   1   7
BRANCH   3  19
ATOM     19  C   UNL d   1      45.528 -14.131  44.363  0.00  0.00     0.023 A 
ATOM     20  C   UNL d   1      45.152 -13.705  43.761  0.00  0.00     0.006 A 
ATOM     21  C   UNL d   1      45.264 -12.892  43.702  0.00  0.00     0.071 A 
ATOM     22  C   UNL d   1      45.750 -12.499  44.239  0.00  0.00     0.004 A 
ATOM     23  C   UNL d   1      46.126 -12.924  44.842  0.00  0.00     0.000 A 
ATOM     24  C   UNL d   1      46.014 -13.739  44.902  0.00  0.00     0.002 A 
BRANCH  21  25
ATOM     25  C   UNL d   1      44.889 -12.467  43.101  0.00  0.00     0.419 C 
ATOM     26  F   UNL d   1      45.275 -12.338  42.382  0.00  0.00    -0.166 F 
ATOM     27  F   UNL d   1      44.127 -12.170  43.217  0.00  0.00    -0.166 F 
ATOM     28  F   UNL d   1      45.623 -12.669  42.790  0.00  0.00    -0.166 F 
ENDBRANCH  21  25
ENDBRANCH   3  19
TORSDOF 6
ENDMDL
