MODEL 1
REMARK VINA RESULT:      -7.6      0.000      0.000
REMARK  2 active torsions:
REMARK  status: ('A' for Active; 'I' for Inactive)
REMARK       I    between atoms: N_2  and  C_1 
REMARK       I    between atoms: N_3  and  C_1 
REMARK    1  A    between atoms: C_6  and  N_2 
REMARK    2  A    between atoms: C_5  and  N_3 
ROOT
ATOM      1  C   UNL d   1     -48.526  13.422  22.087  0.00  0.00     0.369 C 
ATOM      2  N   UNL d   1     -49.047  13.986  21.821  0.00  0.00    -0.191 NA
ATOM      3  N   UNL d   1     -48.422  13.308  22.882  0.00  0.00    -0.191 NA
ATOM      4  O   UNL d   1     -48.060  12.922  21.570  0.00  0.00    -0.242 OA
ENDROOT
BRANCH   2   5
ATOM      5  C   UNL d   1     -49.463  14.433  22.361  0.00  0.00     0.086 A 
ATOM      6  C   UNL d   1     -50.208  14.194  22.606  0.00  0.00     0.019 A 
ATOM      7  C   UNL d   1     -50.648  14.635  23.155  0.00  0.00     0.002 A 
ATOM      8  C   UNL d   1     -50.322  15.339  23.463  0.00  0.00     0.000 A 
ATOM      9  C   UNL d   1     -49.566  15.580  23.213  0.00  0.00     0.002 A 
ATOM     10  C   UNL d   1     -49.140  15.131  22.667  0.00  0.00     0.019 A 
ENDBRANCH   2   5
BRANCH   3  11
ATOM     11  C   UNL d   1     -47.901  12.744  23.151  0.00  0.00     0.086 A 
ATOM     12  C   UNL d   1     -48.173  11.999  23.355  0.00  0.00     0.019 A 
ATOM     13  C   UNL d   1     -47.652  11.421  23.629  0.00  0.00     0.002 A 
ATOM     14  C   UNL d   1     -46.839  11.598  23.698  0.00  0.00     0.000 A 
ATOM     15  C   UNL d   1     -46.568  12.350  23.491  0.00  0.00     0.002 A 
ATOM     16  C   UNL d   1     -47.099  12.920  23.219  0.00  0.00     0.019 A 
ENDBRANCH   3  11
TORSDOF 2
ENDMDL
MODEL 2
REMARK VINA RESULT:      -7.4      0.665      3.453
REMARK  2 active torsions:
REMARK  status: ('A' for Active; 'I' for Inactive)
REMARK       I    between atoms: N_2  and  C_1 
REMARK       I    between atoms: N_3  and  C_1 
REMARK    1  A    between atoms: C_6  and  N_2 
REMARK    2  A    between atoms: C_5  and  N_3 
ROOT
ATOM      1  C   UNL d   1     -48.799  13.507  22.140  0.00  0.00     0.369 C 
ATOM      2  N   UNL d   1     -48.261  12.933  21.939  0.00  0.00    -0.191 NA
ATOM      3  N   UNL d   1     -48.865  13.749  22.910  0.00  0.00    -0.191 NA
ATOM      4  O   UNL d   1     -49.320  13.889  21.579  0.00  0.00    -0.242 OA
ENDROOT
BRANCH   2   5
ATOM      5  C   UNL d   1     -47.789  12.604  22.518  0.00  0.00     0.086 A 
ATOM      6  C   UNL d   1     -47.059  12.934  22.690  0.00  0.00     0.019 A 
ATOM      7  C   UNL d   1     -46.565  12.614  23.276  0.00  0.00     0.002 A 
ATOM      8  C   UNL d   1     -46.820  11.941  23.698  0.00  0.00     0.000 A 
ATOM      9  C   UNL d   1     -47.562  11.608  23.522  0.00  0.00     0.002 A 
ATOM     10  C   UNL d   1     -48.042  11.937  22.937  0.00  0.00     0.019 A 
ENDBRANCH   2   5
BRANCH   3  11
ATOM     11  C   UNL d   1     -49.403  14.324  23.115  0.00  0.00     0.086 A 
ATOM     12  C   UNL d   1     -50.158  14.112  23.350  0.00  0.00     0.019 A 
ATOM     13  C   UNL d   1     -50.711  14.688  23.560  0.00  0.00     0.002 A 
ATOM     14  C   UNL d   1     -50.497  15.494  23.530  0.00  0.00     0.000 A 
ATOM     15  C   UNL d   1     -49.735  15.705  23.292  0.00  0.00     0.002 A 
ATOM     16  C   UNL d   1     -49.191  15.120  23.085  0.00  0.00     0.019 A 
ENDBRANCH   3  11
TORSDOF 2
ENDMDL
MODEL 3
REMARK VINA RESULT:      -7.3      1.546      2.983
REMARK  2 active torsions:
REMARK  status: ('A' for Active; 'I' for Inactive)
REMARK       I    between atoms: N_2  and  C_1 
REMARK       I    between atoms: N_3  and  C_1 
REMARK    1  A    between atoms: C_6  and  N_2 
REMARK    2  A    between atoms: C_5  and  N_3 
ROOT
ATOM      1  C   UNL d   1     -48.692  12.761  21.998  0.00  0.00     0.369 C 
ATOM      2  N   UNL d   1     -47.966  12.971  21.704  0.00  0.00    -0.191 NA
ATOM      3  N   UNL d   1     -48.841  12.819  22.792  0.00  0.00    -0.191 NA
ATOM      4  O   UNL d   1     -49.337  12.471  21.514  0.00  0.00    -0.242 OA
ENDROOT
BRANCH   2   5
ATOM      5  C   UNL d   1     -47.389  13.241  22.214  0.00  0.00     0.086 A 
ATOM      6  C   UNL d   1     -46.842  12.718  22.530  0.00  0.00     0.019 A 
ATOM      7  C   UNL d   1     -46.248  12.973  23.051  0.00  0.00     0.002 A 
ATOM      8  C   UNL d   1     -46.208  13.782  23.256  0.00  0.00     0.000 A 
ATOM      9  C   UNL d   1     -46.764  14.310  22.933  0.00  0.00     0.002 A 
ATOM     10  C   UNL d   1     -47.349  14.042  22.417  0.00  0.00     0.019 A 
ENDBRANCH   2   5
BRANCH   3  11
ATOM     11  C   UNL d   1     -49.568  12.609  23.090  0.00  0.00     0.086 A 
ATOM     12  C   UNL d   1     -50.184  13.149  23.087  0.00  0.00     0.019 A 
ATOM     13  C   UNL d   1     -50.925  12.945  23.386  0.00  0.00     0.002 A 
ATOM     14  C   UNL d   1     -51.047  12.180  23.696  0.00  0.00     0.000 A 
ATOM     15  C   UNL d   1     -50.425  11.637  23.698  0.00  0.00     0.002 A 
ATOM     16  C   UNL d   1     -49.689  11.853  23.395  0.00  0.00     0.019 A 
ENDBRANCH   3  11
TORSDOF 2
ENDMDL
