MODEL 1
REMARK VINA RESULT:      91.2      0.000      0.000
REMARK  4 active torsions:
REMARK  status: ('A' for Active; 'I' for Inactive)
REMARK    1  A    between atoms: N_4  and  C_2 
REMARK       I    between atoms: C_3  and  N_4 
REMARK    2  A    between atoms: C_10  and  C_3 
REMARK    3  A    between atoms: C_12  and  N_4 
REMARK    4  A    between atoms: O_18  and  C_15 
ROOT
ATOM      1  C   UNL d   1     -56.053-100.451 -42.426  0.00  0.00     0.265 C 
ATOM      2  N   UNL d   1     -56.005-100.508 -43.674  0.00  0.00    -0.274 N 
ATOM      3  O   UNL d   1     -56.441 -99.799 -42.170  0.00  0.00    -0.267 OA
ENDROOT
BRANCH   2   4
ATOM      4  C   UNL d   1     -55.633-101.133 -43.972  0.00  0.00     0.079 A 
ATOM      5  C   UNL d   1     -55.446-101.244 -44.728  0.00  0.00     0.116 A 
ATOM      6  S   UNL d   1     -55.082-101.933 -44.787  0.00  0.00     0.213 S 
ATOM      7  C   UNL d   1     -55.046-102.246 -44.068  0.00  0.00     0.100 A 
ATOM      8  O   UNL d   1     -54.717-102.624 -44.847  0.00  0.00    -0.217 OA
ATOM      9  O   UNL d   1     -55.101-101.653 -45.512  0.00  0.00    -0.217 OA
ATOM     10  C   UNL d   1     -55.384-101.754 -43.569  0.00  0.00     0.030 A 
ENDBRANCH   2   4
BRANCH   2  11
ATOM     11  C   UNL d   1     -56.342 -99.928 -44.151  0.00  0.00     0.067 A 
ATOM     12  C   UNL d   1     -57.139 -99.766 -44.081  0.00  0.00     0.018 A 
ATOM     13  C   UNL d   1     -57.485 -99.175 -44.566  0.00  0.00     0.002 A 
ATOM     14  C   UNL d   1     -57.022 -98.762 -45.108  0.00  0.00     0.000 A 
ATOM     15  C   UNL d   1     -56.217 -98.928 -45.176  0.00  0.00     0.002 A 
ATOM     16  C   UNL d   1     -55.869 -99.507 -44.704  0.00  0.00     0.018 A 
ENDBRANCH   2  11
BRANCH   1  17
ATOM     17  C   UNL d   1     -55.723-101.020 -41.928  0.00  0.00     0.057 A 
ATOM     18  C   UNL d   1     -56.059-101.785 -41.873  0.00  0.00     0.007 A 
ATOM     19  C   UNL d   1     -55.721-102.346 -41.373  0.00  0.00     0.024 A 
ATOM     20  C   UNL d   1     -55.051-102.160 -40.923  0.00  0.00     0.094 A 
ATOM     21  C   UNL d   1     -54.714-101.408 -40.971  0.00  0.00     0.024 A 
ATOM     22  C   UNL d   1     -55.046-100.827 -41.475  0.00  0.00     0.007 A 
BRANCH  20  23
ATOM     23  O   UNL d   1     -54.716-102.735 -40.419  0.00  0.00    -0.328 OA
ATOM     24  C   UNL d   1     -54.953-102.787 -39.618  0.00  0.00     0.181 C 
ENDBRANCH  20  23
ENDBRANCH   1  17
TORSDOF 4
ENDMDL
