MODEL 1
REMARK VINA RESULT:      19.0      0.000      0.000
REMARK  2 active torsions:
REMARK  status: ('A' for Active; 'I' for Inactive)
REMARK    1  A    between atoms: C_7  and  C_1 
REMARK    2  A    between atoms: O_16  and  C_12 
ROOT
ATOM      1  C   UNL d   1      45.996 -16.842  44.101  0.00  0.00     0.105 A 
ATOM      2  C   UNL d   1      46.326 -18.399  43.593  0.00  0.00     0.064 A 
ATOM      3  O   UNL d   1      45.993 -17.021  43.289  0.00  0.00    -0.307 OA
ATOM      4  C   UNL d   1      46.329 -18.216  44.402  0.00  0.00     0.200 A 
ATOM      5  C   UNL d   1      46.156 -17.795  43.037  0.00  0.00     0.103 A 
ATOM      6  C   UNL d   1      46.165 -17.441  44.663  0.00  0.00     0.067 A 
ATOM      7  C   UNL d   1      46.487 -19.163  43.338  0.00  0.00     0.029 A 
ATOM      8  O   UNL d   1      46.494 -18.805  44.955  0.00  0.00    -0.286 OA
ATOM      9  C   UNL d   1      46.154 -17.978  42.227  0.00  0.00     0.027 A 
ATOM     10  C   UNL d   1      46.484 -19.340  42.535  0.00  0.00     0.094 A 
ATOM     11  C   UNL d   1      46.318 -18.750  41.982  0.00  0.00     0.026 A 
ENDROOT
BRANCH   1  12
ATOM     12  C   UNL d   1      45.836 -16.081  44.358  0.00  0.00     0.050 A 
ATOM     13  C   UNL d   1      45.094 -15.900  44.662  0.00  0.00     0.142 A 
ATOM     14  F   UNL d   1      44.514 -16.497  44.703  0.00  0.00    -0.204 F 
ATOM     15  C   UNL d   1      44.926 -15.137  44.922  0.00  0.00     0.030 A 
ATOM     16  C   UNL d   1      45.503 -14.553  44.878  0.00  0.00     0.002 A 
ATOM     17  C   UNL d   1      46.249 -14.730  44.574  0.00  0.00     0.000 A 
ATOM     18  C   UNL d   1      46.418 -15.492  44.314  0.00  0.00     0.004 A 
ENDBRANCH   1  12
BRANCH  10  19
ATOM     19  O   UNL d   1      46.646 -20.107  42.283  0.00  0.00    -0.328 OA
ATOM     20  C   UNL d   1      46.642 -20.287  41.478  0.00  0.00     0.181 C 
ENDBRANCH  10  19
TORSDOF 2
ENDMDL
