MODEL 1
REMARK VINA RESULT:      85.5      0.000      0.000
REMARK  10 active torsions:
REMARK  status: ('A' for Active; 'I' for Inactive)
REMARK    1  A    between atoms: C_3  and  C_1 
REMARK    2  A    between atoms: C_4  and  C_1 
REMARK    3  A    between atoms: N_2  and  C_8 
REMARK    4  A    between atoms: O_19  and  C_3 
REMARK    5  A    between atoms: C_14  and  C_4 
REMARK    6  A    between atoms: C_20  and  N_7 
REMARK    7  A    between atoms: C_9  and  C_20 
REMARK    8  A    between atoms: C_13  and  C_9 
REMARK    9  A    between atoms: C_23  and  C_13 
REMARK   10  A    between atoms: C_24  and  O_19 
ROOT
ATOM      1  C   UNL d   1     -55.249-100.624 -45.491  0.00  0.00     0.132 C 
ATOM      2  C   UNL d   1     -55.182 -99.875 -45.148  0.00  0.00     0.106 C 
ATOM      3  N   UNL d   1     -55.116 -99.124 -44.807  0.00  0.00    -0.191 NA
ENDROOT
BRANCH   1   4
ATOM      4  C   UNL d   1     -55.715-100.743 -46.149  0.00  0.00     0.310 C 
ATOM      5  O   UNL d   1     -55.611-101.389 -46.625  0.00  0.00    -0.258 OA
BRANCH   4   6
ATOM      6  O   UNL d   1     -56.300-100.198 -46.331  0.00  0.00    -0.271 OA
BRANCH   6   7
ATOM      7  C   UNL d   1     -56.493 -99.607 -45.785  0.00  0.00     0.126 C 
ATOM      8  C   UNL d   1     -56.872 -98.918 -46.054  0.00  0.00     0.029 C 
ENDBRANCH   6   7
ENDBRANCH   4   6
ENDBRANCH   1   4
BRANCH   1   9
ATOM      9  C   UNL d   1     -54.843-101.258 -45.167  0.00  0.00     0.016 C 
BRANCH   9  10
ATOM     10  C   UNL d   1     -54.898-101.398 -44.335  0.00  0.00     0.001 A 
ATOM     11  C   UNL d   1     -54.863-100.763 -43.781  0.00  0.00     0.002 A 
ATOM     12  C   UNL d   1     -54.917-100.919 -42.986  0.00  0.00     0.018 A 
ATOM     13  C   UNL d   1     -55.006-101.680 -42.702  0.00  0.00     0.064 A 
ATOM     14  C   UNL d   1     -55.040-102.299 -43.231  0.00  0.00     0.018 A 
ATOM     15  C   UNL d   1     -54.986-102.158 -44.047  0.00  0.00     0.002 A 
BRANCH  13  16
ATOM     16  N   UNL d   1     -55.060-101.820 -41.885  0.00  0.00    -0.301 N 
ATOM     17  C   UNL d   1     -54.761-102.508 -41.559  0.00  0.00     0.100 A 
ATOM     18  C   UNL d   1     -54.814-102.648 -40.743  0.00  0.00     0.100 A 
ATOM     19  N   UNL d   1     -55.167-102.101 -40.252  0.00  0.00    -0.300 N 
ATOM     20  C   UNL d   1     -55.481-101.383 -40.578  0.00  0.00     0.100 A 
ATOM     21  C   UNL d   1     -55.420-101.259 -41.392  0.00  0.00     0.100 A 
BRANCH  19  22
ATOM     22  C   UNL d   1     -55.221-102.241 -39.435  0.00  0.00     0.080 C 
BRANCH  22  23
ATOM     23  C   UNL d   1     -54.850-101.725 -38.893  0.00  0.00     0.019 C 
BRANCH  23  24
ATOM     24  C   UNL d   1     -55.133-101.313 -38.314  0.00  0.00     0.002 C 
BRANCH  24  25
ATOM     25  C   UNL d   1     -55.177-101.643 -37.571  0.00  0.00     0.000 A 
ATOM     26  C   UNL d   1     -54.871-102.385 -37.452  0.00  0.00     0.000 A 
ATOM     27  C   UNL d   1     -54.909-102.733 -36.705  0.00  0.00     0.000 A 
ATOM     28  C   UNL d   1     -55.254-102.333 -36.081  0.00  0.00     0.000 A 
ATOM     29  C   UNL d   1     -55.565-101.573 -36.211  0.00  0.00     0.000 A 
ATOM     30  C   UNL d   1     -55.524-101.231 -36.961  0.00  0.00     0.000 A 
ENDBRANCH  24  25
ENDBRANCH  23  24
ENDBRANCH  22  23
ENDBRANCH  19  22
ENDBRANCH  13  16
ENDBRANCH   9  10
ENDBRANCH   1   9
TORSDOF 10
ENDMDL
MODEL 2
REMARK VINA RESULT:      87.2      2.461      6.511
REMARK  10 active torsions:
REMARK  status: ('A' for Active; 'I' for Inactive)
REMARK    1  A    between atoms: C_3  and  C_1 
REMARK    2  A    between atoms: C_4  and  C_1 
REMARK    3  A    between atoms: N_2  and  C_8 
REMARK    4  A    between atoms: O_19  and  C_3 
REMARK    5  A    between atoms: C_14  and  C_4 
REMARK    6  A    between atoms: C_20  and  N_7 
REMARK    7  A    between atoms: C_9  and  C_20 
REMARK    8  A    between atoms: C_13  and  C_9 
REMARK    9  A    between atoms: C_23  and  C_13 
REMARK   10  A    between atoms: C_24  and  O_19 
ROOT
ATOM      1  C   UNL d   1     -55.182-101.917 -38.767  0.00  0.00     0.132 C 
ATOM      2  C   UNL d   1     -54.947-101.126 -38.706  0.00  0.00     0.106 C 
ATOM      3  N   UNL d   1     -54.714-100.335 -38.642  0.00  0.00    -0.191 NA
ENDROOT
BRANCH   1   4
ATOM      4  C   UNL d   1     -55.546-102.295 -38.144  0.00  0.00     0.310 C 
ATOM      5  O   UNL d   1     -56.116-102.855 -38.269  0.00  0.00    -0.258 OA
BRANCH   4   6
ATOM      6  O   UNL d   1     -55.328-102.105 -37.377  0.00  0.00    -0.271 OA
BRANCH   6   7
ATOM      7  C   UNL d   1     -55.028-102.692 -36.878  0.00  0.00     0.126 C 
ATOM      8  C   UNL d   1     -55.406-102.836 -36.151  0.00  0.00     0.029 C 
ENDBRANCH   6   7
ENDBRANCH   4   6
ENDBRANCH   1   4
BRANCH   1   9
ATOM      9  C   UNL d   1     -55.047-102.328 -39.463  0.00  0.00     0.016 C 
BRANCH   9  10
ATOM     10  C   UNL d   1     -55.033-101.904 -40.194  0.00  0.00     0.001 A 
ATOM     11  C   UNL d   1     -55.146-101.069 -40.218  0.00  0.00     0.002 A 
ATOM     12  C   UNL d   1     -55.128-100.680 -40.931  0.00  0.00     0.018 A 
ATOM     13  C   UNL d   1     -55.002-101.076 -41.634  0.00  0.00     0.064 A 
ATOM     14  C   UNL d   1     -54.892-101.884 -41.619  0.00  0.00     0.018 A 
ATOM     15  C   UNL d   1     -54.907-102.297 -40.900  0.00  0.00     0.002 A 
BRANCH  13  16
ATOM     16  N   UNL d   1     -54.987-100.662 -42.354  0.00  0.00    -0.301 N 
ATOM     17  C   UNL d   1     -54.728-101.025 -43.039  0.00  0.00     0.100 A 
ATOM     18  C   UNL d   1     -54.713-100.611 -43.758  0.00  0.00     0.100 A 
ATOM     19  N   UNL d   1     -54.957 -99.833 -43.792  0.00  0.00    -0.300 N 
ATOM     20  C   UNL d   1     -55.228 -99.445 -43.088  0.00  0.00     0.100 A 
ATOM     21  C   UNL d   1     -55.236 -99.872 -42.381  0.00  0.00     0.100 A 
BRANCH  19  22
ATOM     22  C   UNL d   1     -54.942 -99.419 -44.512  0.00  0.00     0.080 C 
BRANCH  22  23
ATOM     23  C   UNL d   1     -54.731 -99.810 -45.220  0.00  0.00     0.019 C 
BRANCH  23  24
ATOM     24  C   UNL d   1     -55.143-100.238 -45.701  0.00  0.00     0.002 C 
BRANCH  24  25
ATOM     25  C   UNL d   1     -55.224-101.036 -45.559  0.00  0.00     0.000 A 
ATOM     26  C   UNL d   1     -54.838-101.563 -46.040  0.00  0.00     0.000 A 
ATOM     27  C   UNL d   1     -54.910-102.374 -45.908  0.00  0.00     0.000 A 
ATOM     28  C   UNL d   1     -55.371-102.652 -45.293  0.00  0.00     0.000 A 
ATOM     29  C   UNL d   1     -55.764-102.106 -44.804  0.00  0.00     0.000 A 
ATOM     30  C   UNL d   1     -55.687-101.296 -44.942  0.00  0.00     0.000 A 
ENDBRANCH  24  25
ENDBRANCH  23  24
ENDBRANCH  22  23
ENDBRANCH  19  22
ENDBRANCH  13  16
ENDBRANCH   9  10
ENDBRANCH   1   9
TORSDOF 10
ENDMDL
