MODEL 1
REMARK VINA RESULT:      -7.5      0.000      0.000
REMARK  4 active torsions:
REMARK  status: ('A' for Active; 'I' for Inactive)
REMARK    1  A    between atoms: N_2  and  C_1 
REMARK    2  A    between atoms: C_9  and  C_3 
REMARK    3  A    between atoms: O_15  and  C_9 
REMARK    4  A    between atoms: C_18  and  O_15 
ROOT
ATOM      1  C   UNL d   1     -48.262  13.046  22.528  0.00  0.00     0.105 A 
ATOM      2  C   UNL d   1     -48.111  13.854  22.612  0.00  0.00     0.086 A 
ATOM      3  S   UNL d   1     -47.556  12.656  22.677  0.00  0.00    -0.069 SA
ATOM      4  C   UNL d   1     -47.321  13.950  22.810  0.00  0.00     0.013 A 
ATOM      5  C   UNL d   1     -46.976  13.213  22.851  0.00  0.00     0.031 A 
ATOM      6  C   UNL d   1     -46.932  14.665  22.946  0.00  0.00     0.001 C 
ATOM      7  C   UNL d   1     -46.187  13.053  23.033  0.00  0.00     0.007 C 
ENDROOT
BRANCH   1   8
ATOM      8  N   UNL d   1     -49.003  12.739  22.330  0.00  0.00    -0.236 N 
ATOM      9  C   UNL d   1     -49.383  12.680  21.604  0.00  0.00     0.268 A 
ATOM     10  C   UNL d   1     -50.120  12.321  21.738  0.00  0.00     0.066 A 
ATOM     11  O   UNL d   1     -49.087  12.933  20.864  0.00  0.00    -0.267 OA
ATOM     12  C   UNL d   1     -50.176  12.167  22.540  0.00  0.00     0.066 A 
ATOM     13  C   UNL d   1     -49.494  12.422  22.904  0.00  0.00     0.268 A 
ATOM     14  O   UNL d   1     -49.330  12.371  23.698  0.00  0.00    -0.267 OA
ENDBRANCH   1   8
BRANCH   2  15
ATOM     15  C   UNL d   1     -48.669  14.465  22.512  0.00  0.00     0.302 C 
ATOM     16  O   UNL d   1     -48.844  14.746  21.746  0.00  0.00    -0.259 OA
BRANCH  15  17
ATOM     17  O   UNL d   1     -49.037  14.783  23.162  0.00  0.00    -0.271 OA
BRANCH  17  18
ATOM     18  C   UNL d   1     -49.418  15.522  23.100  0.00  0.00     0.126 C 
ATOM     19  C   UNL d   1     -49.943  15.768  23.690  0.00  0.00     0.029 C 
ENDBRANCH  17  18
ENDBRANCH  15  17
ENDBRANCH   2  15
TORSDOF 4
ENDMDL
MODEL 2
REMARK VINA RESULT:      -6.6      1.087      2.324
REMARK  4 active torsions:
REMARK  status: ('A' for Active; 'I' for Inactive)
REMARK    1  A    between atoms: N_2  and  C_1 
REMARK    2  A    between atoms: C_9  and  C_3 
REMARK    3  A    between atoms: O_15  and  C_9 
REMARK    4  A    between atoms: C_18  and  O_15 
ROOT
ATOM      1  C   UNL d   1     -49.946  13.903  22.737  0.00  0.00     0.105 A 
ATOM      2  C   UNL d   1     -49.368  14.492  22.766  0.00  0.00     0.086 A 
ATOM      3  S   UNL d   1     -50.621  14.216  23.084  0.00  0.00    -0.069 SA
ATOM      4  C   UNL d   1     -49.690  15.154  23.127  0.00  0.00     0.013 A 
ATOM      5  C   UNL d   1     -50.463  14.988  23.324  0.00  0.00     0.031 A 
ATOM      6  C   UNL d   1     -49.308  15.871  23.271  0.00  0.00     0.001 C 
ATOM      7  C   UNL d   1     -50.993  15.498  23.698  0.00  0.00     0.007 C 
ENDROOT
BRANCH   1   8
ATOM      8  N   UNL d   1     -49.821  13.156  22.410  0.00  0.00    -0.236 N 
ATOM      9  C   UNL d   1     -49.819  12.905  21.627  0.00  0.00     0.268 A 
ATOM     10  C   UNL d   1     -49.661  12.090  21.628  0.00  0.00     0.066 A 
ATOM     11  O   UNL d   1     -49.951  13.381  20.951  0.00  0.00    -0.267 OA
ATOM     12  C   UNL d   1     -49.569  11.858  22.407  0.00  0.00     0.066 A 
ATOM     13  C   UNL d   1     -49.667  12.508  22.887  0.00  0.00     0.268 A 
ATOM     14  O   UNL d   1     -49.620  12.513  23.698  0.00  0.00    -0.267 OA
ENDBRANCH   1   8
BRANCH   2  15
ATOM     15  C   UNL d   1     -48.589  14.423  22.476  0.00  0.00     0.302 C 
ATOM     16  O   UNL d   1     -48.439  14.532  21.663  0.00  0.00    -0.259 OA
BRANCH  15  17
ATOM     17  O   UNL d   1     -47.985  14.250  22.989  0.00  0.00    -0.271 OA
BRANCH  17  18
ATOM     18  C   UNL d   1     -47.198  14.426  22.774  0.00  0.00     0.126 C 
ATOM     19  C   UNL d   1     -46.571  14.022  23.130  0.00  0.00     0.029 C 
ENDBRANCH  17  18
ENDBRANCH  15  17
ENDBRANCH   2  15
TORSDOF 4
ENDMDL
MODEL 3
REMARK VINA RESULT:      -6.5      1.255      2.501
REMARK  4 active torsions:
REMARK  status: ('A' for Active; 'I' for Inactive)
REMARK    1  A    between atoms: N_2  and  C_1 
REMARK    2  A    between atoms: C_9  and  C_3 
REMARK    3  A    between atoms: O_15  and  C_9 
REMARK    4  A    between atoms: C_18  and  O_15 
ROOT
ATOM      1  C   UNL d   1     -49.399  12.997  22.721  0.00  0.00     0.105 A 
ATOM      2  C   UNL d   1     -48.643  12.666  22.710  0.00  0.00     0.086 A 
ATOM      3  S   UNL d   1     -49.890  12.455  23.094  0.00  0.00    -0.069 SA
ATOM      4  C   UNL d   1     -48.677  11.931  23.072  0.00  0.00     0.013 A 
ATOM      5  C   UNL d   1     -49.445  11.798  23.310  0.00  0.00     0.031 A 
ATOM      6  C   UNL d   1     -48.049  11.407  23.182  0.00  0.00     0.001 C 
ATOM      7  C   UNL d   1     -49.727  11.126  23.698  0.00  0.00     0.007 C 
ENDROOT
BRANCH   1   8
ATOM      8  N   UNL d   1     -49.578  13.739  22.404  0.00  0.00    -0.236 N 
ATOM      9  C   UNL d   1     -49.718  13.972  21.629  0.00  0.00     0.268 A 
ATOM     10  C   UNL d   1     -49.870  14.788  21.638  0.00  0.00     0.066 A 
ATOM     11  O   UNL d   1     -49.710  13.481  20.951  0.00  0.00    -0.267 OA
ATOM     12  C   UNL d   1     -49.820  15.038  22.416  0.00  0.00     0.066 A 
ATOM     13  C   UNL d   1     -49.641  14.398  22.886  0.00  0.00     0.268 A 
ATOM     14  O   UNL d   1     -49.544  14.412  23.692  0.00  0.00    -0.267 OA
ENDBRANCH   1   8
BRANCH   2  15
ATOM     15  C   UNL d   1     -47.962  13.020  22.384  0.00  0.00     0.302 C 
ATOM     16  O   UNL d   1     -47.820  12.969  21.563  0.00  0.00    -0.259 OA
BRANCH  15  17
ATOM     17  O   UNL d   1     -47.443  13.412  22.869  0.00  0.00    -0.271 OA
BRANCH  17  18
ATOM     18  C   UNL d   1     -46.644  13.490  22.642  0.00  0.00     0.126 C 
ATOM     19  C   UNL d   1     -46.186  14.108  22.945  0.00  0.00     0.029 C 
ENDBRANCH  17  18
ENDBRANCH  15  17
ENDBRANCH   2  15
TORSDOF 4
ENDMDL
MODEL 4
REMARK VINA RESULT:      -6.4      1.062      2.293
REMARK  4 active torsions:
REMARK  status: ('A' for Active; 'I' for Inactive)
REMARK    1  A    between atoms: N_2  and  C_1 
REMARK    2  A    between atoms: C_9  and  C_3 
REMARK    3  A    between atoms: O_15  and  C_9 
REMARK    4  A    between atoms: C_18  and  O_15 
ROOT
ATOM      1  C   UNL d   1     -48.670  12.636  22.744  0.00  0.00     0.105 A 
ATOM      2  C   UNL d   1     -49.352  13.100  22.790  0.00  0.00     0.086 A 
ATOM      3  S   UNL d   1     -48.854  11.910  23.080  0.00  0.00    -0.069 SA
ATOM      4  C   UNL d   1     -49.941  12.659  23.150  0.00  0.00     0.013 A 
ATOM      5  C   UNL d   1     -49.638  11.924  23.331  0.00  0.00     0.031 A 
ATOM      6  C   UNL d   1     -50.713  12.905  23.309  0.00  0.00     0.001 C 
ATOM      7  C   UNL d   1     -50.041  11.305  23.698  0.00  0.00     0.007 C 
ENDROOT
BRANCH   1   8
ATOM      8  N   UNL d   1     -47.961  12.899  22.412  0.00  0.00    -0.236 N 
ATOM      9  C   UNL d   1     -47.725  12.960  21.627  0.00  0.00     0.268 A 
ATOM     10  C   UNL d   1     -46.951  13.260  21.623  0.00  0.00     0.066 A 
ATOM     11  O   UNL d   1     -48.178  12.758  20.953  0.00  0.00    -0.267 OA
ATOM     12  C   UNL d   1     -46.729  13.376  22.402  0.00  0.00     0.066 A 
ATOM     13  C   UNL d   1     -47.345  13.156  22.886  0.00  0.00     0.268 A 
ATOM     14  O   UNL d   1     -47.347  13.186  23.698  0.00  0.00    -0.267 OA
ENDBRANCH   1   8
BRANCH   2  15
ATOM     15  C   UNL d   1     -49.425  13.884  22.516  0.00  0.00     0.302 C 
ATOM     16  O   UNL d   1     -49.554  14.028  21.704  0.00  0.00    -0.259 OA
BRANCH  15  17
ATOM     17  O   UNL d   1     -49.372  14.499  23.042  0.00  0.00    -0.271 OA
BRANCH  17  18
ATOM     18  C   UNL d   1     -49.701  15.240  22.845  0.00  0.00     0.126 C 
ATOM     19  C   UNL d   1     -49.576  15.893  23.337  0.00  0.00     0.029 C 
ENDBRANCH  17  18
ENDBRANCH  15  17
ENDBRANCH   2  15
TORSDOF 4
ENDMDL
MODEL 5
REMARK VINA RESULT:      -6.3      1.042      2.196
REMARK  4 active torsions:
REMARK  status: ('A' for Active; 'I' for Inactive)
REMARK    1  A    between atoms: N_2  and  C_1 
REMARK    2  A    between atoms: C_9  and  C_3 
REMARK    3  A    between atoms: O_15  and  C_9 
REMARK    4  A    between atoms: C_18  and  O_15 
ROOT
ATOM      1  C   UNL d   1     -48.215  13.727  22.529  0.00  0.00     0.105 A 
ATOM      2  C   UNL d   1     -48.127  12.940  22.761  0.00  0.00     0.086 A 
ATOM      3  S   UNL d   1     -47.496  14.097  22.670  0.00  0.00    -0.069 SA
ATOM      4  C   UNL d   1     -47.363  12.835  23.040  0.00  0.00     0.013 A 
ATOM      5  C   UNL d   1     -46.971  13.547  22.985  0.00  0.00     0.031 A 
ATOM      6  C   UNL d   1     -47.036  12.135  23.328  0.00  0.00     0.001 C 
ATOM      7  C   UNL d   1     -46.189  13.692  23.204  0.00  0.00     0.007 C 
ENDROOT
BRANCH   1   8
ATOM      8  N   UNL d   1     -48.915  14.037  22.219  0.00  0.00    -0.236 N 
ATOM      9  C   UNL d   1     -49.257  13.952  21.477  0.00  0.00     0.268 A 
ATOM     10  C   UNL d   1     -49.963  14.389  21.478  0.00  0.00     0.066 A 
ATOM     11  O   UNL d   1     -48.954  13.508  20.836  0.00  0.00    -0.267 OA
ATOM     12  C   UNL d   1     -50.039  14.732  22.217  0.00  0.00     0.066 A 
ATOM     13  C   UNL d   1     -49.399  14.517  22.672  0.00  0.00     0.268 A 
ATOM     14  O   UNL d   1     -49.265  14.742  23.441  0.00  0.00    -0.267 OA
ENDBRANCH   1   8
BRANCH   2  15
ATOM     15  C   UNL d   1     -48.718  12.352  22.719  0.00  0.00     0.302 C 
ATOM     16  O   UNL d   1     -48.808  11.906  22.019  0.00  0.00    -0.259 OA
BRANCH  15  17
ATOM     17  O   UNL d   1     -49.198  12.219  23.359  0.00  0.00    -0.271 OA
BRANCH  17  18
ATOM     18  C   UNL d   1     -49.556  11.472  23.458  0.00  0.00     0.126 C 
ATOM     19  C   UNL d   1     -50.345  11.420  23.698  0.00  0.00     0.029 C 
ENDBRANCH  17  18
ENDBRANCH  15  17
ENDBRANCH   2  15
TORSDOF 4
ENDMDL
