MODEL 1
REMARK VINA RESULT:      -8.1      0.000      0.000
REMARK  5 active torsions:
REMARK  status: ('A' for Active; 'I' for Inactive)
REMARK    1  A    between atoms: C_7  and  C_1 
REMARK    2  A    between atoms: C_13  and  N_3 
REMARK       I    between atoms: C_6  and  N_10 
REMARK    3  A    between atoms: C_8  and  C_6 
REMARK    4  A    between atoms: C_14  and  C_7 
REMARK    5  A    between atoms: N_10  and  C_14 
ROOT
ATOM      1  C   UNL d   1      52.929  32.301  53.115  0.00  0.00     0.058 C 
ENDROOT
BRANCH   1   2
ATOM      2  C   UNL d   1      53.339  32.781  53.650  0.00  0.00     0.149 A 
ATOM      3  N   UNL d   1      54.100  32.657  53.924  0.00  0.00    -0.227 NA
ATOM      4  C   UNL d   1      54.290  33.265  54.444  0.00  0.00     0.099 A 
ATOM      5  C   UNL d   1      54.981  33.420  54.883  0.00  0.00     0.021 A 
ATOM      6  C   UNL d   1      53.642  33.772  54.495  0.00  0.00     0.083 A 
ATOM      7  C   UNL d   1      55.009  34.089  55.370  0.00  0.00     0.002 A 
ATOM      8  C   UNL d   1      54.360  34.593  55.417  0.00  0.00     0.002 A 
ATOM      9  C   UNL d   1      53.671  34.441  54.982  0.00  0.00     0.019 A 
ATOM     10  N   UNL d   1      53.048  33.472  54.000  0.00  0.00    -0.289 N 
BRANCH  10  11
ATOM     11  C   UNL d   1      52.299  33.800  53.875  0.00  0.00     0.082 C 
ATOM     12  C   UNL d   1      52.187  34.346  53.263  0.00  0.00     0.021 C 
ENDBRANCH  10  11
ENDBRANCH   1   2
BRANCH   1  13
ATOM     13  C   UNL d   1      53.027  31.479  53.144  0.00  0.00     0.105 C 
BRANCH  13  14
ATOM     14  N   UNL d   1      52.911  31.022  52.474  0.00  0.00    -0.206 NA
ATOM     15  C   UNL d   1      52.903  30.199  52.528  0.00  0.00     0.279 C 
ATOM     16  O   UNL d   1      52.786  29.749  51.850  0.00  0.00    -0.265 OA
BRANCH  15  17
ATOM     17  C   UNL d   1      53.011  29.835  53.256  0.00  0.00     0.058 A 
ATOM     18  C   UNL d   1      52.362  29.683  53.736  0.00  0.00     0.007 A 
ATOM     19  C   UNL d   1      52.470  29.319  54.464  0.00  0.00     0.030 A 
ATOM     20  C   UNL d   1      53.222  29.104  54.720  0.00  0.00     0.140 A 
ATOM     21  C   UNL d   1      53.869  29.258  54.235  0.00  0.00     0.030 A 
ATOM     22  F   UNL d   1      53.334  28.735  55.457  0.00  0.00    -0.204 F 
ATOM     23  C   UNL d   1      53.764  29.619  53.512  0.00  0.00     0.007 A 
ENDBRANCH  15  17
ENDBRANCH  13  14
ENDBRANCH   1  13
TORSDOF 5
ENDMDL
MODEL 2
REMARK VINA RESULT:      -7.9      0.614      1.482
REMARK  5 active torsions:
REMARK  status: ('A' for Active; 'I' for Inactive)
REMARK    1  A    between atoms: C_7  and  C_1 
REMARK    2  A    between atoms: C_13  and  N_3 
REMARK       I    between atoms: C_6  and  N_10 
REMARK    3  A    between atoms: C_8  and  C_6 
REMARK    4  A    between atoms: C_14  and  C_7 
REMARK    5  A    between atoms: N_10  and  C_14 
ROOT
ATOM      1  C   UNL d   1      53.901  32.322  53.481  0.00  0.00     0.058 C 
ENDROOT
BRANCH   1   2
ATOM      2  C   UNL d   1      53.611  33.061  53.718  0.00  0.00     0.149 A 
ATOM      3  N   UNL d   1      53.084  33.529  53.301  0.00  0.00    -0.227 NA
ATOM      4  C   UNL d   1      52.946  34.213  53.735  0.00  0.00     0.099 A 
ATOM      5  C   UNL d   1      52.465  34.876  53.582  0.00  0.00     0.021 A 
ATOM      6  C   UNL d   1      53.391  34.172  54.428  0.00  0.00     0.083 A 
ATOM      7  C   UNL d   1      52.439  35.493  54.134  0.00  0.00     0.002 A 
ATOM      8  C   UNL d   1      52.884  35.448  54.825  0.00  0.00     0.002 A 
ATOM      9  C   UNL d   1      53.364  34.789  54.979  0.00  0.00     0.019 A 
ATOM     10  N   UNL d   1      53.806  33.455  54.419  0.00  0.00    -0.289 N 
BRANCH  10  11
ATOM     11  C   UNL d   1      54.323  33.178  55.003  0.00  0.00     0.082 C 
ATOM     12  C   UNL d   1      55.104  33.451  55.022  0.00  0.00     0.021 C 
ENDBRANCH  10  11
ENDBRANCH   1   2
BRANCH   1  13
ATOM     13  C   UNL d   1      53.384  31.677  53.432  0.00  0.00     0.105 C 
BRANCH  13  14
ATOM     14  N   UNL d   1      53.216  31.335  52.707  0.00  0.00    -0.206 NA
ATOM     15  C   UNL d   1      53.081  30.522  52.653  0.00  0.00     0.279 C 
ATOM     16  O   UNL d   1      52.913  30.187  51.921  0.00  0.00    -0.265 OA
BRANCH  15  17
ATOM     17  C   UNL d   1      53.114  30.055  53.327  0.00  0.00     0.058 A 
ATOM     18  C   UNL d   1      52.428  29.905  53.753  0.00  0.00     0.007 A 
ATOM     19  C   UNL d   1      52.461  29.439  54.428  0.00  0.00     0.030 A 
ATOM     20  C   UNL d   1      53.175  29.118  54.683  0.00  0.00     0.140 A 
ATOM     21  C   UNL d   1      53.859  29.271  54.253  0.00  0.00     0.030 A 
ATOM     22  F   UNL d   1      53.211  28.645  55.367  0.00  0.00    -0.204 F 
ATOM     23  C   UNL d   1      53.829  29.734  53.583  0.00  0.00     0.007 A 
ENDBRANCH  15  17
ENDBRANCH  13  14
ENDBRANCH   1  13
TORSDOF 5
ENDMDL
MODEL 3
REMARK VINA RESULT:      -7.8      2.298      4.474
REMARK  5 active torsions:
REMARK  status: ('A' for Active; 'I' for Inactive)
REMARK    1  A    between atoms: C_7  and  C_1 
REMARK    2  A    between atoms: C_13  and  N_3 
REMARK       I    between atoms: C_6  and  N_10 
REMARK    3  A    between atoms: C_8  and  C_6 
REMARK    4  A    between atoms: C_14  and  C_7 
REMARK    5  A    between atoms: N_10  and  C_14 
ROOT
ATOM      1  C   UNL d   1      53.618  33.014  53.284  0.00  0.00     0.058 C 
ENDROOT
BRANCH   1   2
ATOM      2  C   UNL d   1      53.468  32.201  53.335  0.00  0.00     0.149 A 
ATOM      3  N   UNL d   1      53.006  31.762  52.820  0.00  0.00    -0.227 NA
ATOM      4  C   UNL d   1      53.007  30.981  53.075  0.00  0.00     0.099 A 
ATOM      5  C   UNL d   1      52.636  30.300  52.769  0.00  0.00     0.021 A 
ATOM      6  C   UNL d   1      53.472  30.932  53.754  0.00  0.00     0.083 A 
ATOM      7  C   UNL d   1      52.741  29.574  53.154  0.00  0.00     0.002 A 
ATOM      8  C   UNL d   1      53.206  29.530  53.832  0.00  0.00     0.002 A 
ATOM      9  C   UNL d   1      53.576  30.206  54.139  0.00  0.00     0.019 A 
ATOM     10  N   UNL d   1      53.761  31.692  53.918  0.00  0.00    -0.289 N 
BRANCH  10  11
ATOM     11  C   UNL d   1      54.252  31.907  54.548  0.00  0.00     0.082 C 
ATOM     12  C   UNL d   1      53.917  32.137  55.269  0.00  0.00     0.021 C 
ENDBRANCH  10  11
ENDBRANCH   1   2
BRANCH   1  13
ATOM     13  C   UNL d   1      52.984  33.543  53.219  0.00  0.00     0.105 C 
BRANCH  13  14
ATOM     14  N   UNL d   1      53.064  34.319  53.471  0.00  0.00    -0.206 NA
ATOM     15  C   UNL d   1      52.445  34.855  53.366  0.00  0.00     0.279 C 
ATOM     16  O   UNL d   1      52.533  35.631  53.622  0.00  0.00    -0.265 OA
BRANCH  15  17
ATOM     17  C   UNL d   1      51.747  34.611  53.009  0.00  0.00     0.058 A 
ATOM     18  C   UNL d   1      51.096  34.422  53.473  0.00  0.00     0.007 A 
ATOM     19  C   UNL d   1      50.398  34.179  53.116  0.00  0.00     0.030 A 
ATOM     20  C   UNL d   1      50.343  34.121  52.296  0.00  0.00     0.140 A 
ATOM     21  C   UNL d   1      50.998  34.311  51.836  0.00  0.00     0.030 A 
ATOM     22  F   UNL d   1      49.637  33.874  51.932  0.00  0.00    -0.204 F 
ATOM     23  C   UNL d   1      51.691  34.554  52.189  0.00  0.00     0.007 A 
ENDBRANCH  15  17
ENDBRANCH  13  14
ENDBRANCH   1  13
TORSDOF 5
ENDMDL
MODEL 4
REMARK VINA RESULT:      -6.5      2.165      4.516
REMARK  5 active torsions:
REMARK  status: ('A' for Active; 'I' for Inactive)
REMARK    1  A    between atoms: C_7  and  C_1 
REMARK    2  A    between atoms: C_13  and  N_3 
REMARK       I    between atoms: C_6  and  N_10 
REMARK    3  A    between atoms: C_8  and  C_6 
REMARK    4  A    between atoms: C_14  and  C_7 
REMARK    5  A    between atoms: N_10  and  C_14 
ROOT
ATOM      1  C   UNL d   1      54.165  32.254  53.517  0.00  0.00     0.058 C 
ENDROOT
BRANCH   1   2
ATOM      2  C   UNL d   1      53.799  31.513  53.565  0.00  0.00     0.149 A 
ATOM      3  N   UNL d   1      54.010  30.902  54.068  0.00  0.00    -0.227 NA
ATOM      4  C   UNL d   1      53.503  30.270  53.933  0.00  0.00     0.099 A 
ATOM      5  C   UNL d   1      53.459  29.513  54.279  0.00  0.00     0.021 A 
ATOM      6  C   UNL d   1      52.971  30.488  53.341  0.00  0.00     0.083 A 
ATOM      7  C   UNL d   1      52.877  28.983  54.024  0.00  0.00     0.002 A 
ATOM      8  C   UNL d   1      52.348  29.205  53.433  0.00  0.00     0.002 A 
ATOM      9  C   UNL d   1      52.389  29.958  53.087  0.00  0.00     0.019 A 
ATOM     10  N   UNL d   1      53.154  31.263  53.111  0.00  0.00    -0.289 N 
BRANCH  10  11
ATOM     11  C   UNL d   1      52.766  31.710  52.533  0.00  0.00     0.082 C 
ATOM     12  C   UNL d   1      52.048  32.079  52.714  0.00  0.00     0.021 C 
ENDBRANCH  10  11
ENDBRANCH   1   2
BRANCH   1  13
ATOM     13  C   UNL d   1      54.091  32.788  54.147  0.00  0.00     0.105 C 
BRANCH  13  14
ATOM     14  N   UNL d   1      54.757  33.071  54.531  0.00  0.00    -0.206 NA
ATOM     15  C   UNL d   1      54.770  33.841  54.829  0.00  0.00     0.279 C 
ATOM     16  O   UNL d   1      55.442  34.116  55.213  0.00  0.00    -0.265 OA
BRANCH  15  17
ATOM     17  C   UNL d   1      54.113  34.326  54.739  0.00  0.00     0.058 A 
ATOM     18  C   UNL d   1      53.521  34.319  55.308  0.00  0.00     0.007 A 
ATOM     19  C   UNL d   1      52.865  34.803  55.219  0.00  0.00     0.030 A 
ATOM     20  C   UNL d   1      52.792  35.297  54.565  0.00  0.00     0.140 A 
ATOM     21  C   UNL d   1      53.388  35.300  53.997  0.00  0.00     0.030 A 
ATOM     22  F   UNL d   1      52.128  35.789  54.472  0.00  0.00    -0.204 F 
ATOM     23  C   UNL d   1      54.041  34.820  54.084  0.00  0.00     0.007 A 
ENDBRANCH  15  17
ENDBRANCH  13  14
ENDBRANCH   1  13
TORSDOF 5
ENDMDL
MODEL 5
REMARK VINA RESULT:      -6.4      3.692      5.557
REMARK  5 active torsions:
REMARK  status: ('A' for Active; 'I' for Inactive)
REMARK    1  A    between atoms: C_7  and  C_1 
REMARK    2  A    between atoms: C_13  and  N_3 
REMARK       I    between atoms: C_6  and  N_10 
REMARK    3  A    between atoms: C_8  and  C_6 
REMARK    4  A    between atoms: C_14  and  C_7 
REMARK    5  A    between atoms: N_10  and  C_14 
ROOT
ATOM      1  C   UNL d   1      49.870  34.333  52.301  0.00  0.00     0.058 C 
ENDROOT
BRANCH   1   2
ATOM      2  C   UNL d   1      49.283  34.877  52.514  0.00  0.00     0.149 A 
ATOM      3  N   UNL d   1      49.144  35.166  53.267  0.00  0.00    -0.227 NA
ATOM      4  C   UNL d   1      48.513  35.692  53.229  0.00  0.00     0.099 A 
ATOM      5  C   UNL d   1      48.135  36.145  53.818  0.00  0.00     0.021 A 
ATOM      6  C   UNL d   1      48.256  35.731  52.446  0.00  0.00     0.083 A 
ATOM      7  C   UNL d   1      47.501  36.634  53.609  0.00  0.00     0.002 A 
ATOM      8  C   UNL d   1      47.248  36.669  52.826  0.00  0.00     0.002 A 
ATOM      9  C   UNL d   1      47.622  36.220  52.238  0.00  0.00     0.019 A 
ATOM     10  N   UNL d   1      48.736  35.223  51.999  0.00  0.00    -0.289 N 
BRANCH  10  11
ATOM     11  C   UNL d   1      48.681  35.085  51.185  0.00  0.00     0.082 C 
ATOM     12  C   UNL d   1      48.133  34.534  50.899  0.00  0.00     0.021 C 
ENDBRANCH  10  11
ENDBRANCH   1   2
BRANCH   1  13
ATOM     13  C   UNL d   1      50.482  34.163  52.833  0.00  0.00     0.105 C 
BRANCH  13  14
ATOM     14  N   UNL d   1      50.787  33.404  52.884  0.00  0.00    -0.206 NA
ATOM     15  C   UNL d   1      51.555  33.284  53.163  0.00  0.00     0.279 C 
ATOM     16  O   UNL d   1      51.854  32.519  53.211  0.00  0.00    -0.265 OA
BRANCH  15  17
ATOM     17  C   UNL d   1      52.015  33.925  53.388  0.00  0.00     0.058 A 
ATOM     18  C   UNL d   1      52.082  34.119  54.184  0.00  0.00     0.007 A 
ATOM     19  C   UNL d   1      52.541  34.760  54.410  0.00  0.00     0.030 A 
ATOM     20  C   UNL d   1      52.937  35.214  53.848  0.00  0.00     0.140 A 
ATOM     21  C   UNL d   1      52.866  35.016  53.052  0.00  0.00     0.030 A 
ATOM     22  F   UNL d   1      53.403  35.864  54.074  0.00  0.00    -0.204 F 
ATOM     23  C   UNL d   1      52.411  34.379  52.826  0.00  0.00     0.007 A 
ENDBRANCH  15  17
ENDBRANCH  13  14
ENDBRANCH   1  13
TORSDOF 5
ENDMDL
MODEL 6
REMARK VINA RESULT:      -6.2      1.690      3.034
REMARK  5 active torsions:
REMARK  status: ('A' for Active; 'I' for Inactive)
REMARK    1  A    between atoms: C_7  and  C_1 
REMARK    2  A    between atoms: C_13  and  N_3 
REMARK       I    between atoms: C_6  and  N_10 
REMARK    3  A    between atoms: C_8  and  C_6 
REMARK    4  A    between atoms: C_14  and  C_7 
REMARK    5  A    between atoms: N_10  and  C_14 
ROOT
ATOM      1  C   UNL d   1      53.067  33.856  53.235  0.00  0.00     0.058 C 
ENDROOT
BRANCH   1   2
ATOM      2  C   UNL d   1      52.282  34.026  53.036  0.00  0.00     0.149 A 
ATOM      3  N   UNL d   1      51.899  33.803  52.347  0.00  0.00    -0.227 NA
ATOM      4  C   UNL d   1      51.128  34.085  52.376  0.00  0.00     0.099 A 
ATOM      5  C   UNL d   1      50.497  34.025  51.835  0.00  0.00     0.021 A 
ATOM      6  C   UNL d   1      51.028  34.488  53.089  0.00  0.00     0.083 A 
ATOM      7  C   UNL d   1      49.769  34.373  52.021  0.00  0.00     0.002 A 
ATOM      8  C   UNL d   1      49.674  34.775  52.734  0.00  0.00     0.002 A 
ATOM      9  C   UNL d   1      50.301  34.836  53.274  0.00  0.00     0.019 A 
ATOM     10  N   UNL d   1      51.747  34.452  53.501  0.00  0.00    -0.289 N 
BRANCH  10  11
ATOM     11  C   UNL d   1      51.905  34.780  54.244  0.00  0.00     0.082 C 
ATOM     12  C   UNL d   1      52.395  35.445  54.302  0.00  0.00     0.021 C 
ENDBRANCH  10  11
ENDBRANCH   1   2
BRANCH   1  13
ATOM     13  C   UNL d   1      53.339  33.074  53.197  0.00  0.00     0.105 C 
BRANCH  13  14
ATOM     14  N   UNL d   1      54.140  32.910  53.251  0.00  0.00    -0.206 NA
ATOM     15  C   UNL d   1      54.399  32.133  53.355  0.00  0.00     0.279 C 
ATOM     16  O   UNL d   1      55.204  31.978  53.408  0.00  0.00    -0.265 OA
BRANCH  15  17
ATOM     17  C   UNL d   1      53.853  31.523  53.405  0.00  0.00     0.058 A 
ATOM     18  C   UNL d   1      53.591  31.269  54.141  0.00  0.00     0.007 A 
ATOM     19  C   UNL d   1      53.045  30.658  54.191  0.00  0.00     0.030 A 
ATOM     20  C   UNL d   1      52.755  30.296  53.511  0.00  0.00     0.140 A 
ATOM     21  C   UNL d   1      53.020  30.554  52.776  0.00  0.00     0.030 A 
ATOM     22  F   UNL d   1      52.202  29.677  53.559  0.00  0.00    -0.204 F 
ATOM     23  C   UNL d   1      53.563  31.160  52.724  0.00  0.00     0.007 A 
ENDBRANCH  15  17
ENDBRANCH  13  14
ENDBRANCH   1  13
TORSDOF 5
ENDMDL
