MODEL 1
REMARK VINA RESULT:     333.0      0.000      0.000
REMARK  5 active torsions:
REMARK  status: ('A' for Active; 'I' for Inactive)
REMARK    1  A    between atoms: N_2  and  S_1 
REMARK    2  A    between atoms: C_4  and  S_1 
REMARK    3  A    between atoms: C_5  and  C_9 
REMARK       I    between atoms: N_8  and  C_5 
REMARK    4  A    between atoms: C_17  and  N_8 
REMARK    5  A    between atoms: C_18  and  C_17 
ROOT
ATOM      1  C   UNL d   1     -57.965-100.582 -42.402  0.00  0.00     0.104 A 
ATOM      2  C   UNL d   1     -58.466-100.007 -43.804  0.00  0.00     0.058 A 
ATOM      3  C   UNL d   1     -58.747-100.594 -42.578  0.00  0.00     0.013 A 
ATOM      4  C   UNL d   1     -57.421-100.279 -42.929  0.00  0.00     0.013 A 
ATOM      5  C   UNL d   1     -58.998-100.306 -43.281  0.00  0.00     0.005 A 
ATOM      6  C   UNL d   1     -57.689 -99.993 -43.633  0.00  0.00     0.005 A 
ENDROOT
BRANCH   1   7
ATOM      7  S   UNL d   1     -57.703-100.869 -41.698  0.00  0.00     0.271 S 
ATOM      8  O   UNL d   1     -58.259-101.434 -41.706  0.00  0.00    -0.200 OA
ATOM      9  O   UNL d   1     -57.068-100.173 -41.752  0.00  0.00    -0.200 OA
BRANCH   7  10
ATOM     10  N   UNL d   1     -57.355-101.116 -40.933  0.00  0.00    -0.231 N 
ATOM     11  C   UNL d   1     -56.624-100.721 -40.652  0.00  0.00     0.075 A 
ATOM     12  C   UNL d   1     -56.272-100.964 -39.888  0.00  0.00     0.017 A 
ATOM     13  C   UNL d   1     -56.241-100.097 -41.110  0.00  0.00     0.018 A 
ATOM     14  C   UNL d   1     -55.545-100.582 -39.592  0.00  0.00     0.002 A 
ATOM     15  C   UNL d   1     -56.649-101.599 -39.406  0.00  0.00     0.003 A 
ATOM     16  C   UNL d   1     -55.169 -99.957 -40.061  0.00  0.00     0.000 A 
ATOM     17  C   UNL d   1     -55.518 -99.710 -40.827  0.00  0.00     0.002 A 
ATOM     18  C   UNL d   1     -57.376-101.985 -39.696  0.00  0.00     0.020 A 
ATOM     19  C   UNL d   1     -57.731-101.741 -40.464  0.00  0.00     0.092 A 
ENDBRANCH   7  10
ENDBRANCH   1   7
BRANCH   2  20
ATOM     20  C   UNL d   1     -58.721 -99.717 -44.513  0.00  0.00     0.279 C 
ATOM     21  N   UNL d   1     -58.215 -99.301 -44.983  0.00  0.00    -0.206 NA
ATOM     22  O   UNL d   1     -59.473 -99.838 -44.754  0.00  0.00    -0.265 OA
BRANCH  21  23
ATOM     23  C   UNL d   1     -58.465 -99.012 -45.686  0.00  0.00     0.102 C 
BRANCH  23  24
ATOM     24  C   UNL d   1     -58.120 -99.264 -46.391  0.00  0.00     0.019 A 
ATOM     25  C   UNL d   1     -58.179 -98.789 -47.060  0.00  0.00     0.002 A 
ATOM     26  C   UNL d   1     -57.837 -99.035 -47.768  0.00  0.00     0.000 A 
ATOM     27  C   UNL d   1     -57.431 -99.766 -47.806  0.00  0.00     0.000 A 
ATOM     28  C   UNL d   1     -57.379-100.233 -47.129  0.00  0.00     0.000 A 
ATOM     29  C   UNL d   1     -57.724 -99.983 -46.418  0.00  0.00     0.002 A 
ENDBRANCH  23  24
ENDBRANCH  21  23
ENDBRANCH   2  20
TORSDOF 5
ENDMDL
