MODEL 1
REMARK VINA RESULT:       1.0      0.000      0.000
REMARK  4 active torsions:
REMARK  status: ('A' for Active; 'I' for Inactive)
REMARK    1  A    between atoms: C_4  and  C_1 
REMARK    2  A    between atoms: N_7  and  C_4 
REMARK    3  A    between atoms: C_10  and  C_4 
REMARK    4  A    between atoms: C_8  and  N_7 
ROOT
ATOM      1  C   UNL d   1      59.048  -1.094  29.743  0.00  0.00     0.085 C 
ENDROOT
BRANCH   1   2
ATOM      2  C   UNL d   1      58.782  -1.733  29.291  0.00  0.00     0.037 A 
ATOM      3  C   UNL d   1      58.142  -1.763  28.771  0.00  0.00     0.083 A 
ATOM      4  N   UNL d   1      58.071  -2.456  28.455  0.00  0.00    -0.245 NA
ATOM      5  C   UNL d   1      57.643  -1.125  28.613  0.00  0.00     0.021 C 
ATOM      6  C   UNL d   1      58.678  -2.957  28.752  0.00  0.00     0.081 A 
ATOM      7  C   UNL d   1      59.125  -2.503  29.277  0.00  0.00     0.021 A 
ATOM      8  C   UNL d   1      58.874  -3.755  28.609  0.00  0.00     0.019 A 
ATOM      9  C   UNL d   1      59.769  -2.845  29.662  0.00  0.00     0.002 A 
ATOM     10  C   UNL d   1      59.971  -3.629  29.530  0.00  0.00     0.000 A 
ATOM     11  C   UNL d   1      59.525  -4.082  29.005  0.00  0.00     0.002 A 
ENDBRANCH   1   2
BRANCH   1  12
ATOM     12  N   UNL d   1      58.853  -1.067  30.533  0.00  0.00    -0.227 NA
BRANCH  12  13
ATOM     13  C   UNL d   1      58.207  -0.651  30.791  0.00  0.00     0.162 A 
ATOM     14  N   UNL d   1      58.102   0.134  30.589  0.00  0.00    -0.225 NA
ATOM     15  C   UNL d   1      57.416   0.557  30.870  0.00  0.00     0.101 A 
ATOM     16  C   UNL d   1      56.887   0.158  31.332  0.00  0.00     0.021 A 
ATOM     17  C   UNL d   1      56.984  -0.623  31.536  0.00  0.00     0.005 A 
ATOM     18  C   UNL d   1      57.639  -1.039  31.273  0.00  0.00     0.039 A 
ATOM     19  C   UNL d   1      56.416  -0.992  32.013  0.00  0.00     0.000 C 
ENDBRANCH  12  13
ENDBRANCH   1  12
BRANCH   1  20
ATOM     20  C   UNL d   1      59.505  -0.495  29.398  0.00  0.00     0.021 A 
ATOM     21  C   UNL d   1      60.265  -0.375  29.689  0.00  0.00     0.022 A 
ATOM     22  C   UNL d   1      60.722   0.225  29.344  0.00  0.00     0.099 A 
ATOM     23  N   UNL d   1      60.409   0.681  28.726  0.00  0.00    -0.242 NA
ATOM     24  C   UNL d   1      59.652   0.543  28.455  0.00  0.00     0.099 A 
ATOM     25  C   UNL d   1      59.192  -0.038  28.780  0.00  0.00     0.022 A 
ENDBRANCH   1  20
TORSDOF 4
ENDMDL
MODEL 2
REMARK VINA RESULT:       1.5      3.022      5.074
REMARK  4 active torsions:
REMARK  status: ('A' for Active; 'I' for Inactive)
REMARK    1  A    between atoms: C_4  and  C_1 
REMARK    2  A    between atoms: N_7  and  C_4 
REMARK    3  A    between atoms: C_10  and  C_4 
REMARK    4  A    between atoms: C_8  and  N_7 
ROOT
ATOM      1  C   UNL d   1      56.284   0.087  32.901  0.00  0.00     0.085 C 
ENDROOT
BRANCH   1   2
ATOM      2  C   UNL d   1      57.060   0.298  32.710  0.00  0.00     0.037 A 
ATOM      3  C   UNL d   1      57.676   0.509  33.218  0.00  0.00     0.083 A 
ATOM      4  N   UNL d   1      58.315   0.668  32.832  0.00  0.00    -0.245 NA
ATOM      5  C   UNL d   1      57.606   0.543  34.040  0.00  0.00     0.021 C 
ATOM      6  C   UNL d   1      58.170   0.572  32.008  0.00  0.00     0.081 A 
ATOM      7  C   UNL d   1      57.382   0.340  31.932  0.00  0.00     0.021 A 
ATOM      8  C   UNL d   1      58.652   0.666  31.334  0.00  0.00     0.019 A 
ATOM      9  C   UNL d   1      57.071   0.201  31.181  0.00  0.00     0.002 A 
ATOM     10  C   UNL d   1      57.535   0.290  30.510  0.00  0.00     0.000 A 
ATOM     11  C   UNL d   1      58.323   0.522  30.586  0.00  0.00     0.002 A 
ENDBRANCH   1   2
BRANCH   1  12
ATOM     12  N   UNL d   1      55.733   0.678  32.999  0.00  0.00    -0.227 NA
BRANCH  12  13
ATOM     13  C   UNL d   1      55.224   0.677  33.629  0.00  0.00     0.162 A 
ATOM     14  N   UNL d   1      55.505   0.680  34.398  0.00  0.00    -0.225 NA
ATOM     15  C   UNL d   1      54.955   0.679  35.051  0.00  0.00     0.101 A 
ATOM     16  C   UNL d   1      54.165   0.675  34.882  0.00  0.00     0.021 A 
ATOM     17  C   UNL d   1      53.879   0.672  34.122  0.00  0.00     0.005 A 
ATOM     18  C   UNL d   1      54.396   0.673  33.487  0.00  0.00     0.039 A 
ATOM     19  C   UNL d   1      53.060   0.668  33.995  0.00  0.00     0.000 C 
ENDBRANCH  12  13
ENDBRANCH   1  12
BRANCH   1  20
ATOM     20  C   UNL d   1      56.073  -0.709  32.991  0.00  0.00     0.021 A 
ATOM     21  C   UNL d   1      55.613  -1.053  32.402  0.00  0.00     0.022 A 
ATOM     22  C   UNL d   1      55.402  -1.850  32.492  0.00  0.00     0.099 A 
ATOM     23  N   UNL d   1      55.653  -2.273  33.160  0.00  0.00    -0.242 NA
ATOM     24  C   UNL d   1      56.108  -1.908  33.730  0.00  0.00     0.099 A 
ATOM     25  C   UNL d   1      56.324  -1.132  33.659  0.00  0.00     0.022 A 
ENDBRANCH   1  20
TORSDOF 4
ENDMDL
MODEL 3
REMARK VINA RESULT:       1.7      0.993      3.576
REMARK  4 active torsions:
REMARK  status: ('A' for Active; 'I' for Inactive)
REMARK    1  A    between atoms: C_4  and  C_1 
REMARK    2  A    between atoms: N_7  and  C_4 
REMARK    3  A    between atoms: C_10  and  C_4 
REMARK    4  A    between atoms: C_8  and  N_7 
ROOT
ATOM      1  C   UNL d   1      58.086  -0.673  30.347  0.00  0.00     0.085 C 
ENDROOT
BRANCH   1   2
ATOM      2  C   UNL d   1      57.986  -0.336  31.095  0.00  0.00     0.037 A 
ATOM      3  C   UNL d   1      58.479   0.196  31.490  0.00  0.00     0.083 A 
ATOM      4  N   UNL d   1      58.197   0.382  32.175  0.00  0.00    -0.245 NA
ATOM      5  C   UNL d   1      59.185   0.489  31.180  0.00  0.00     0.021 C 
ATOM      6  C   UNL d   1      57.471  -0.026  32.294  0.00  0.00     0.081 A 
ATOM      7  C   UNL d   1      57.338  -0.477  31.616  0.00  0.00     0.021 A 
ATOM      8  C   UNL d   1      56.926  -0.040  32.926  0.00  0.00     0.019 A 
ATOM      9  C   UNL d   1      56.661  -0.945  31.565  0.00  0.00     0.002 A 
ATOM     10  C   UNL d   1      56.118  -0.967  32.180  0.00  0.00     0.000 A 
ATOM     11  C   UNL d   1      56.250  -0.516  32.858  0.00  0.00     0.002 A 
ENDBRANCH   1   2
BRANCH   1  12
ATOM     12  N   UNL d   1      57.916  -1.463  30.250  0.00  0.00    -0.227 NA
BRANCH  12  13
ATOM     13  C   UNL d   1      58.475  -1.983  29.979  0.00  0.00     0.162 A 
ATOM     14  N   UNL d   1      59.232  -1.989  30.290  0.00  0.00    -0.225 NA
ATOM     15  C   UNL d   1      59.809  -2.543  29.992  0.00  0.00     0.101 A 
ATOM     16  C   UNL d   1      59.582  -3.048  29.404  0.00  0.00     0.021 A 
ATOM     17  C   UNL d   1      58.833  -3.048  29.090  0.00  0.00     0.005 A 
ATOM     18  C   UNL d   1      58.270  -2.522  29.368  0.00  0.00     0.039 A 
ATOM     19  C   UNL d   1      58.644  -3.585  28.488  0.00  0.00     0.000 C 
ENDBRANCH  12  13
ENDBRANCH   1  12
BRANCH   1  20
ATOM     20  C   UNL d   1      58.355  -0.216  29.710  0.00  0.00     0.021 A 
ATOM     21  C   UNL d   1      57.821  -0.044  29.109  0.00  0.00     0.022 A 
ATOM     22  C   UNL d   1      58.089   0.413  28.471  0.00  0.00     0.099 A 
ATOM     23  N   UNL d   1      58.874   0.682  28.455  0.00  0.00    -0.242 NA
ATOM     24  C   UNL d   1      59.384   0.498  29.064  0.00  0.00     0.099 A 
ATOM     25  C   UNL d   1      59.140   0.053  29.694  0.00  0.00     0.022 A 
ENDBRANCH   1  20
TORSDOF 4
ENDMDL
MODEL 4
REMARK VINA RESULT:       3.4      0.745      2.594
REMARK  4 active torsions:
REMARK  status: ('A' for Active; 'I' for Inactive)
REMARK    1  A    between atoms: C_4  and  C_1 
REMARK    2  A    between atoms: N_7  and  C_4 
REMARK    3  A    between atoms: C_10  and  C_4 
REMARK    4  A    between atoms: C_8  and  N_7 
ROOT
ATOM      1  C   UNL d   1      58.708  -1.329  29.827  0.00  0.00     0.085 C 
ENDROOT
BRANCH   1   2
ATOM      2  C   UNL d   1      58.981  -0.707  29.356  0.00  0.00     0.037 A 
ATOM      3  C   UNL d   1      58.575  -0.290  28.771  0.00  0.00     0.083 A 
ATOM      4  N   UNL d   1      59.016   0.250  28.456  0.00  0.00    -0.245 NA
ATOM      5  C   UNL d   1      57.792  -0.438  28.555  0.00  0.00     0.021 C 
ATOM      6  C   UNL d   1      59.774   0.232  28.820  0.00  0.00     0.081 A 
ATOM      7  C   UNL d   1      59.752  -0.369  29.385  0.00  0.00     0.021 A 
ATOM      8  C   UNL d   1      60.467   0.682  28.706  0.00  0.00     0.019 A 
ATOM      9  C   UNL d   1      60.423  -0.523  29.840  0.00  0.00     0.002 A 
ATOM     10  C   UNL d   1      61.110  -0.087  29.737  0.00  0.00     0.000 A 
ATOM     11  C   UNL d   1      61.132   0.513  29.172  0.00  0.00     0.002 A 
ENDBRANCH   1   2
BRANCH   1  12
ATOM     12  N   UNL d   1      58.615  -1.201  30.626  0.00  0.00    -0.227 NA
BRANCH  12  13
ATOM     13  C   UNL d   1      57.929  -0.888  30.923  0.00  0.00     0.162 A 
ATOM     14  N   UNL d   1      57.673  -0.144  30.699  0.00  0.00    -0.225 NA
ATOM     15  C   UNL d   1      56.948   0.171  31.022  0.00  0.00     0.101 A 
ATOM     16  C   UNL d   1      56.536  -0.286  31.545  0.00  0.00     0.021 A 
ATOM     17  C   UNL d   1      56.784  -1.026  31.773  0.00  0.00     0.005 A 
ATOM     18  C   UNL d   1      57.478  -1.339  31.470  0.00  0.00     0.039 A 
ATOM     19  C   UNL d   1      56.329  -1.459  32.312  0.00  0.00     0.000 C 
ENDBRANCH  12  13
ENDBRANCH   1  12
BRANCH   1  20
ATOM     20  C   UNL d   1      58.534  -2.068  29.493  0.00  0.00     0.021 A 
ATOM     21  C   UNL d   1      58.783  -2.740  29.896  0.00  0.00     0.022 A 
ATOM     22  C   UNL d   1      58.609  -3.479  29.562  0.00  0.00     0.099 A 
ATOM     23  N   UNL d   1      58.196  -3.522  28.843  0.00  0.00    -0.242 NA
ATOM     24  C   UNL d   1      57.961  -2.840  28.463  0.00  0.00     0.099 A 
ATOM     25  C   UNL d   1      58.122  -2.111  28.774  0.00  0.00     0.022 A 
ENDBRANCH   1  20
TORSDOF 4
ENDMDL
MODEL 5
REMARK VINA RESULT:       3.5      0.809      3.494
REMARK  4 active torsions:
REMARK  status: ('A' for Active; 'I' for Inactive)
REMARK    1  A    between atoms: C_4  and  C_1 
REMARK    2  A    between atoms: N_7  and  C_4 
REMARK    3  A    between atoms: C_10  and  C_4 
REMARK    4  A    between atoms: C_8  and  N_7 
ROOT
ATOM      1  C   UNL d   1      58.766  -1.238  30.033  0.00  0.00     0.085 C 
ENDROOT
BRANCH   1   2
ATOM      2  C   UNL d   1      59.028  -0.676  29.486  0.00  0.00     0.037 A 
ATOM      3  C   UNL d   1      58.626  -0.365  28.836  0.00  0.00     0.083 A 
ATOM      4  N   UNL d   1      59.054   0.145  28.461  0.00  0.00    -0.245 NA
ATOM      5  C   UNL d   1      57.858  -0.578  28.621  0.00  0.00     0.021 C 
ATOM      6  C   UNL d   1      59.800   0.214  28.845  0.00  0.00     0.081 A 
ATOM      7  C   UNL d   1      59.783  -0.301  29.489  0.00  0.00     0.021 A 
ATOM      8  C   UNL d   1      60.476   0.676  28.689  0.00  0.00     0.019 A 
ATOM      9  C   UNL d   1      60.443  -0.359  29.980  0.00  0.00     0.002 A 
ATOM     10  C   UNL d   1      61.115   0.090  29.837  0.00  0.00     0.000 A 
ATOM     11  C   UNL d   1      61.131   0.606  29.193  0.00  0.00     0.002 A 
ENDBRANCH   1   2
BRANCH   1  12
ATOM     12  N   UNL d   1      59.153  -1.953  30.073  0.00  0.00    -0.227 NA
BRANCH  12  13
ATOM     13  C   UNL d   1      58.990  -2.548  29.548  0.00  0.00     0.162 A 
ATOM     14  N   UNL d   1      58.239  -2.641  29.235  0.00  0.00    -0.225 NA
ATOM     15  C   UNL d   1      58.084  -3.274  28.683  0.00  0.00     0.101 A 
ATOM     16  C   UNL d   1      58.696  -3.765  28.487  0.00  0.00     0.021 A 
ATOM     17  C   UNL d   1      59.444  -3.678  28.793  0.00  0.00     0.005 A 
ATOM     18  C   UNL d   1      59.604  -3.075  29.324  0.00  0.00     0.039 A 
ATOM     19  C   UNL d   1      60.040  -4.205  28.564  0.00  0.00     0.000 C 
ENDBRANCH  12  13
ENDBRANCH   1  12
BRANCH   1  20
ATOM     20  C   UNL d   1      58.122  -1.076  30.529  0.00  0.00     0.021 A 
ATOM     21  C   UNL d   1      58.070  -0.324  30.858  0.00  0.00     0.022 A 
ATOM     22  C   UNL d   1      57.426  -0.162  31.355  0.00  0.00     0.099 A 
ATOM     23  N   UNL d   1      56.861  -0.750  31.506  0.00  0.00    -0.242 NA
ATOM     24  C   UNL d   1      56.936  -1.489  31.168  0.00  0.00     0.099 A 
ATOM     25  C   UNL d   1      57.557  -1.664  30.681  0.00  0.00     0.022 A 
ENDBRANCH   1  20
TORSDOF 4
ENDMDL
