MODEL 1
REMARK VINA RESULT:      80.1      0.000      0.000
REMARK  3 active torsions:
REMARK  status: ('A' for Active; 'I' for Inactive)
REMARK    1  A    between atoms: C_8  and  C_6 
REMARK    2  A    between atoms: C_9  and  C_8 
REMARK       I    between atoms: N_10  and  C_9 
REMARK    3  A    between atoms: C_14  and  N_10 
ROOT
ATOM      1  N   UNL d   1     -48.080  28.782  35.585  0.00  0.00    -0.207 NA
ATOM      2  N   UNL d   1     -48.872  29.574  34.337  0.00  0.00    -0.240 NA
ATOM      3  C   UNL d   1     -48.640  28.536  35.050  0.00  0.00     0.297 A 
ATOM      4  C   UNL d   1     -47.723  29.519  35.674  0.00  0.00     0.086 A 
ATOM      5  C   UNL d   1     -48.406  30.194  34.602  0.00  0.00     0.083 A 
ATOM      6  C   UNL d   1     -48.906  28.807  34.629  0.00  0.00     0.144 A 
ATOM      7  C   UNL d   1     -47.857  30.209  35.223  0.00  0.00     0.035 A 
ATOM      8  O   UNL d   1     -48.874  27.752  35.121  0.00  0.00    -0.264 OA
ATOM      9  C   UNL d   1     -47.440  30.898  35.404  0.00  0.00     0.003 A 
ATOM     10  C   UNL d   1     -48.538  30.875  34.157  0.00  0.00     0.019 A 
ATOM     11  C   UNL d   1     -47.177  29.532  36.294  0.00  0.00     0.019 A 
ATOM     12  C   UNL d   1     -46.763  30.225  36.468  0.00  0.00     0.002 A 
ATOM     13  C   UNL d   1     -48.118  31.578  34.334  0.00  0.00     0.002 A 
ATOM     14  C   UNL d   1     -46.896  30.906  36.022  0.00  0.00     0.000 A 
ATOM     15  C   UNL d   1     -47.574  31.587  34.953  0.00  0.00     0.000 A 
ENDROOT
BRANCH   6  16
ATOM     16  C   UNL d   1     -49.441  28.329  34.223  0.00  0.00     0.086 C 
BRANCH  16  17
ATOM     17  C   UNL d   1     -50.036  28.683  33.762  0.00  0.00     0.281 C 
ATOM     18  N   UNL d   1     -50.539  28.211  33.306  0.00  0.00    -0.208 NA
ATOM     19  O   UNL d   1     -50.127  29.503  33.757  0.00  0.00    -0.265 OA
BRANCH  18  20
ATOM     20  C   UNL d   1     -50.452  27.389  33.307  0.00  0.00     0.085 A 
ATOM     21  C   UNL d   1     -49.700  27.054  33.310  0.00  0.00     0.019 A 
ATOM     22  C   UNL d   1     -49.617  26.235  33.312  0.00  0.00     0.002 A 
ATOM     23  C   UNL d   1     -50.285  25.752  33.310  0.00  0.00     0.000 A 
ATOM     24  C   UNL d   1     -51.041  26.093  33.307  0.00  0.00     0.002 A 
ATOM     25  C   UNL d   1     -50.204  24.948  33.311  0.00  0.00     0.000 C 
ATOM     26  C   UNL d   1     -51.120  26.912  33.306  0.00  0.00     0.019 A 
ENDBRANCH  18  20
ENDBRANCH  16  17
ENDBRANCH   6  16
TORSDOF 3
ENDMDL
MODEL 2
REMARK VINA RESULT:      81.5      0.860      1.218
REMARK  3 active torsions:
REMARK  status: ('A' for Active; 'I' for Inactive)
REMARK    1  A    between atoms: C_8  and  C_6 
REMARK    2  A    between atoms: C_9  and  C_8 
REMARK       I    between atoms: N_10  and  C_9 
REMARK    3  A    between atoms: C_14  and  N_10 
ROOT
ATOM      1  N   UNL d   1     -47.972  28.623  35.685  0.00  0.00    -0.207 NA
ATOM      2  N   UNL d   1     -48.813  29.156  34.336  0.00  0.00    -0.240 NA
ATOM      3  C   UNL d   1     -48.459  28.241  35.158  0.00  0.00     0.297 A 
ATOM      4  C   UNL d   1     -47.741  29.413  35.713  0.00  0.00     0.086 A 
ATOM      5  C   UNL d   1     -48.465  29.865  34.555  0.00  0.00     0.083 A 
ATOM      6  C   UNL d   1     -48.742  28.424  34.702  0.00  0.00     0.144 A 
ATOM      7  C   UNL d   1     -47.958  30.027  35.190  0.00  0.00     0.035 A 
ATOM      8  O   UNL d   1     -48.570  27.439  35.299  0.00  0.00    -0.264 OA
ATOM      9  C   UNL d   1     -47.664  30.788  35.315  0.00  0.00     0.003 A 
ATOM     10  C   UNL d   1     -48.680  30.472  34.038  0.00  0.00     0.019 A 
ATOM     11  C   UNL d   1     -47.236  29.572  36.347  0.00  0.00     0.019 A 
ATOM     12  C   UNL d   1     -46.946  30.335  36.465  0.00  0.00     0.002 A 
ATOM     13  C   UNL d   1     -48.384  31.247  34.159  0.00  0.00     0.002 A 
ATOM     14  C   UNL d   1     -47.160  30.942  35.948  0.00  0.00     0.000 A 
ATOM     15  C   UNL d   1     -47.881  31.401  34.792  0.00  0.00     0.000 A 
ENDROOT
BRANCH   6  16
ATOM     16  C   UNL d   1     -49.174  27.831  34.328  0.00  0.00     0.086 C 
BRANCH  16  17
ATOM     17  C   UNL d   1     -48.784  27.305  33.815  0.00  0.00     0.281 C 
ATOM     18  N   UNL d   1     -49.224  26.824  33.307  0.00  0.00    -0.208 NA
ATOM     19  O   UNL d   1     -47.959  27.261  33.811  0.00  0.00    -0.265 OA
BRANCH  18  20
ATOM     20  C   UNL d   1     -50.049  26.864  33.307  0.00  0.00     0.085 A 
ATOM     21  C   UNL d   1     -50.426  27.596  33.307  0.00  0.00     0.019 A 
ATOM     22  C   UNL d   1     -51.249  27.633  33.307  0.00  0.00     0.002 A 
ATOM     23  C   UNL d   1     -51.693  26.939  33.307  0.00  0.00     0.000 A 
ATOM     24  C   UNL d   1     -51.309  26.202  33.307  0.00  0.00     0.002 A 
ATOM     25  C   UNL d   1     -52.500  26.974  33.307  0.00  0.00     0.000 C 
ATOM     26  C   UNL d   1     -50.488  26.170  33.307  0.00  0.00     0.019 A 
ENDBRANCH  18  20
ENDBRANCH  16  17
ENDBRANCH   6  16
TORSDOF 3
ENDMDL
