MODEL 1
REMARK VINA RESULT:      33.6      0.000      0.000
REMARK  3 active torsions:
REMARK  status: ('A' for Active; 'I' for Inactive)
REMARK    1  A    between atoms: C_7  and  C_1 
REMARK    2  A    between atoms: N_8  and  C_7 
REMARK    3  A    between atoms: C_11  and  N_8 
ROOT
ATOM      1  C   UNL d   1     -51.289  25.467  33.318  0.00  0.00     0.145 A 
ATOM      2  C   UNL d   1     -52.104  25.396  33.329  0.00  0.00     0.304 A 
ATOM      3  C   UNL d   1     -50.816  24.791  33.318  0.00  0.00     0.304 A 
ATOM      4  O   UNL d   1     -52.455  24.648  33.341  0.00  0.00    -0.277 OA
ATOM      5  O   UNL d   1     -51.167  24.043  33.329  0.00  0.00    -0.277 OA
ATOM      6  C   UNL d   1     -51.989  23.975  33.340  0.00  0.00     0.203 A 
ATOM      7  O   UNL d   1     -52.580  26.099  33.329  0.00  0.00    -0.259 OA
ATOM      8  O   UNL d   1     -49.970  24.873  33.306  0.00  0.00    -0.259 OA
ATOM      9  C   UNL d   1     -51.702  23.189  33.344  0.00  0.00     0.062 C 
ATOM     10  C   UNL d   1     -52.784  23.731  33.353  0.00  0.00     0.062 C 
ENDROOT
BRANCH   1  11
ATOM     11  C   UNL d   1     -50.934  26.221  33.307  0.00  0.00     0.111 C 
BRANCH  11  12
ATOM     12  N   UNL d   1     -50.456  26.460  33.935  0.00  0.00    -0.225 NA
BRANCH  12  13
ATOM     13  C   UNL d   1     -50.077  27.201  33.909  0.00  0.00     0.163 A 
ATOM     14  N   UNL d   1     -50.295  27.755  33.342  0.00  0.00    -0.225 NA
ATOM     15  C   UNL d   1     -49.917  28.493  33.317  0.00  0.00     0.101 A 
ATOM     16  C   UNL d   1     -49.324  28.671  33.858  0.00  0.00     0.021 A 
ATOM     17  C   UNL d   1     -49.104  28.116  34.427  0.00  0.00     0.005 A 
ATOM     18  C   UNL d   1     -49.482  27.377  34.453  0.00  0.00     0.039 A 
ENDBRANCH  12  13
ENDBRANCH  11  12
ENDBRANCH   1  11
TORSDOF 3
ENDMDL
MODEL 2
REMARK VINA RESULT:      35.3      0.242      1.258
REMARK  3 active torsions:
REMARK  status: ('A' for Active; 'I' for Inactive)
REMARK    1  A    between atoms: C_7  and  C_1 
REMARK    2  A    between atoms: N_8  and  C_7 
REMARK    3  A    between atoms: C_11  and  N_8 
ROOT
ATOM      1  C   UNL d   1     -51.055  25.507  33.318  0.00  0.00     0.145 A 
ATOM      2  C   UNL d   1     -50.684  24.777  33.311  0.00  0.00     0.304 A 
ATOM      3  C   UNL d   1     -51.879  25.550  33.323  0.00  0.00     0.304 A 
ATOM      4  O   UNL d   1     -51.132  24.084  33.308  0.00  0.00    -0.277 OA
ATOM      5  O   UNL d   1     -52.327  24.856  33.320  0.00  0.00    -0.277 OA
ATOM      6  C   UNL d   1     -51.950  24.123  33.313  0.00  0.00     0.203 A 
ATOM      7  O   UNL d   1     -49.835  24.745  33.306  0.00  0.00    -0.259 OA
ATOM      8  O   UNL d   1     -52.257  26.311  33.330  0.00  0.00    -0.259 OA
ATOM      9  C   UNL d   1     -52.769  23.950  33.316  0.00  0.00     0.062 C 
ATOM     10  C   UNL d   1     -51.736  23.319  33.306  0.00  0.00     0.062 C 
ENDROOT
BRANCH   1  11
ATOM     11  C   UNL d   1     -50.603  26.206  33.321  0.00  0.00     0.111 C 
BRANCH  11  12
ATOM     12  N   UNL d   1     -50.353  26.531  34.036  0.00  0.00    -0.225 NA
BRANCH  12  13
ATOM     13  C   UNL d   1     -49.925  27.246  34.041  0.00  0.00     0.163 A 
ATOM     14  N   UNL d   1     -50.054  27.806  33.453  0.00  0.00    -0.225 NA
ATOM     15  C   UNL d   1     -49.627  28.518  33.458  0.00  0.00     0.101 A 
ATOM     16  C   UNL d   1     -49.075  28.663  34.049  0.00  0.00     0.021 A 
ATOM     17  C   UNL d   1     -48.945  28.101  34.639  0.00  0.00     0.005 A 
ATOM     18  C   UNL d   1     -49.371  27.389  34.635  0.00  0.00     0.039 A 
ENDBRANCH  12  13
ENDBRANCH  11  12
ENDBRANCH   1  11
TORSDOF 3
ENDMDL
