MODEL 1
REMARK VINA RESULT:      12.7      0.000      0.000
REMARK  1 active torsions:
REMARK  status: ('A' for Active; 'I' for Inactive)
REMARK    1  A    between atoms: C_6  and  C_3 
ROOT
ATOM      1  C   UNL d   1      58.495  49.705  50.656  0.00  0.00     0.018 A 
ATOM      2  C   UNL d   1      57.963  49.707  51.262  0.00  0.00     0.005 A 
ATOM      3  C   UNL d   1      58.244  49.701  49.865  0.00  0.00     0.005 A 
ATOM      4  C   UNL d   1      56.898  49.703  50.314  0.00  0.00     0.196 A 
ATOM      5  C   UNL d   1      57.149  49.707  51.106  0.00  0.00     0.042 A 
ATOM      6  C   UNL d   1      57.433  49.701  49.713  0.00  0.00     0.042 A 
ATOM      7  O   UNL d   1      56.090  49.702  50.165  0.00  0.00    -0.287 OA
ENDROOT
BRANCH   1   8
ATOM      8  C   UNL d   1      59.303  49.705  50.806  0.00  0.00     0.090 A 
ATOM      9  N   UNL d   1      59.598  49.705  51.567  0.00  0.00    -0.219 NA
ATOM     10  C   UNL d   1      60.416  49.706  51.538  0.00  0.00     0.215 A 
ATOM     11  S   UNL d   1      60.641  49.707  50.780  0.00  0.00    -0.045 SA
ATOM     12  N   UNL d   1      60.958  49.706  52.171  0.00  0.00    -0.120 N 
ATOM     13  C   UNL d   1      59.957  49.706  50.303  0.00  0.00     0.058 A 
ENDBRANCH   1   8
TORSDOF 1
ENDMDL
