MODEL 1
REMARK VINA RESULT:      -7.7      0.000      0.000
REMARK  4 active torsions:
REMARK  status: ('A' for Active; 'I' for Inactive)
REMARK    1  A    between atoms: S_2  and  N_1 
REMARK    2  A    between atoms: N_6  and  S_2 
REMARK    3  A    between atoms: C_10  and  C_3 
REMARK    4  A    between atoms: C_11  and  C_10 
ROOT
ATOM      1  N   UNL d   1     -48.475  13.066  23.016  0.00  0.00    -0.201 N 
ATOM      2  C   UNL d   1     -49.092  13.633  23.049  0.00  0.00     0.158 A 
ATOM      3  N   UNL d   1     -49.782  13.240  23.287  0.00  0.00    -0.226 NA
ATOM      4  C   UNL d   1     -48.794  12.341  23.232  0.00  0.00     0.095 A 
ATOM      5  C   UNL d   1     -49.597  12.445  23.399  0.00  0.00     0.100 A 
ATOM      6  C   UNL d   1     -48.448  11.596  23.297  0.00  0.00     0.020 A 
ATOM      7  C   UNL d   1     -50.051  11.797  23.632  0.00  0.00     0.021 A 
ATOM      8  C   UNL d   1     -48.902  10.948  23.529  0.00  0.00     0.002 A 
ATOM      9  C   UNL d   1     -49.708  11.047  23.698  0.00  0.00     0.002 A 
ENDROOT
BRANCH   1  10
ATOM     10  S   UNL d   1     -47.700  13.212  22.806  0.00  0.00     0.338 S 
ATOM     11  O   UNL d   1     -47.895  13.152  22.009  0.00  0.00    -0.181 OA
ATOM     12  O   UNL d   1     -47.501  13.273  23.604  0.00  0.00    -0.181 OA
BRANCH  10  13
ATOM     13  N   UNL d   1     -46.915  13.360  22.608  0.00  0.00    -0.216 N 
ATOM     14  C   UNL d   1     -46.543  12.903  22.031  0.00  0.00     0.093 A 
ATOM     15  C   UNL d   1     -45.762  13.050  21.834  0.00  0.00     0.020 A 
ATOM     16  C   UNL d   1     -45.344  13.648  22.203  0.00  0.00     0.003 A 
ATOM     17  C   UNL d   1     -45.708  14.111  22.781  0.00  0.00     0.020 A 
ATOM     18  C   UNL d   1     -46.502  13.964  22.984  0.00  0.00     0.093 A 
ENDBRANCH  10  13
ENDBRANCH   1  10
BRANCH   2  19
ATOM     19  C   UNL d   1     -49.019  14.439  22.875  0.00  0.00     0.038 C 
BRANCH  19  20
ATOM     20  C   UNL d   1     -49.675  14.929  22.949  0.00  0.00     0.003 A 
ATOM     21  C   UNL d   1     -49.756  15.402  23.623  0.00  0.00     0.000 A 
ATOM     22  C   UNL d   1     -50.412  15.892  23.698  0.00  0.00     0.000 A 
ATOM     23  C   UNL d   1     -50.982  15.916  23.113  0.00  0.00     0.000 A 
ATOM     24  C   UNL d   1     -50.900  15.441  22.435  0.00  0.00     0.000 A 
ATOM     25  C   UNL d   1     -50.243  14.948  22.358  0.00  0.00     0.000 A 
ENDBRANCH  19  20
ENDBRANCH   2  19
TORSDOF 4
ENDMDL
MODEL 2
REMARK VINA RESULT:      -7.2      0.895      3.502
REMARK  4 active torsions:
REMARK  status: ('A' for Active; 'I' for Inactive)
REMARK    1  A    between atoms: S_2  and  N_1 
REMARK    2  A    between atoms: N_6  and  S_2 
REMARK    3  A    between atoms: C_10  and  C_3 
REMARK    4  A    between atoms: C_11  and  C_10 
ROOT
ATOM      1  N   UNL d   1     -49.058  13.163  22.959  0.00  0.00    -0.201 N 
ATOM      2  C   UNL d   1     -48.245  13.153  22.755  0.00  0.00     0.158 A 
ATOM      3  N   UNL d   1     -47.962  12.385  22.886  0.00  0.00    -0.226 NA
ATOM      4  C   UNL d   1     -49.259  12.407  23.211  0.00  0.00     0.095 A 
ATOM      5  C   UNL d   1     -48.588  11.928  23.167  0.00  0.00     0.100 A 
ATOM      6  C   UNL d   1     -49.975  12.098  23.475  0.00  0.00     0.020 A 
ATOM      7  C   UNL d   1     -48.639  11.135  23.390  0.00  0.00     0.021 A 
ATOM      8  C   UNL d   1     -50.027  11.306  23.698  0.00  0.00     0.002 A 
ATOM      9  C   UNL d   1     -49.356  10.820  23.656  0.00  0.00     0.002 A 
ENDROOT
BRANCH   1  10
ATOM     10  S   UNL d   1     -49.556  13.808  22.915  0.00  0.00     0.338 S 
ATOM     11  O   UNL d   1     -49.735  13.626  22.132  0.00  0.00    -0.181 OA
ATOM     12  O   UNL d   1     -49.379  13.992  23.698  0.00  0.00    -0.181 OA
BRANCH  10  13
ATOM     13  N   UNL d   1     -50.056  14.461  22.882  0.00  0.00    -0.216 N 
ATOM     14  C   UNL d   1     -50.063  15.005  23.503  0.00  0.00     0.093 A 
ATOM     15  C   UNL d   1     -50.560  15.655  23.471  0.00  0.00     0.020 A 
ATOM     16  C   UNL d   1     -51.052  15.773  22.829  0.00  0.00     0.003 A 
ATOM     17  C   UNL d   1     -51.052  15.233  22.204  0.00  0.00     0.020 A 
ATOM     18  C   UNL d   1     -50.548  14.572  22.233  0.00  0.00     0.093 A 
ENDBRANCH  10  13
ENDBRANCH   1  10
BRANCH   2  19
ATOM     19  C   UNL d   1     -47.809  13.797  22.473  0.00  0.00     0.038 C 
BRANCH  19  20
ATOM     20  C   UNL d   1     -46.988  13.746  22.439  0.00  0.00     0.003 A 
ATOM     21  C   UNL d   1     -46.532  14.172  22.982  0.00  0.00     0.000 A 
ATOM     22  C   UNL d   1     -45.712  14.121  22.949  0.00  0.00     0.000 A 
ATOM     23  C   UNL d   1     -45.346  13.655  22.385  0.00  0.00     0.000 A 
ATOM     24  C   UNL d   1     -45.806  13.227  21.840  0.00  0.00     0.000 A 
ATOM     25  C   UNL d   1     -46.629  13.277  21.872  0.00  0.00     0.000 A 
ENDBRANCH  19  20
ENDBRANCH   2  19
TORSDOF 4
ENDMDL
MODEL 3
REMARK VINA RESULT:      -5.8      8.720     10.704
REMARK  4 active torsions:
REMARK  status: ('A' for Active; 'I' for Inactive)
REMARK    1  A    between atoms: S_2  and  N_1 
REMARK    2  A    between atoms: N_6  and  S_2 
REMARK    3  A    between atoms: C_10  and  C_3 
REMARK    4  A    between atoms: C_11  and  C_10 
ROOT
ATOM      1  N   UNL d   1     -40.041  14.882  18.221  0.00  0.00    -0.201 N 
ATOM      2  C   UNL d   1     -39.491  14.404  17.806  0.00  0.00     0.158 A 
ATOM      3  N   UNL d   1     -39.692  14.430  17.002  0.00  0.00    -0.226 NA
ATOM      4  C   UNL d   1     -40.566  15.191  17.669  0.00  0.00     0.095 A 
ATOM      5  C   UNL d   1     -40.354  14.914  16.920  0.00  0.00     0.100 A 
ATOM      6  C   UNL d   1     -41.213  15.692  17.760  0.00  0.00     0.020 A 
ATOM      7  C   UNL d   1     -40.795  15.144  16.262  0.00  0.00     0.021 A 
ATOM      8  C   UNL d   1     -41.655  15.922  17.103  0.00  0.00     0.002 A 
ATOM      9  C   UNL d   1     -41.446  15.647  16.349  0.00  0.00     0.002 A 
ENDROOT
BRANCH   1  10
ATOM     10  S   UNL d   1     -40.050  15.015  19.026  0.00  0.00     0.338 S 
ATOM     11  O   UNL d   1     -39.526  15.643  18.937  0.00  0.00    -0.181 OA
ATOM     12  O   UNL d   1     -40.575  14.386  19.118  0.00  0.00    -0.181 OA
BRANCH  10  13
ATOM     13  N   UNL d   1     -40.068  15.138  19.840  0.00  0.00    -0.216 N 
ATOM     14  C   UNL d   1     -39.499  15.618  20.196  0.00  0.00     0.093 A 
ATOM     15  C   UNL d   1     -39.517  15.741  21.005  0.00  0.00     0.020 A 
ATOM     16  C   UNL d   1     -40.093  15.393  21.468  0.00  0.00     0.003 A 
ATOM     17  C   UNL d   1     -40.666  14.911  21.120  0.00  0.00     0.020 A 
ATOM     18  C   UNL d   1     -40.652  14.784  20.298  0.00  0.00     0.093 A 
ENDBRANCH  10  13
ENDBRANCH   1  10
BRANCH   2  19
ATOM     19  C   UNL d   1     -38.863  13.984  18.144  0.00  0.00     0.038 C 
BRANCH  19  20
ATOM     20  C   UNL d   1     -38.557  13.330  17.750  0.00  0.00     0.003 A 
ATOM     21  C   UNL d   1     -38.246  13.422  16.989  0.00  0.00     0.000 A 
ATOM     22  C   UNL d   1     -37.940  12.768  16.596  0.00  0.00     0.000 A 
ATOM     23  C   UNL d   1     -37.940  12.031  16.950  0.00  0.00     0.000 A 
ATOM     24  C   UNL d   1     -38.252  11.940  17.715  0.00  0.00     0.000 A 
ATOM     25  C   UNL d   1     -38.560  12.595  18.112  0.00  0.00     0.000 A 
ENDBRANCH  19  20
ENDBRANCH   2  19
TORSDOF 4
ENDMDL
MODEL 4
REMARK VINA RESULT:      -5.6      1.730      3.007
REMARK  4 active torsions:
REMARK  status: ('A' for Active; 'I' for Inactive)
REMARK    1  A    between atoms: S_2  and  N_1 
REMARK    2  A    between atoms: N_6  and  S_2 
REMARK    3  A    between atoms: C_10  and  C_3 
REMARK    4  A    between atoms: C_11  and  C_10 
ROOT
ATOM      1  N   UNL d   1     -47.397  13.042  22.734  0.00  0.00    -0.201 N 
ATOM      2  C   UNL d   1     -48.198  13.006  22.489  0.00  0.00     0.158 A 
ATOM      3  N   UNL d   1     -48.442  13.780  22.314  0.00  0.00    -0.226 NA
ATOM      4  C   UNL d   1     -47.165  13.830  22.705  0.00  0.00     0.095 A 
ATOM      5  C   UNL d   1     -47.805  14.284  22.448  0.00  0.00     0.100 A 
ATOM      6  C   UNL d   1     -46.444  14.188  22.884  0.00  0.00     0.020 A 
ATOM      7  C   UNL d   1     -47.718  15.101  22.370  0.00  0.00     0.021 A 
ATOM      8  C   UNL d   1     -46.357  15.004  22.806  0.00  0.00     0.002 A 
ATOM      9  C   UNL d   1     -46.997  15.465  22.548  0.00  0.00     0.002 A 
ENDROOT
BRANCH   1  10
ATOM     10  S   UNL d   1     -46.936  12.408  22.959  0.00  0.00     0.338 S 
ATOM     11  O   UNL d   1     -47.298  12.396  23.698  0.00  0.00    -0.181 OA
ATOM     12  O   UNL d   1     -46.571  12.418  22.220  0.00  0.00    -0.181 OA
BRANCH  10  13
ATOM     13  N   UNL d   1     -46.464  11.769  23.174  0.00  0.00    -0.216 N 
ATOM     14  C   UNL d   1     -45.645  11.811  23.082  0.00  0.00     0.093 A 
ATOM     15  C   UNL d   1     -45.176  11.175  23.296  0.00  0.00     0.020 A 
ATOM     16  C   UNL d   1     -45.511  10.494  23.602  0.00  0.00     0.003 A 
ATOM     17  C   UNL d   1     -46.329  10.443  23.698  0.00  0.00     0.020 A 
ATOM     18  C   UNL d   1     -46.809  11.088  23.481  0.00  0.00     0.093 A 
ENDBRANCH  10  13
ENDBRANCH   1  10
BRANCH   2  19
ATOM     19  C   UNL d   1     -48.658  12.321  22.433  0.00  0.00     0.038 C 
BRANCH  19  20
ATOM     20  C   UNL d   1     -49.460  12.384  22.262  0.00  0.00     0.003 A 
ATOM     21  C   UNL d   1     -49.701  12.496  21.479  0.00  0.00     0.000 A 
ATOM     22  C   UNL d   1     -50.502  12.559  21.307  0.00  0.00     0.000 A 
ATOM     23  C   UNL d   1     -51.060  12.513  21.903  0.00  0.00     0.000 A 
ATOM     24  C   UNL d   1     -50.818  12.401  22.690  0.00  0.00     0.000 A 
ATOM     25  C   UNL d   1     -50.013  12.337  22.864  0.00  0.00     0.000 A 
ENDBRANCH  19  20
ENDBRANCH   2  19
TORSDOF 4
ENDMDL
MODEL 5
REMARK VINA RESULT:      -5.0      0.896      3.600
REMARK  4 active torsions:
REMARK  status: ('A' for Active; 'I' for Inactive)
REMARK    1  A    between atoms: S_2  and  N_1 
REMARK    2  A    between atoms: N_6  and  S_2 
REMARK    3  A    between atoms: C_10  and  C_3 
REMARK    4  A    between atoms: C_11  and  C_10 
ROOT
ATOM      1  N   UNL d   1     -48.182  13.037  22.950  0.00  0.00    -0.201 N 
ATOM      2  C   UNL d   1     -47.376  12.898  22.766  0.00  0.00     0.158 A 
ATOM      3  N   UNL d   1     -47.218  12.098  22.916  0.00  0.00    -0.226 NA
ATOM      4  C   UNL d   1     -48.503  12.325  23.207  0.00  0.00     0.095 A 
ATOM      5  C   UNL d   1     -47.913  11.747  23.187  0.00  0.00     0.100 A 
ATOM      6  C   UNL d   1     -49.265  12.135  23.457  0.00  0.00     0.020 A 
ATOM      7  C   UNL d   1     -48.092  10.976  23.420  0.00  0.00     0.021 A 
ATOM      8  C   UNL d   1     -49.444  11.365  23.690  0.00  0.00     0.002 A 
ATOM      9  C   UNL d   1     -48.855  10.781  23.672  0.00  0.00     0.002 A 
ENDROOT
BRANCH   1  10
ATOM     10  S   UNL d   1     -48.574  13.750  22.883  0.00  0.00     0.338 S 
ATOM     11  O   UNL d   1     -48.796  13.565  22.113  0.00  0.00    -0.181 OA
ATOM     12  O   UNL d   1     -48.352  13.937  23.655  0.00  0.00    -0.181 OA
BRANCH  10  13
ATOM     13  N   UNL d   1     -48.965  14.472  22.829  0.00  0.00    -0.216 N 
ATOM     14  C   UNL d   1     -49.171  14.882  23.515  0.00  0.00     0.093 A 
ATOM     15  C   UNL d   1     -49.560  15.600  23.461  0.00  0.00     0.020 A 
ATOM     16  C   UNL d   1     -49.748  15.918  22.732  0.00  0.00     0.003 A 
ATOM     17  C   UNL d   1     -49.546  15.515  22.040  0.00  0.00     0.020 A 
ATOM     18  C   UNL d   1     -49.150  14.785  22.091  0.00  0.00     0.093 A 
ENDBRANCH  10  13
ENDBRANCH   1  10
BRANCH   2  19
ATOM     19  C   UNL d   1     -46.839  13.462  22.487  0.00  0.00     0.038 C 
BRANCH  19  20
ATOM     20  C   UNL d   1     -46.068  13.234  22.311  0.00  0.00     0.003 A 
ATOM     21  C   UNL d   1     -45.588  12.928  22.911  0.00  0.00     0.000 A 
ATOM     22  C   UNL d   1     -44.818  12.700  22.736  0.00  0.00     0.000 A 
ATOM     23  C   UNL d   1     -44.524  12.773  21.976  0.00  0.00     0.000 A 
ATOM     24  C   UNL d   1     -45.008  13.080  21.374  0.00  0.00     0.000 A 
ATOM     25  C   UNL d   1     -45.781  13.310  21.547  0.00  0.00     0.000 A 
ENDBRANCH  19  20
ENDBRANCH   2  19
TORSDOF 4
ENDMDL
