MODEL 1
REMARK VINA RESULT:      51.4      0.000      0.000
REMARK  6 active torsions:
REMARK  status: ('A' for Active; 'I' for Inactive)
REMARK    1  A    between atoms: C_5  and  C_1 
REMARK    2  A    between atoms: N_6  and  C_5 
REMARK    3  A    between atoms: C_9  and  C_5 
REMARK    4  A    between atoms: C_8  and  C_11 
REMARK    5  A    between atoms: O_18  and  C_8 
REMARK    6  A    between atoms: C_23  and  O_18 
ROOT
ATOM      1  C   UNL d   1      14.227  12.994  -2.049  0.00  0.00     0.083 C 
ENDROOT
BRANCH   1   2
ATOM      2  C   UNL d   1      13.743  12.573  -2.583  0.00  0.00     0.037 A 
ATOM      3  C   UNL d   1      13.098  12.099  -2.379  0.00  0.00     0.083 A 
ATOM      4  N   UNL d   1      12.769  11.783  -3.045  0.00  0.00    -0.245 NA
ATOM      5  C   UNL d   1      12.828  11.971  -1.590  0.00  0.00     0.021 C 
ATOM      6  C   UNL d   1      13.194  12.046  -3.681  0.00  0.00     0.081 A 
ATOM      7  C   UNL d   1      13.796  12.533  -3.396  0.00  0.00     0.021 A 
ATOM      8  C   UNL d   1      13.124  11.912  -4.491  0.00  0.00     0.019 A 
ATOM      9  C   UNL d   1      14.324  12.885  -3.923  0.00  0.00     0.002 A 
ATOM     10  C   UNL d   1      14.253  12.751  -4.734  0.00  0.00     0.000 A 
ATOM     11  C   UNL d   1      13.651  12.264  -5.019  0.00  0.00     0.002 A 
ENDBRANCH   1   2
BRANCH   1  12
ATOM     12  N   UNL d   1      14.327  13.823  -2.134  0.00  0.00    -0.302 N 
ATOM     13  C   UNL d   1      14.751  14.236  -1.576  0.00  0.00     0.080 A 
ATOM     14  C   UNL d   1      14.848  15.050  -1.662  0.00  0.00     0.024 A 
ATOM     15  C   UNL d   1      14.511  15.429  -2.317  0.00  0.00     0.067 A 
ATOM     16  C   UNL d   1      14.087  15.012  -2.875  0.00  0.00     0.024 A 
ATOM     17  C   UNL d   1      13.990  14.198  -2.789  0.00  0.00     0.080 A 
BRANCH  15  18
ATOM     18  C   UNL d   1      14.603  16.256  -2.416  0.00  0.00     0.300 C 
ATOM     19  O   UNL d   1      14.795  16.736  -1.767  0.00  0.00    -0.259 OA
BRANCH  18  20
ATOM     20  O   UNL d   1      14.501  16.577  -3.158  0.00  0.00    -0.271 OA
BRANCH  20  21
ATOM     21  C   UNL d   1      15.155  16.701  -3.643  0.00  0.00     0.126 C 
ATOM     22  C   UNL d   1      15.047  16.799  -4.442  0.00  0.00     0.029 C 
ENDBRANCH  20  21
ENDBRANCH  18  20
ENDBRANCH  15  18
ENDBRANCH   1  12
BRANCH   1  23
ATOM     23  C   UNL d   1      14.612  12.585  -1.425  0.00  0.00     0.098 A 
ATOM     24  N   UNL d   1      15.426  12.541  -1.403  0.00  0.00    -0.243 NA
ATOM     25  C   UNL d   1      15.804  12.145  -0.799  0.00  0.00     0.099 A 
ATOM     26  C   UNL d   1      15.361  11.787  -0.208  0.00  0.00     0.021 A 
ATOM     27  C   UNL d   1      14.542  11.823  -0.219  0.00  0.00     0.003 A 
ATOM     28  C   UNL d   1      14.147  12.221  -0.825  0.00  0.00     0.021 A 
ENDBRANCH   1  23
TORSDOF 6
ENDMDL
MODEL 2
REMARK VINA RESULT:      53.3      0.793      2.613
REMARK  6 active torsions:
REMARK  status: ('A' for Active; 'I' for Inactive)
REMARK    1  A    between atoms: C_5  and  C_1 
REMARK    2  A    between atoms: N_6  and  C_5 
REMARK    3  A    between atoms: C_9  and  C_5 
REMARK    4  A    between atoms: C_8  and  C_11 
REMARK    5  A    between atoms: O_18  and  C_8 
REMARK    6  A    between atoms: C_23  and  O_18 
ROOT
ATOM      1  C   UNL d   1      13.901  13.136  -2.919  0.00  0.00     0.083 C 
ENDROOT
BRANCH   1   2
ATOM      2  C   UNL d   1      13.928  12.689  -2.214  0.00  0.00     0.037 A 
ATOM      3  C   UNL d   1      13.411  12.079  -2.010  0.00  0.00     0.083 A 
ATOM      4  N   UNL d   1      13.611  11.779  -1.288  0.00  0.00    -0.245 NA
ATOM      5  C   UNL d   1      12.769  11.813  -2.491  0.00  0.00     0.021 C 
ATOM      6  C   UNL d   1      14.255  12.189  -1.020  0.00  0.00     0.081 A 
ATOM      7  C   UNL d   1      14.451  12.751  -1.591  0.00  0.00     0.021 A 
ATOM      8  C   UNL d   1      14.701  12.135  -0.328  0.00  0.00     0.019 A 
ATOM      9  C   UNL d   1      15.092  13.255  -1.469  0.00  0.00     0.002 A 
ATOM     10  C   UNL d   1      15.538  13.201  -0.777  0.00  0.00     0.000 A 
ATOM     11  C   UNL d   1      15.342  12.639  -0.205  0.00  0.00     0.002 A 
ENDBRANCH   1   2
BRANCH   1  12
ATOM     12  N   UNL d   1      14.101  13.951  -2.910  0.00  0.00    -0.302 N 
ATOM     13  C   UNL d   1      14.873  14.174  -2.786  0.00  0.00     0.080 A 
ATOM     14  C   UNL d   1      15.068  14.975  -2.777  0.00  0.00     0.024 A 
ATOM     15  C   UNL d   1      14.470  15.536  -2.895  0.00  0.00     0.067 A 
ATOM     16  C   UNL d   1      13.696  15.309  -3.018  0.00  0.00     0.024 A 
ATOM     17  C   UNL d   1      13.502  14.508  -3.027  0.00  0.00     0.080 A 
BRANCH  15  18
ATOM     18  C   UNL d   1      14.654  16.353  -2.888  0.00  0.00     0.300 C 
ATOM     19  O   UNL d   1      14.848  16.732  -2.176  0.00  0.00    -0.259 OA
BRANCH  18  20
ATOM     20  O   UNL d   1      14.639  16.765  -3.591  0.00  0.00    -0.271 OA
BRANCH  20  21
ATOM     21  C   UNL d   1      15.345  17.007  -3.938  0.00  0.00     0.126 C 
ATOM     22  C   UNL d   1      15.388  17.084  -4.746  0.00  0.00     0.029 C 
ENDBRANCH  20  21
ENDBRANCH  18  20
ENDBRANCH  15  18
ENDBRANCH   1  12
BRANCH   1  23
ATOM     23  C   UNL d   1      13.674  12.766  -3.637  0.00  0.00     0.098 A 
ATOM     24  N   UNL d   1      14.106  12.141  -3.934  0.00  0.00    -0.243 NA
ATOM     25  C   UNL d   1      13.887  11.779  -4.631  0.00  0.00     0.099 A 
ATOM     26  C   UNL d   1      13.227  12.046  -5.038  0.00  0.00     0.021 A 
ATOM     27  C   UNL d   1      12.784  12.673  -4.751  0.00  0.00     0.003 A 
ATOM     28  C   UNL d   1      12.994  13.049  -4.047  0.00  0.00     0.021 A 
ENDBRANCH   1  23
TORSDOF 6
ENDMDL
