MODEL 1
REMARK VINA RESULT:       8.0      0.000      0.000
REMARK  2 active torsions:
REMARK  status: ('A' for Active; 'I' for Inactive)
REMARK    1  A    between atoms: C_6  and  N_2 
REMARK    2  A    between atoms: C_8  and  C_6 
ROOT
ATOM      1  C   UNL d   1     -51.730  24.013  33.310  0.00  0.00     0.151 A 
ATOM      2  N   UNL d   1     -52.299  24.607  33.308  0.00  0.00    -0.286 N 
ATOM      3  S   UNL d   1     -50.999  24.376  33.311  0.00  0.00    -0.057 SA
ATOM      4  C   UNL d   1     -51.919  25.322  33.308  0.00  0.00     0.071 A 
ATOM      5  C   UNL d   1     -51.115  25.179  33.310  0.00  0.00     0.048 A 
ATOM      6  S   UNL d   1     -51.853  23.203  33.311  0.00  0.00    -0.052 SA
ATOM      7  C   UNL d   1     -52.198  26.097  33.306  0.00  0.00     0.018 A 
ATOM      8  C   UNL d   1     -50.580  25.810  33.311  0.00  0.00     0.008 A 
ATOM      9  C   UNL d   1     -51.668  26.735  33.307  0.00  0.00     0.002 A 
ATOM     10  C   UNL d   1     -50.864  26.592  33.309  0.00  0.00     0.001 A 
ENDROOT
BRANCH   2  11
ATOM     11  C   UNL d   1     -53.127  24.475  33.306  0.00  0.00     0.152 C 
BRANCH  11  12
ATOM     12  C   UNL d   1     -53.458  23.854  33.737  0.00  0.00     0.230 C 
ATOM     13  O   UNL d   1     -53.397  23.842  34.564  0.00  0.00    -0.643 OA
ATOM     14  O   UNL d   1     -53.847  23.248  33.348  0.00  0.00    -0.643 OA
ENDBRANCH  11  12
ENDBRANCH   2  11
TORSDOF 2
ENDMDL
