MODEL 1
REMARK VINA RESULT:      -2.4      0.000      0.000
REMARK  2 active torsions:
REMARK  status: ('A' for Active; 'I' for Inactive)
REMARK       I    between atoms: N_2  and  C_1 
REMARK    1  A    between atoms: C_6  and  C_1 
REMARK    2  A    between atoms: C_4  and  N_2 
ROOT
ATOM      1  C   UNL d   1      32.770  22.355 -21.196  0.00  0.00     0.085 A 
ATOM      2  C   UNL d   1      32.422  22.825 -21.787  0.00  0.00     0.019 A 
ATOM      3  C   UNL d   1      32.696  22.556 -20.398  0.00  0.00     0.019 A 
ATOM      4  C   UNL d   1      32.273  23.229 -20.178  0.00  0.00     0.002 A 
ATOM      5  C   UNL d   1      31.999  23.498 -21.568  0.00  0.00     0.002 A 
ATOM      6  C   UNL d   1      31.924  23.701 -20.758  0.00  0.00     0.000 A 
ENDROOT
BRANCH   1   7
ATOM      7  N   UNL d   1      33.194  21.682 -21.415  0.00  0.00    -0.207 NA
ATOM      8  C   UNL d   1      32.817  20.948 -21.437  0.00  0.00     0.300 C 
ATOM      9  O   UNL d   1      32.017  20.888 -21.240  0.00  0.00    -0.263 OA
BRANCH   8  10
ATOM     10  C   UNL d   1      33.240  20.275 -21.656  0.00  0.00     0.184 C 
ATOM     11  N   UNL d   1      32.849  19.638 -22.005  0.00  0.00    -0.141 N 
ENDBRANCH   8  10
ENDBRANCH   1   7
TORSDOF 2
ENDMDL
MODEL 2
REMARK VINA RESULT:      -2.2      6.727      7.064
REMARK  2 active torsions:
REMARK  status: ('A' for Active; 'I' for Inactive)
REMARK       I    between atoms: N_2  and  C_1 
REMARK    1  A    between atoms: C_6  and  C_1 
REMARK    2  A    between atoms: C_4  and  N_2 
ROOT
ATOM      1  C   UNL d   1      29.817  15.950 -23.992  0.00  0.00     0.085 A 
ATOM      2  C   UNL d   1      29.403  15.570 -23.379  0.00  0.00     0.019 A 
ATOM      3  C   UNL d   1      29.500  16.614 -24.367  0.00  0.00     0.019 A 
ATOM      4  C   UNL d   1      28.764  16.909 -24.136  0.00  0.00     0.002 A 
ATOM      5  C   UNL d   1      28.668  15.863 -23.147  0.00  0.00     0.002 A 
ATOM      6  C   UNL d   1      28.346  16.538 -23.528  0.00  0.00     0.000 A 
ENDROOT
BRANCH   1   7
ATOM      7  N   UNL d   1      30.552  15.656 -24.224  0.00  0.00    -0.207 NA
ATOM      8  C   UNL d   1      31.240  15.948 -23.875  0.00  0.00     0.300 C 
ATOM      9  O   UNL d   1      31.193  16.534 -23.295  0.00  0.00    -0.263 OA
BRANCH   8  10
ATOM     10  C   UNL d   1      31.975  15.655 -24.107  0.00  0.00     0.184 C 
ATOM     11  N   UNL d   1      32.660  15.920 -23.733  0.00  0.00    -0.141 N 
ENDBRANCH   8  10
ENDBRANCH   1   7
TORSDOF 2
ENDMDL
MODEL 3
REMARK VINA RESULT:      -2.1      2.380      3.277
REMARK  2 active torsions:
REMARK  status: ('A' for Active; 'I' for Inactive)
REMARK       I    between atoms: N_2  and  C_1 
REMARK    1  A    between atoms: C_6  and  C_1 
REMARK    2  A    between atoms: C_4  and  N_2 
ROOT
ATOM      1  C   UNL d   1      32.848  23.059 -19.608  0.00  0.00     0.085 A 
ATOM      2  C   UNL d   1      32.512  23.695 -20.026  0.00  0.00     0.019 A 
ATOM      3  C   UNL d   1      32.793  22.287 -19.895  0.00  0.00     0.019 A 
ATOM      4  C   UNL d   1      32.400  22.137 -20.606  0.00  0.00     0.002 A 
ATOM      5  C   UNL d   1      32.119  23.545 -20.736  0.00  0.00     0.002 A 
ATOM      6  C   UNL d   1      32.063  22.761 -21.028  0.00  0.00     0.000 A 
ENDROOT
BRANCH   1   7
ATOM      7  N   UNL d   1      33.241  23.209 -18.898  0.00  0.00    -0.207 NA
ATOM      8  C   UNL d   1      32.808  23.369 -18.215  0.00  0.00     0.300 C 
ATOM      9  O   UNL d   1      31.983  23.381 -18.241  0.00  0.00    -0.263 OA
BRANCH   8  10
ATOM     10  C   UNL d   1      33.201  23.518 -17.505  0.00  0.00     0.184 C 
ATOM     11  N   UNL d   1      32.899  23.220 -16.797  0.00  0.00    -0.141 N 
ENDBRANCH   8  10
ENDBRANCH   1   7
TORSDOF 2
ENDMDL
MODEL 4
REMARK VINA RESULT:      -2.1      1.136      2.982
REMARK  2 active torsions:
REMARK  status: ('A' for Active; 'I' for Inactive)
REMARK       I    between atoms: N_2  and  C_1 
REMARK    1  A    between atoms: C_6  and  C_1 
REMARK    2  A    between atoms: C_4  and  N_2 
ROOT
ATOM      1  C   UNL d   1      33.237  20.929 -21.372  0.00  0.00     0.085 A 
ATOM      2  C   UNL d   1      33.240  20.178 -21.015  0.00  0.00     0.019 A 
ATOM      3  C   UNL d   1      33.236  21.007 -22.195  0.00  0.00     0.019 A 
ATOM      4  C   UNL d   1      33.237  20.335 -22.674  0.00  0.00     0.002 A 
ATOM      5  C   UNL d   1      33.241  19.506 -21.494  0.00  0.00     0.002 A 
ATOM      6  C   UNL d   1      33.239  19.585 -22.329  0.00  0.00     0.000 A 
ENDROOT
BRANCH   1   7
ATOM      7  N   UNL d   1      33.236  21.601 -20.894  0.00  0.00    -0.207 NA
ATOM      8  C   UNL d   1      32.524  21.973 -20.708  0.00  0.00     0.300 C 
ATOM      9  O   UNL d   1      31.812  21.672 -21.001  0.00  0.00    -0.263 OA
BRANCH   8  10
ATOM     10  C   UNL d   1      32.523  22.645 -20.230  0.00  0.00     0.184 C 
ATOM     11  N   UNL d   1      31.818  23.049 -20.091  0.00  0.00    -0.141 N 
ENDBRANCH   8  10
ENDBRANCH   1   7
TORSDOF 2
ENDMDL
MODEL 5
REMARK VINA RESULT:      -2.0      5.901      6.835
REMARK  2 active torsions:
REMARK  status: ('A' for Active; 'I' for Inactive)
REMARK       I    between atoms: N_2  and  C_1 
REMARK    1  A    between atoms: C_6  and  C_1 
REMARK    2  A    between atoms: C_4  and  N_2 
ROOT
ATOM      1  C   UNL d   1      30.825  16.425 -24.236  0.00  0.00     0.085 A 
ATOM      2  C   UNL d   1      30.917  17.245 -24.338  0.00  0.00     0.019 A 
ATOM      3  C   UNL d   1      31.393  15.983 -23.832  0.00  0.00     0.019 A 
ATOM      4  C   UNL d   1      32.064  16.353 -23.523  0.00  0.00     0.002 A 
ATOM      5  C   UNL d   1      31.586  17.616 -24.030  0.00  0.00     0.002 A 
ATOM      6  C   UNL d   1      32.164  17.166 -23.620  0.00  0.00     0.000 A 
ENDROOT
BRANCH   1   7
ATOM      7  N   UNL d   1      30.155  16.055 -24.543  0.00  0.00    -0.207 NA
ATOM      8  C   UNL d   1      29.500  15.922 -24.060  0.00  0.00     0.300 C 
ATOM      9  O   UNL d   1      29.515  16.159 -23.269  0.00  0.00    -0.263 OA
BRANCH   8  10
ATOM     10  C   UNL d   1      28.831  15.551 -24.368  0.00  0.00     0.184 C 
ATOM     11  N   UNL d   1      28.161  15.452 -23.896  0.00  0.00    -0.141 N 
ENDBRANCH   8  10
ENDBRANCH   1   7
TORSDOF 2
ENDMDL
MODEL 6
REMARK VINA RESULT:      -2.0      4.819      5.776
REMARK  2 active torsions:
REMARK  status: ('A' for Active; 'I' for Inactive)
REMARK       I    between atoms: N_2  and  C_1 
REMARK    1  A    between atoms: C_6  and  C_1 
REMARK    2  A    between atoms: C_4  and  N_2 
ROOT
ATOM      1  C   UNL d   1      32.263  17.179 -23.824  0.00  0.00     0.085 A 
ATOM      2  C   UNL d   1      32.491  17.706 -23.222  0.00  0.00     0.019 A 
ATOM      3  C   UNL d   1      32.322  17.394 -24.619  0.00  0.00     0.019 A 
ATOM      4  C   UNL d   1      32.608  18.140 -24.827  0.00  0.00     0.002 A 
ATOM      5  C   UNL d   1      32.777  18.452 -23.429  0.00  0.00     0.002 A 
ATOM      6  C   UNL d   1      32.836  18.670 -24.237  0.00  0.00     0.000 A 
ENDROOT
BRANCH   1   7
ATOM      7  N   UNL d   1      31.977  16.434 -23.617  0.00  0.00    -0.207 NA
ATOM      8  C   UNL d   1      31.164  16.297 -23.598  0.00  0.00     0.300 C 
ATOM      9  O   UNL d   1      30.637  16.905 -23.786  0.00  0.00    -0.263 OA
BRANCH   8  10
ATOM     10  C   UNL d   1      30.878  15.551 -23.392  0.00  0.00     0.184 C 
ATOM     11  N   UNL d   1      30.078  15.453 -23.213  0.00  0.00    -0.141 N 
ENDBRANCH   8  10
ENDBRANCH   1   7
TORSDOF 2
ENDMDL
