MODEL 1
REMARK VINA RESULT:      15.9      0.000      0.000
REMARK  3 active torsions:
REMARK  status: ('A' for Active; 'I' for Inactive)
REMARK    1  A    between atoms: N_2  and  S_1 
REMARK    2  A    between atoms: N_3  and  S_1 
REMARK    3  A    between atoms: C_4  and  N_2 
ROOT
ATOM      1  S   UNL d   1      45.798 -16.343  44.722  0.00  0.00     0.351 S 
ATOM      2  O   UNL d   1      46.580 -16.141  44.562  0.00  0.00    -0.180 OA
ATOM      3  O   UNL d   1      45.014 -16.553  44.883  0.00  0.00    -0.180 OA
ENDROOT
BRANCH   1   4
ATOM      4  N   UNL d   1      45.948 -17.150  44.795  0.00  0.00    -0.144 NA
BRANCH   4   5
ATOM      5  C   UNL d   1      46.107 -17.612  44.116  0.00  0.00     0.095 A 
ATOM      6  C   UNL d   1      46.323 -18.415  44.197  0.00  0.00     0.018 A 
ATOM      7  C   UNL d   1      46.469 -18.875  43.524  0.00  0.00     0.002 A 
ATOM      8  C   UNL d   1      46.515 -18.710  44.951  0.00  0.00     0.002 C 
ATOM      9  C   UNL d   1      46.406 -18.532  42.767  0.00  0.00     0.000 A 
ATOM     10  C   UNL d   1      46.189 -17.729  42.672  0.00  0.00     0.002 A 
ATOM     11  C   UNL d   1      46.570 -18.993  42.103  0.00  0.00     0.000 C 
ATOM     12  C   UNL d   1      46.037 -17.271  43.354  0.00  0.00     0.020 A 
ENDBRANCH   4   5
ENDBRANCH   1   4
BRANCH   1  13
ATOM     13  N   UNL d   1      45.581 -15.551  44.663  0.00  0.00    -0.215 N 
ATOM     14  C   UNL d   1      46.165 -14.975  44.529  0.00  0.00     0.093 C 
ATOM     15  C   UNL d   1      45.946 -14.190  44.472  0.00  0.00     0.020 C 
ATOM     16  C   UNL d   1      45.177 -13.950  44.652  0.00  0.00     0.003 C 
ATOM     17  C   UNL d   1      44.624 -14.511  44.894  0.00  0.00     0.020 C 
ATOM     18  C   UNL d   1      44.839 -15.310  44.954  0.00  0.00     0.093 C 
ENDBRANCH   1  13
TORSDOF 3
ENDMDL
MODEL 2
REMARK VINA RESULT:      17.3      0.683      3.725
REMARK  3 active torsions:
REMARK  status: ('A' for Active; 'I' for Inactive)
REMARK    1  A    between atoms: N_2  and  S_1 
REMARK    2  A    between atoms: N_3  and  S_1 
REMARK    3  A    between atoms: C_4  and  N_2 
ROOT
ATOM      1  S   UNL d   1      45.709 -16.672  44.315  0.00  0.00     0.351 S 
ATOM      2  O   UNL d   1      45.247 -16.422  43.681  0.00  0.00    -0.180 OA
ATOM      3  O   UNL d   1      46.171 -16.919  44.955  0.00  0.00    -0.180 OA
ENDROOT
BRANCH   1   4
ATOM      4  N   UNL d   1      45.441 -16.090  44.832  0.00  0.00    -0.144 NA
BRANCH   4   5
ATOM      5  C   UNL d   1      45.509 -15.281  44.629  0.00  0.00     0.095 A 
ATOM      6  C   UNL d   1      44.869 -14.761  44.758  0.00  0.00     0.018 A 
ATOM      7  C   UNL d   1      44.941 -13.958  44.569  0.00  0.00     0.002 A 
ATOM      8  C   UNL d   1      44.124 -15.075  44.954  0.00  0.00     0.002 C 
ATOM      9  C   UNL d   1      45.654 -13.673  44.243  0.00  0.00     0.000 A 
ATOM     10  C   UNL d   1      46.304 -14.184  44.110  0.00  0.00     0.002 A 
ATOM     11  C   UNL d   1      45.711 -12.875  44.041  0.00  0.00     0.000 C 
ATOM     12  C   UNL d   1      46.227 -14.992  44.309  0.00  0.00     0.020 A 
ENDBRANCH   4   5
ENDBRANCH   1   4
BRANCH   1  13
ATOM     13  N   UNL d   1      46.018 -17.277  43.850  0.00  0.00    -0.215 N 
ATOM     14  C   UNL d   1      45.825 -17.312  43.042  0.00  0.00     0.093 C 
ATOM     15  C   UNL d   1      46.133 -17.915  42.584  0.00  0.00     0.020 C 
ATOM     16  C   UNL d   1      46.538 -18.545  42.930  0.00  0.00     0.003 C 
ATOM     17  C   UNL d   1      46.633 -18.566  43.748  0.00  0.00     0.020 C 
ATOM     18  C   UNL d   1      46.323 -17.958  44.219  0.00  0.00     0.093 C 
ENDBRANCH   1  13
TORSDOF 3
ENDMDL
MODEL 3
REMARK VINA RESULT:      17.8      1.164      3.967
REMARK  3 active torsions:
REMARK  status: ('A' for Active; 'I' for Inactive)
REMARK    1  A    between atoms: N_2  and  S_1 
REMARK    2  A    between atoms: N_3  and  S_1 
REMARK    3  A    between atoms: C_4  and  N_2 
ROOT
ATOM      1  S   UNL d   1      45.578 -15.415  44.628  0.00  0.00     0.351 S 
ATOM      2  O   UNL d   1      46.292 -15.157  44.308  0.00  0.00    -0.180 OA
ATOM      3  O   UNL d   1      44.860 -15.669  44.951  0.00  0.00    -0.180 OA
ENDROOT
BRANCH   1   4
ATOM      4  N   UNL d   1      45.364 -14.678  44.926  0.00  0.00    -0.144 NA
BRANCH   4   5
ATOM      5  C   UNL d   1      45.279 -14.024  44.413  0.00  0.00     0.095 A 
ATOM      6  C   UNL d   1      45.874 -13.439  44.377  0.00  0.00     0.018 A 
ATOM      7  C   UNL d   1      45.796 -12.797  43.859  0.00  0.00     0.002 A 
ATOM      8  C   UNL d   1      46.477 -13.438  44.950  0.00  0.00     0.002 C 
ATOM      9  C   UNL d   1      45.117 -12.734  43.380  0.00  0.00     0.000 A 
ATOM     10  C   UNL d   1      44.514 -13.314  43.405  0.00  0.00     0.002 A 
ATOM     11  C   UNL d   1      45.038 -12.082  42.880  0.00  0.00     0.000 C 
ATOM     12  C   UNL d   1      44.601 -13.963  43.925  0.00  0.00     0.020 A 
ENDBRANCH   4   5
ENDBRANCH   1   4
BRANCH   1  13
ATOM     13  N   UNL d   1      45.732 -16.177  44.356  0.00  0.00    -0.215 N 
ATOM     14  C   UNL d   1      45.640 -16.822  44.871  0.00  0.00     0.093 C 
ATOM     15  C   UNL d   1      45.794 -17.577  44.598  0.00  0.00     0.020 C 
ATOM     16  C   UNL d   1      46.142 -17.697  43.860  0.00  0.00     0.003 C 
ATOM     17  C   UNL d   1      46.337 -17.048  43.393  0.00  0.00     0.020 C 
ATOM     18  C   UNL d   1      46.184 -16.279  43.663  0.00  0.00     0.093 C 
ENDBRANCH   1  13
TORSDOF 3
ENDMDL
