MODEL 1
REMARK VINA RESULT:      -5.6      0.000      0.000
REMARK  5 active torsions:
REMARK  status: ('A' for Active; 'I' for Inactive)
REMARK    1  A    between atoms: N_2  and  S_1 
REMARK    2  A    between atoms: C_4  and  S_1 
REMARK    3  A    between atoms: C_3  and  N_2 
REMARK    4  A    between atoms: N_7  and  C_3 
REMARK    5  A    between atoms: C_14  and  N_7 
ROOT
ATOM      1  S   UNL d   1      57.040  -0.357  31.415  0.00  0.00     0.287 S 
ATOM      2  O   UNL d   1      57.072   0.464  31.280  0.00  0.00    -0.198 OA
ATOM      3  O   UNL d   1      56.999  -1.177  31.561  0.00  0.00    -0.198 OA
ENDROOT
BRANCH   1   4
ATOM      4  N   UNL d   1      57.546  -0.490  30.770  0.00  0.00    -0.128 NA
BRANCH   4   5
ATOM      5  C   UNL d   1      58.127  -0.212  30.241  0.00  0.00     0.232 C 
ATOM      6  S   UNL d   1      58.717   0.292  30.511  0.00  0.00    -0.036 SA
BRANCH   5   7
ATOM      7  N   UNL d   1      58.104  -0.444  29.449  0.00  0.00    -0.217 NA
BRANCH   7   8
ATOM      8  C   UNL d   1      58.736  -0.865  29.128  0.00  0.00     0.084 A 
ATOM      9  C   UNL d   1      58.721  -1.689  29.133  0.00  0.00     0.019 A 
ATOM     10  C   UNL d   1      59.351  -2.112  28.813  0.00  0.00     0.002 A 
ATOM     11  C   UNL d   1      59.993  -1.718  28.489  0.00  0.00     0.000 A 
ATOM     12  C   UNL d   1      60.006  -0.891  28.484  0.00  0.00     0.002 A 
ATOM     13  C   UNL d   1      59.379  -0.463  28.803  0.00  0.00     0.019 A 
ENDBRANCH   7   8
ENDBRANCH   5   7
ENDBRANCH   4   5
ENDBRANCH   1   4
BRANCH   1  14
ATOM     14  C   UNL d   1      56.531  -0.223  32.062  0.00  0.00     0.105 A 
ATOM     15  C   UNL d   1      56.219  -0.866  32.486  0.00  0.00     0.013 A 
ATOM     16  C   UNL d   1      55.717  -0.733  33.126  0.00  0.00     0.001 A 
ATOM     17  C   UNL d   1      55.526   0.035  33.342  0.00  0.00     0.000 A 
ATOM     18  C   UNL d   1      55.831   0.680  32.926  0.00  0.00     0.001 A 
ATOM     19  C   UNL d   1      55.021   0.167  33.984  0.00  0.00     0.000 C 
ATOM     20  C   UNL d   1      56.335   0.547  32.285  0.00  0.00     0.013 A 
ENDBRANCH   1  14
TORSDOF 5
ENDMDL
MODEL 2
REMARK VINA RESULT:      -3.6      0.905      4.654
REMARK  5 active torsions:
REMARK  status: ('A' for Active; 'I' for Inactive)
REMARK    1  A    between atoms: N_2  and  S_1 
REMARK    2  A    between atoms: C_4  and  S_1 
REMARK    3  A    between atoms: C_3  and  N_2 
REMARK    4  A    between atoms: N_7  and  C_3 
REMARK    5  A    between atoms: C_14  and  N_7 
ROOT
ATOM      1  S   UNL d   1      58.248  -0.531  30.095  0.00  0.00     0.287 S 
ATOM      2  O   UNL d   1      57.705  -1.157  30.002  0.00  0.00    -0.198 OA
ATOM      3  O   UNL d   1      58.801   0.087  30.181  0.00  0.00    -0.198 OA
ENDROOT
BRANCH   1   4
ATOM      4  N   UNL d   1      57.678  -0.089  30.507  0.00  0.00    -0.128 NA
BRANCH   4   5
ATOM      5  C   UNL d   1      57.360   0.181  31.229  0.00  0.00     0.232 C 
ATOM      6  S   UNL d   1      57.858   0.499  31.801  0.00  0.00    -0.036 SA
BRANCH   5   7
ATOM      7  N   UNL d   1      56.547   0.128  31.364  0.00  0.00    -0.217 NA
BRANCH   7   8
ATOM      8  C   UNL d   1      56.266   0.013  32.130  0.00  0.00     0.084 A 
ATOM      9  C   UNL d   1      56.037  -0.741  32.372  0.00  0.00     0.019 A 
ATOM     10  C   UNL d   1      55.756  -0.858  33.137  0.00  0.00     0.002 A 
ATOM     11  C   UNL d   1      55.703  -0.229  33.660  0.00  0.00     0.000 A 
ATOM     12  C   UNL d   1      55.934   0.527  33.416  0.00  0.00     0.002 A 
ATOM     13  C   UNL d   1      56.215   0.650  32.652  0.00  0.00     0.019 A 
ENDBRANCH   7   8
ENDBRANCH   5   7
ENDBRANCH   4   5
ENDBRANCH   1   4
BRANCH   1  14
ATOM     14  C   UNL d   1      58.820  -0.975  29.681  0.00  0.00     0.105 A 
ATOM     15  C   UNL d   1      58.853  -1.800  29.774  0.00  0.00     0.013 A 
ATOM     16  C   UNL d   1      59.418  -2.239  29.365  0.00  0.00     0.001 A 
ATOM     17  C   UNL d   1      59.947  -1.859  28.866  0.00  0.00     0.000 A 
ATOM     18  C   UNL d   1      59.921  -1.039  28.768  0.00  0.00     0.001 A 
ATOM     19  C   UNL d   1      60.514  -2.299  28.456  0.00  0.00     0.000 C 
ATOM     20  C   UNL d   1      59.355  -0.599  29.178  0.00  0.00     0.013 A 
ENDBRANCH   1  14
TORSDOF 5
ENDMDL
