MODEL 1
REMARK VINA RESULT:      -4.1      0.000      0.000
REMARK  3 active torsions:
REMARK  status: ('A' for Active; 'I' for Inactive)
REMARK    1  A    between atoms: C_8  and  N_2 
REMARK    2  A    between atoms: C_12  and  C_8 
REMARK    3  A    between atoms: N_11  and  C_12 
ROOT
ATOM      1  C   UNL d   1      58.130  -0.997  30.211  0.00  0.00     0.166 A 
ATOM      2  N   UNL d   1      58.586  -1.354  29.620  0.00  0.00    -0.288 N 
ATOM      3  C   UNL d   1      58.289  -0.186  30.212  0.00  0.00     0.117 A 
ATOM      4  N   UNL d   1      57.591  -1.321  30.743  0.00  0.00    -0.225 NA
ATOM      5  N   UNL d   1      57.906   0.302  30.750  0.00  0.00    -0.241 NA
ATOM      6  C   UNL d   1      58.846  -0.041  29.620  0.00  0.00     0.037 A 
ATOM      7  C   UNL d   1      59.020  -0.754  29.266  0.00  0.00     0.067 A 
ATOM      8  C   UNL d   1      57.207  -0.838  31.280  0.00  0.00     0.101 A 
ATOM      9  C   UNL d   1      57.365  -0.028  31.283  0.00  0.00     0.099 A 
ATOM     10  C   UNL d   1      59.204   0.682  29.379  0.00  0.00     0.003 A 
ATOM     11  C   UNL d   1      59.575  -0.772  28.640  0.00  0.00     0.018 A 
ATOM     12  C   UNL d   1      56.666  -1.167  31.814  0.00  0.00     0.021 A 
ATOM     13  C   UNL d   1      56.984   0.374  31.800  0.00  0.00     0.021 A 
ATOM     14  C   UNL d   1      59.742   0.658  28.770  0.00  0.00     0.000 A 
ATOM     15  C   UNL d   1      59.878  -0.068  28.457  0.00  0.00     0.002 A 
ATOM     16  C   UNL d   1      56.442   0.128  32.353  0.00  0.00     0.002 A 
ATOM     17  C   UNL d   1      56.287  -0.686  32.347  0.00  0.00     0.002 A 
ENDROOT
BRANCH   2  18
ATOM     18  C   UNL d   1      58.855  -1.995  29.176  0.00  0.00     0.101 C 
BRANCH  18  19
ATOM     19  C   UNL d   1      58.539  -2.648  29.539  0.00  0.00     0.100 C 
BRANCH  19  20
ATOM     20  N   UNL d   1      58.937  -3.289  29.206  0.00  0.00    -0.298 N 
ATOM     21  C   UNL d   1      58.518  -3.863  28.787  0.00  0.00     0.107 A 
ATOM     22  C   UNL d   1      58.918  -4.504  28.455  0.00  0.00     0.142 A 
ATOM     23  O   UNL d   1      59.739  -4.573  28.540  0.00  0.00    -0.300 OA
ATOM     24  C   UNL d   1      60.158  -3.999  28.959  0.00  0.00     0.142 A 
ATOM     25  C   UNL d   1      59.755  -3.355  29.293  0.00  0.00     0.107 A 
ENDBRANCH  19  20
ENDBRANCH  18  19
ENDBRANCH   2  18
TORSDOF 3
ENDMDL
MODEL 2
REMARK VINA RESULT:      -2.2      1.630      3.967
REMARK  3 active torsions:
REMARK  status: ('A' for Active; 'I' for Inactive)
REMARK    1  A    between atoms: C_8  and  N_2 
REMARK    2  A    between atoms: C_12  and  C_8 
REMARK    3  A    between atoms: N_11  and  C_12 
ROOT
ATOM      1  C   UNL d   1      59.040  -1.599  29.640  0.00  0.00     0.166 A 
ATOM      2  N   UNL d   1      58.827  -0.876  29.982  0.00  0.00    -0.288 N 
ATOM      3  C   UNL d   1      59.820  -1.546  29.376  0.00  0.00     0.117 A 
ATOM      4  N   UNL d   1      58.608  -2.294  29.543  0.00  0.00    -0.225 NA
ATOM      5  N   UNL d   1      60.170  -2.193  29.011  0.00  0.00    -0.241 NA
ATOM      6  C   UNL d   1      60.093  -0.787  29.554  0.00  0.00     0.037 A 
ATOM      7  C   UNL d   1      59.484  -0.388  29.922  0.00  0.00     0.067 A 
ATOM      8  C   UNL d   1      58.953  -2.941  29.180  0.00  0.00     0.101 A 
ATOM      9  C   UNL d   1      59.733  -2.890  28.915  0.00  0.00     0.099 A 
ATOM     10  C   UNL d   1      60.843  -0.433  29.411  0.00  0.00     0.003 A 
ATOM     11  C   UNL d   1      59.607   0.402  30.167  0.00  0.00     0.018 A 
ATOM     12  C   UNL d   1      58.517  -3.638  29.083  0.00  0.00     0.021 A 
ATOM     13  C   UNL d   1      60.004  -3.516  28.586  0.00  0.00     0.021 A 
ATOM     14  C   UNL d   1      60.956   0.334  29.651  0.00  0.00     0.000 A 
ATOM     15  C   UNL d   1      60.326   0.682  30.008  0.00  0.00     0.002 A 
ATOM     16  C   UNL d   1      59.644  -4.232  28.455  0.00  0.00     0.002 A 
ATOM     17  C   UNL d   1      58.862  -4.279  28.723  0.00  0.00     0.002 A 
ENDROOT
BRANCH   2  18
ATOM     18  C   UNL d   1      58.310  -0.357  30.361  0.00  0.00     0.101 C 
BRANCH  18  19
ATOM     19  C   UNL d   1      57.609  -0.764  30.413  0.00  0.00     0.100 C 
BRANCH  19  20
ATOM     20  N   UNL d   1      57.231  -0.451  31.076  0.00  0.00    -0.298 N 
ATOM     21  C   UNL d   1      56.971  -0.951  31.678  0.00  0.00     0.107 A 
ATOM     22  C   UNL d   1      56.593  -0.636  32.341  0.00  0.00     0.142 A 
ATOM     23  O   UNL d   1      56.475   0.182  32.405  0.00  0.00    -0.300 OA
ATOM     24  C   UNL d   1      56.736   0.682  31.803  0.00  0.00     0.142 A 
ATOM     25  C   UNL d   1      57.115   0.365  31.137  0.00  0.00     0.107 A 
ENDBRANCH  19  20
ENDBRANCH  18  19
ENDBRANCH   2  18
TORSDOF 3
ENDMDL
MODEL 3
REMARK VINA RESULT:      -1.6      8.654      9.089
REMARK  3 active torsions:
REMARK  status: ('A' for Active; 'I' for Inactive)
REMARK    1  A    between atoms: C_8  and  N_2 
REMARK    2  A    between atoms: C_12  and  C_8 
REMARK    3  A    between atoms: N_11  and  C_12 
ROOT
ATOM      1  C   UNL d   1      58.494  -9.814  30.723  0.00  0.00     0.166 A 
ATOM      2  N   UNL d   1      59.096  -9.815  31.290  0.00  0.00    -0.288 N 
ATOM      3  C   UNL d   1      58.838  -9.811  29.972  0.00  0.00     0.117 A 
ATOM      4  N   UNL d   1      57.674  -9.816  30.809  0.00  0.00    -0.225 NA
ATOM      5  N   UNL d   1      58.359  -9.810  29.305  0.00  0.00    -0.241 NA
ATOM      6  C   UNL d   1      59.658  -9.810  30.075  0.00  0.00     0.037 A 
ATOM      7  C   UNL d   1      59.805  -9.812  30.876  0.00  0.00     0.067 A 
ATOM      8  C   UNL d   1      57.194  -9.815  30.147  0.00  0.00     0.101 A 
ATOM      9  C   UNL d   1      57.536  -9.812  29.396  0.00  0.00     0.099 A 
ATOM     10  C   UNL d   1      60.275  -9.808  29.503  0.00  0.00     0.003 A 
ATOM     11  C   UNL d   1      60.597  -9.812  31.144  0.00  0.00     0.018 A 
ATOM     12  C   UNL d   1      56.371  -9.817  30.239  0.00  0.00     0.021 A 
ATOM     13  C   UNL d   1      57.047  -9.811  28.818  0.00  0.00     0.021 A 
ATOM     14  C   UNL d   1      61.043  -9.807  29.768  0.00  0.00     0.000 A 
ATOM     15  C   UNL d   1      61.133  -9.809  30.566  0.00  0.00     0.002 A 
ATOM     16  C   UNL d   1      56.236  -9.813  28.824  0.00  0.00     0.002 A 
ATOM     17  C   UNL d   1      55.895  -9.815  29.580  0.00  0.00     0.002 A 
ENDROOT
BRANCH   2  18
ATOM     18  C   UNL d   1      59.390  -9.817  32.060  0.00  0.00     0.101 C 
BRANCH  18  19
ATOM     19  C   UNL d   1      58.856  -9.380  32.488  0.00  0.00     0.100 C 
BRANCH  19  20
ATOM     20  N   UNL d   1      59.121  -9.425  33.268  0.00  0.00    -0.298 N 
ATOM     21  C   UNL d   1      58.633  -9.742  33.853  0.00  0.00     0.107 A 
ATOM     22  C   UNL d   1      58.900  -9.787  34.632  0.00  0.00     0.142 A 
ATOM     23  O   UNL d   1      59.658  -9.514  34.830  0.00  0.00    -0.300 OA
ATOM     24  C   UNL d   1      60.146  -9.198  34.245  0.00  0.00     0.142 A 
ATOM     25  C   UNL d   1      59.877  -9.154  33.462  0.00  0.00     0.107 A 
ENDBRANCH  19  20
ENDBRANCH  18  19
ENDBRANCH   2  18
TORSDOF 3
ENDMDL
