MODEL 1
REMARK VINA RESULT:      -8.1      0.000      0.000
REMARK  8 active torsions:
REMARK  status: ('A' for Active; 'I' for Inactive)
REMARK    1  A    between atoms: C_13  and  N_1 
REMARK    2  A    between atoms: C_2  and  N_6 
REMARK    3  A    between atoms: C_9  and  C_5 
REMARK       I    between atoms: N_6  and  C_9 
REMARK    4  A    between atoms: S_16  and  C_7 
REMARK    5  A    between atoms: C_14  and  C_27 
REMARK       I    between atoms: N_20  and  C_14 
REMARK    6  A    between atoms: C_15  and  C_28 
REMARK    7  A    between atoms: C_27  and  S_16 
REMARK    8  A    between atoms: C_28  and  N_20 
ROOT
ATOM      1  C   UNL d   1     -44.324  12.839  21.825  0.00  0.00     0.219 A 
ATOM      2  S   UNL d   1     -43.725  13.269  21.603  0.00  0.00    -0.019 SA
ATOM      3  C   UNL d   1     -43.098  12.840  21.647  0.00  0.00     0.165 A 
ATOM      4  N   UNL d   1     -44.065  12.137  22.007  0.00  0.00    -0.120 NA
ATOM      5  N   UNL d   1     -43.292  12.137  21.896  0.00  0.00    -0.133 NA
ENDROOT
BRANCH   1   6
ATOM      6  N   UNL d   1     -45.058  13.067  21.860  0.00  0.00    -0.181 NA
ATOM      7  C   UNL d   1     -45.487  12.903  22.478  0.00  0.00     0.283 C 
ATOM      8  O   UNL d   1     -45.182  12.509  23.065  0.00  0.00    -0.265 OA
BRANCH   7   9
ATOM      9  C   UNL d   1     -46.218  13.133  22.508  0.00  0.00     0.080 A 
ATOM     10  C   UNL d   1     -46.828  12.752  22.243  0.00  0.00     0.088 A 
ATOM     11  N   UNL d   1     -47.453  13.177  22.383  0.00  0.00    -0.273 N 
ATOM     12  C   UNL d   1     -47.230  13.818  22.733  0.00  0.00     0.265 A 
ATOM     13  C   UNL d   1     -46.462  13.796  22.813  0.00  0.00     0.067 A 
ATOM     14  O   UNL d   1     -47.692  14.393  22.968  0.00  0.00    -0.267 OA
BRANCH  11  15
ATOM     15  C   UNL d   1     -48.234  12.970  22.186  0.00  0.00     0.067 A 
ATOM     16  C   UNL d   1     -48.572  13.269  21.497  0.00  0.00     0.020 A 
ATOM     17  C   UNL d   1     -49.350  13.057  21.310  0.00  0.00     0.031 A 
ATOM     18  C   UNL d   1     -49.778  12.559  21.798  0.00  0.00     0.140 A 
ATOM     19  C   UNL d   1     -49.432  12.261  22.490  0.00  0.00     0.031 A 
ATOM     20  F   UNL d   1     -50.562  12.346  21.607  0.00  0.00    -0.204 F 
ATOM     21  C   UNL d   1     -48.667  12.464  22.682  0.00  0.00     0.020 A 
ENDBRANCH  11  15
ENDBRANCH   7   9
ENDBRANCH   1   6
BRANCH   3  22
ATOM     22  S   UNL d   1     -41.637  13.578  21.204  0.00  0.00    -0.054 SA
BRANCH  22  23
ATOM     23  C   UNL d   1     -41.617  14.115  20.576  0.00  0.00     0.100 C 
BRANCH  23  24
ATOM     24  C   UNL d   1     -40.894  14.304  20.219  0.00  0.00     0.286 C 
ATOM     25  N   UNL d   1     -40.863  14.403  19.402  0.00  0.00    -0.204 NA
ATOM     26  O   UNL d   1     -40.210  14.393  20.678  0.00  0.00    -0.265 OA
BRANCH  25  27
ATOM     27  C   UNL d   1     -40.144  14.592  19.043  0.00  0.00     0.127 C 
BRANCH  27  28
ATOM     28  C   UNL d   1     -40.117  14.697  18.221  0.00  0.00     0.119 A 
ATOM     29  O   UNL d   1     -40.491  15.296  17.789  0.00  0.00    -0.304 OA
ATOM     30  C   UNL d   1     -40.309  15.182  16.987  0.00  0.00     0.123 A 
ATOM     31  C   UNL d   1     -39.823  14.515  16.917  0.00  0.00     0.029 A 
ATOM     32  C   UNL d   1     -39.703  14.213  17.684  0.00  0.00     0.028 A 
ENDBRANCH  27  28
ENDBRANCH  25  27
ENDBRANCH  23  24
ENDBRANCH  22  23
ENDBRANCH   3  22
TORSDOF 8
ENDMDL
MODEL 2
REMARK VINA RESULT:      -7.3      1.493      2.121
REMARK  8 active torsions:
REMARK  status: ('A' for Active; 'I' for Inactive)
REMARK    1  A    between atoms: C_13  and  N_1 
REMARK    2  A    between atoms: C_2  and  N_6 
REMARK    3  A    between atoms: C_9  and  C_5 
REMARK       I    between atoms: N_6  and  C_9 
REMARK    4  A    between atoms: S_16  and  C_7 
REMARK    5  A    between atoms: C_14  and  C_27 
REMARK       I    between atoms: N_20  and  C_14 
REMARK    6  A    between atoms: C_15  and  C_28 
REMARK    7  A    between atoms: C_27  and  S_16 
REMARK    8  A    between atoms: C_28  and  N_20 
ROOT
ATOM      1  C   UNL d   1     -44.616  12.815  21.801  0.00  0.00     0.219 A 
ATOM      2  S   UNL d   1     -44.087  13.231  21.426  0.00  0.00    -0.019 SA
ATOM      3  C   UNL d   1     -43.418  12.870  21.485  0.00  0.00     0.165 A 
ATOM      4  N   UNL d   1     -44.271  12.193  22.095  0.00  0.00    -0.120 NA
ATOM      5  N   UNL d   1     -43.517  12.227  21.897  0.00  0.00    -0.133 NA
ENDROOT
BRANCH   1   6
ATOM      6  N   UNL d   1     -45.362  12.989  21.872  0.00  0.00    -0.181 NA
ATOM      7  C   UNL d   1     -45.674  13.082  22.570  0.00  0.00     0.283 C 
ATOM      8  O   UNL d   1     -45.239  13.001  23.200  0.00  0.00    -0.265 OA
BRANCH   7   9
ATOM      9  C   UNL d   1     -46.418  13.255  22.635  0.00  0.00     0.080 A 
ATOM     10  C   UNL d   1     -47.006  12.765  22.604  0.00  0.00     0.088 A 
ATOM     11  N   UNL d   1     -47.656  13.166  22.693  0.00  0.00    -0.273 N 
ATOM     12  C   UNL d   1     -47.470  13.901  22.780  0.00  0.00     0.265 A 
ATOM     13  C   UNL d   1     -46.700  13.964  22.744  0.00  0.00     0.067 A 
ATOM     14  O   UNL d   1     -47.965  14.487  22.885  0.00  0.00    -0.267 OA
BRANCH  11  15
ATOM     15  C   UNL d   1     -48.424  12.850  22.695  0.00  0.00     0.067 A 
ATOM     16  C   UNL d   1     -48.763  12.609  23.407  0.00  0.00     0.020 A 
ATOM     17  C   UNL d   1     -49.529  12.294  23.398  0.00  0.00     0.031 A 
ATOM     18  C   UNL d   1     -49.945  12.223  22.697  0.00  0.00     0.140 A 
ATOM     19  C   UNL d   1     -49.598  12.467  21.984  0.00  0.00     0.031 A 
ATOM     20  F   UNL d   1     -50.717  11.906  22.690  0.00  0.00    -0.204 F 
ATOM     21  C   UNL d   1     -48.846  12.778  21.983  0.00  0.00     0.020 A 
ENDBRANCH  11  15
ENDBRANCH   7   9
ENDBRANCH   1   6
BRANCH   3  22
ATOM     22  S   UNL d   1     -42.088  13.602  20.731  0.00  0.00    -0.054 SA
BRANCH  22  23
ATOM     23  C   UNL d   1     -41.690  14.224  21.103  0.00  0.00     0.100 C 
BRANCH  23  24
ATOM     24  C   UNL d   1     -40.961  14.483  20.806  0.00  0.00     0.286 C 
ATOM     25  N   UNL d   1     -40.369  14.705  21.333  0.00  0.00    -0.204 NA
ATOM     26  O   UNL d   1     -40.830  14.519  19.989  0.00  0.00    -0.265 OA
BRANCH  25  27
ATOM     27  C   UNL d   1     -39.642  14.964  21.040  0.00  0.00     0.127 C 
BRANCH  27  28
ATOM     28  C   UNL d   1     -39.048  15.191  21.573  0.00  0.00     0.119 A 
ATOM     29  O   UNL d   1     -38.989  15.919  21.964  0.00  0.00    -0.304 OA
ATOM     30  C   UNL d   1     -38.308  15.896  22.440  0.00  0.00     0.123 A 
ATOM     31  C   UNL d   1     -37.944  15.158  22.347  0.00  0.00     0.029 A 
ATOM     32  C   UNL d   1     -38.403  14.720  21.809  0.00  0.00     0.028 A 
ENDBRANCH  27  28
ENDBRANCH  25  27
ENDBRANCH  23  24
ENDBRANCH  22  23
ENDBRANCH   3  22
TORSDOF 8
ENDMDL
MODEL 3
REMARK VINA RESULT:      -6.6      2.407      7.868
REMARK  8 active torsions:
REMARK  status: ('A' for Active; 'I' for Inactive)
REMARK    1  A    between atoms: C_13  and  N_1 
REMARK    2  A    between atoms: C_2  and  N_6 
REMARK    3  A    between atoms: C_9  and  C_5 
REMARK       I    between atoms: N_6  and  C_9 
REMARK    4  A    between atoms: S_16  and  C_7 
REMARK    5  A    between atoms: C_14  and  C_27 
REMARK       I    between atoms: N_20  and  C_14 
REMARK    6  A    between atoms: C_15  and  C_28 
REMARK    7  A    between atoms: C_27  and  S_16 
REMARK    8  A    between atoms: C_28  and  N_20 
ROOT
ATOM      1  C   UNL d   1     -42.884  12.921  21.196  0.00  0.00     0.219 A 
ATOM      2  S   UNL d   1     -43.569  13.253  21.316  0.00  0.00    -0.019 SA
ATOM      3  C   UNL d   1     -43.973  12.802  21.778  0.00  0.00     0.165 A 
ATOM      4  N   UNL d   1     -42.865  12.258  21.587  0.00  0.00    -0.120 NA
ATOM      5  N   UNL d   1     -43.551  12.182  21.954  0.00  0.00    -0.133 NA
ENDROOT
BRANCH   1   6
ATOM      6  N   UNL d   1     -42.315  13.200  20.761  0.00  0.00    -0.181 NA
ATOM      7  C   UNL d   1     -41.838  13.735  21.044  0.00  0.00     0.283 C 
ATOM      8  O   UNL d   1     -41.929  13.992  21.763  0.00  0.00    -0.265 OA
BRANCH   7   9
ATOM      9  C   UNL d   1     -41.272  14.010  20.605  0.00  0.00     0.080 A 
ATOM     10  C   UNL d   1     -41.306  14.160  19.855  0.00  0.00     0.088 A 
ATOM     11  N   UNL d   1     -40.620  14.427  19.633  0.00  0.00    -0.273 N 
ATOM     12  C   UNL d   1     -40.164  14.442  20.245  0.00  0.00     0.265 A 
ATOM     13  C   UNL d   1     -40.564  14.184  20.853  0.00  0.00     0.067 A 
ATOM     14  O   UNL d   1     -39.425  14.676  20.256  0.00  0.00    -0.267 OA
BRANCH  11  15
ATOM     15  C   UNL d   1     -40.416  14.658  18.861  0.00  0.00     0.067 A 
ATOM     16  C   UNL d   1     -40.581  15.425  18.609  0.00  0.00     0.020 A 
ATOM     17  C   UNL d   1     -40.374  15.645  17.838  0.00  0.00     0.031 A 
ATOM     18  C   UNL d   1     -40.013  15.113  17.333  0.00  0.00     0.140 A 
ATOM     19  C   UNL d   1     -39.850  14.342  17.592  0.00  0.00     0.031 A 
ATOM     20  F   UNL d   1     -39.805  15.336  16.556  0.00  0.00    -0.204 F 
ATOM     21  C   UNL d   1     -40.050  14.117  18.349  0.00  0.00     0.020 A 
ENDBRANCH  11  15
ENDBRANCH   7   9
ENDBRANCH   1   6
BRANCH   3  22
ATOM     22  S   UNL d   1     -45.531  13.329  22.189  0.00  0.00    -0.054 SA
BRANCH  22  23
ATOM     23  C   UNL d   1     -46.053  12.818  22.575  0.00  0.00     0.100 C 
BRANCH  23  24
ATOM     24  C   UNL d   1     -46.744  13.119  22.920  0.00  0.00     0.286 C 
ATOM     25  N   UNL d   1     -47.440  12.681  22.873  0.00  0.00    -0.204 NA
ATOM     26  O   UNL d   1     -46.735  13.851  23.307  0.00  0.00    -0.265 OA
BRANCH  25  27
ATOM     27  C   UNL d   1     -48.129  12.978  23.216  0.00  0.00     0.127 C 
BRANCH  27  28
ATOM     28  C   UNL d   1     -48.841  12.565  23.117  0.00  0.00     0.119 A 
ATOM     29  O   UNL d   1     -49.328  12.576  22.447  0.00  0.00    -0.304 OA
ATOM     30  C   UNL d   1     -49.978  12.081  22.597  0.00  0.00     0.123 A 
ATOM     31  C   UNL d   1     -49.898  11.761  23.357  0.00  0.00     0.029 A 
ATOM     32  C   UNL d   1     -49.192  12.062  23.680  0.00  0.00     0.028 A 
ENDBRANCH  27  28
ENDBRANCH  25  27
ENDBRANCH  23  24
ENDBRANCH  22  23
ENDBRANCH   3  22
TORSDOF 8
ENDMDL
