MODEL 1
REMARK VINA RESULT:      18.0      0.000      0.000
REMARK  4 active torsions:
REMARK  status: ('A' for Active; 'I' for Inactive)
REMARK    1  A    between atoms: N_3  and  S_1 
REMARK    2  A    between atoms: N_4  and  S_1 
REMARK    3  A    between atoms: N_2  and  C_7 
REMARK    4  A    between atoms: C_10  and  N_4 
ROOT
ATOM      1  N   UNL d   1      13.662  12.443  -1.927  0.00  0.00    -0.144 NA
ENDROOT
BRANCH   1   2
ATOM      2  S   UNL d   1      14.410  12.468  -1.579  0.00  0.00     0.351 S 
ATOM      3  O   UNL d   1      14.620  11.779  -1.983  0.00  0.00    -0.180 OA
ATOM      4  O   UNL d   1      15.163  12.145  -1.480  0.00  0.00    -0.180 OA
BRANCH   2   5
ATOM      5  N   UNL d   1      14.602  13.077  -1.056  0.00  0.00    -0.215 N 
ATOM      6  C   UNL d   1      15.365  13.390  -1.051  0.00  0.00     0.093 A 
ATOM      7  C   UNL d   1      15.557  13.998  -0.528  0.00  0.00     0.020 A 
ATOM      8  C   UNL d   1      14.985  14.290  -0.014  0.00  0.00     0.003 A 
ATOM      9  C   UNL d   1      14.223  13.980  -0.017  0.00  0.00     0.020 A 
ATOM     10  C   UNL d   1      14.031  13.372  -0.540  0.00  0.00     0.093 A 
ENDBRANCH   2   5
ENDBRANCH   1   2
BRANCH   1  11
ATOM     11  C   UNL d   1      13.589  12.393  -2.747  0.00  0.00     0.095 A 
ATOM     12  C   UNL d   1      13.077  11.840  -3.082  0.00  0.00     0.022 A 
ATOM     13  C   UNL d   1      13.004  11.790  -3.903  0.00  0.00     0.025 A 
ATOM     14  C   UNL d   1      13.444  12.293  -4.388  0.00  0.00     0.127 A 
ATOM     15  C   UNL d   1      13.959  12.849  -4.052  0.00  0.00     0.025 A 
ATOM     16  C   UNL d   1      14.032  12.899  -3.231  0.00  0.00     0.022 A 
BRANCH  14  17
ATOM     17  N   UNL d   1      13.371  12.244  -5.208  0.00  0.00    -0.114 N 
ATOM     18  O   UNL d   1      13.905  12.651  -5.694  0.00  0.00    -0.532 OA
ATOM     19  O   UNL d   1      12.769  11.789  -5.541  0.00  0.00    -0.532 OA
ENDBRANCH  14  17
ENDBRANCH   1  11
TORSDOF 4
ENDMDL
MODEL 2
REMARK VINA RESULT:      19.0      1.580      4.139
REMARK  4 active torsions:
REMARK  status: ('A' for Active; 'I' for Inactive)
REMARK    1  A    between atoms: N_3  and  S_1 
REMARK    2  A    between atoms: N_4  and  S_1 
REMARK    3  A    between atoms: N_2  and  C_7 
REMARK    4  A    between atoms: C_10  and  N_4 
ROOT
ATOM      1  N   UNL d   1      13.118  11.975  -3.034  0.00  0.00    -0.144 NA
ENDROOT
BRANCH   1   2
ATOM      2  S   UNL d   1      13.062  12.567  -3.607  0.00  0.00     0.351 S 
ATOM      3  O   UNL d   1      12.791  13.095  -3.034  0.00  0.00    -0.180 OA
ATOM      4  O   UNL d   1      12.878  13.344  -3.817  0.00  0.00    -0.180 OA
BRANCH   2   5
ATOM      5  N   UNL d   1      13.269  12.405  -4.389  0.00  0.00    -0.215 N 
ATOM      6  C   UNL d   1      12.771  11.947  -4.861  0.00  0.00     0.093 A 
ATOM      7  C   UNL d   1      12.978  11.785  -5.643  0.00  0.00     0.020 A 
ATOM      8  C   UNL d   1      13.682  12.082  -5.949  0.00  0.00     0.003 A 
ATOM      9  C   UNL d   1      14.181  12.540  -5.481  0.00  0.00     0.020 A 
ATOM     10  C   UNL d   1      13.974  12.702  -4.699  0.00  0.00     0.093 A 
ENDBRANCH   2   5
ENDBRANCH   1   2
BRANCH   1  11
ATOM     11  C   UNL d   1      13.601  12.084  -2.375  0.00  0.00     0.095 A 
ATOM     12  C   UNL d   1      14.419  12.146  -2.469  0.00  0.00     0.022 A 
ATOM     13  C   UNL d   1      14.902  12.255  -1.810  0.00  0.00     0.025 A 
ATOM     14  C   UNL d   1      14.569  12.300  -1.056  0.00  0.00     0.127 A 
ATOM     15  C   UNL d   1      13.747  12.237  -0.960  0.00  0.00     0.025 A 
ATOM     16  C   UNL d   1      13.264  12.129  -1.619  0.00  0.00     0.022 A 
BRANCH  14  17
ATOM     17  N   UNL d   1      15.052  12.409  -0.396  0.00  0.00    -0.114 N 
ATOM     18  O   UNL d   1      15.077  13.147  -0.020  0.00  0.00    -0.532 OA
ATOM     19  O   UNL d   1      15.510  11.783  -0.113  0.00  0.00    -0.532 OA
ENDBRANCH  14  17
ENDBRANCH   1  11
TORSDOF 4
ENDMDL
