MODEL 1
REMARK VINA RESULT:      45.7      0.000      0.000
REMARK  6 active torsions:
REMARK  status: ('A' for Active; 'I' for Inactive)
REMARK    1  A    between atoms: C_2  and  N_1 
REMARK    2  A    between atoms: C_4  and  C_2 
REMARK    3  A    between atoms: C_6  and  C_2 
REMARK    4  A    between atoms: C_8  and  N_3 
REMARK       I    between atoms: C_5  and  N_7 
REMARK    5  A    between atoms: O_20  and  C_5 
REMARK    6  A    between atoms: N_7  and  C_6 
ROOT
ATOM      1  N   UNL d   1      45.210 -16.480  38.060  0.00  0.00    -0.298 N 
ATOM      2  N   UNL d   1      45.598 -17.358  39.403  0.00  0.00    -0.301 N 
ATOM      3  C   UNL d   1      44.620 -16.851  38.486  0.00  0.00     0.100 A 
ATOM      4  C   UNL d   1      45.997 -16.543  38.299  0.00  0.00     0.100 A 
ATOM      5  C   UNL d   1      46.189 -16.976  38.962  0.00  0.00     0.100 A 
ATOM      6  C   UNL d   1      44.810 -17.295  39.165  0.00  0.00     0.100 A 
ENDROOT
BRANCH   1   7
ATOM      7  C   UNL d   1      45.019 -16.036  37.382  0.00  0.00     0.107 C 
BRANCH   7   8
ATOM      8  C   UNL d   1      45.554 -15.445  37.118  0.00  0.00     0.118 A 
ATOM      9  O   UNL d   1      45.585 -14.710  37.492  0.00  0.00    -0.304 OA
ATOM     10  C   UNL d   1      46.163 -14.256  37.104  0.00  0.00     0.123 A 
ATOM     11  C   UNL d   1      46.480 -14.706  36.503  0.00  0.00     0.029 A 
ATOM     12  C   UNL d   1      46.106 -15.446  36.506  0.00  0.00     0.028 A 
ENDBRANCH   7   8
BRANCH   7  13
ATOM     13  C   UNL d   1      44.321 -16.165  36.967  0.00  0.00     0.124 C 
BRANCH  13  14
ATOM     14  N   UNL d   1      43.708 -15.593  37.001  0.00  0.00    -0.183 NA
ATOM     15  C   UNL d   1      42.972 -15.759  36.696  0.00  0.00     0.388 C 
ATOM     16  O   UNL d   1      42.825 -16.497  36.351  0.00  0.00    -0.236 OA
BRANCH  15  17
ATOM     17  O   UNL d   1      42.376 -15.191  36.733  0.00  0.00    -0.281 OA
ATOM     18  C   UNL d   1      41.664 -15.314  36.334  0.00  0.00     0.186 C 
ENDBRANCH  15  17
ENDBRANCH  13  14
ENDBRANCH   7  13
ENDBRANCH   1   7
BRANCH   2  19
ATOM     19  C   UNL d   1      45.792 -17.786  40.060  0.00  0.00     0.064 A 
ATOM     20  C   UNL d   1      45.377 -17.674  40.762  0.00  0.00     0.020 A 
ATOM     21  C   UNL d   1      45.569 -18.106  41.436  0.00  0.00     0.031 A 
ATOM     22  C   UNL d   1      46.182 -18.657  41.407  0.00  0.00     0.140 A 
ATOM     23  C   UNL d   1      46.601 -18.773  40.705  0.00  0.00     0.031 A 
ATOM     24  F   UNL d   1      46.383 -19.101  42.089  0.00  0.00    -0.204 F 
ATOM     25  C   UNL d   1      46.405 -18.337  40.031  0.00  0.00     0.020 A 
ENDBRANCH   2  19
TORSDOF 6
ENDMDL
MODEL 2
REMARK VINA RESULT:      48.5      0.836      2.393
REMARK  6 active torsions:
REMARK  status: ('A' for Active; 'I' for Inactive)
REMARK    1  A    between atoms: C_2  and  N_1 
REMARK    2  A    between atoms: C_4  and  C_2 
REMARK    3  A    between atoms: C_6  and  C_2 
REMARK    4  A    between atoms: C_8  and  N_3 
REMARK       I    between atoms: C_5  and  N_7 
REMARK    5  A    between atoms: O_20  and  C_5 
REMARK    6  A    between atoms: N_7  and  C_6 
ROOT
ATOM      1  N   UNL d   1      44.764 -16.493  37.848  0.00  0.00    -0.298 N 
ATOM      2  N   UNL d   1      45.188 -17.344  39.198  0.00  0.00    -0.301 N 
ATOM      3  C   UNL d   1      44.777 -16.120  38.576  0.00  0.00     0.100 A 
ATOM      4  C   UNL d   1      44.962 -17.292  37.787  0.00  0.00     0.100 A 
ATOM      5  C   UNL d   1      45.172 -17.712  38.454  0.00  0.00     0.100 A 
ATOM      6  C   UNL d   1      44.990 -16.545  39.259  0.00  0.00     0.100 A 
ENDROOT
BRANCH   1   7
ATOM      7  C   UNL d   1      44.551 -16.068  37.164  0.00  0.00     0.107 C 
BRANCH   7   8
ATOM      8  C   UNL d   1      43.741 -15.901  37.025  0.00  0.00     0.118 A 
ATOM      9  O   UNL d   1      43.373 -16.154  36.330  0.00  0.00    -0.304 OA
ATOM     10  C   UNL d   1      42.581 -15.904  36.361  0.00  0.00     0.123 A 
ATOM     11  C   UNL d   1      42.467 -15.506  37.063  0.00  0.00     0.029 A 
ATOM     12  C   UNL d   1      43.182 -15.501  37.480  0.00  0.00     0.028 A 
ENDBRANCH   7   8
BRANCH   7  13
ATOM     13  C   UNL d   1      45.117 -15.810  36.626  0.00  0.00     0.124 C 
BRANCH  13  14
ATOM     14  N   UNL d   1      45.213 -14.988  36.488  0.00  0.00    -0.183 NA
ATOM     15  C   UNL d   1      45.945 -14.641  36.563  0.00  0.00     0.388 C 
ATOM     16  O   UNL d   1      46.600 -15.101  36.775  0.00  0.00    -0.236 OA
BRANCH  15  17
ATOM     17  O   UNL d   1      46.030 -13.833  36.426  0.00  0.00    -0.281 OA
ATOM     18  C   UNL d   1      46.632 -13.412  36.803  0.00  0.00     0.186 C 
ENDBRANCH  15  17
ENDBRANCH  13  14
ENDBRANCH   7  13
ENDBRANCH   1   7
BRANCH   2  19
ATOM     19  C   UNL d   1      45.397 -17.764  39.856  0.00  0.00     0.064 A 
ATOM     20  C   UNL d   1      46.167 -18.043  39.938  0.00  0.00     0.020 A 
ATOM     21  C   UNL d   1      46.387 -18.473  40.605  0.00  0.00     0.031 A 
ATOM     22  C   UNL d   1      45.832 -18.624  41.196  0.00  0.00     0.140 A 
ATOM     23  C   UNL d   1      45.058 -18.345  41.118  0.00  0.00     0.031 A 
ATOM     24  F   UNL d   1      46.049 -19.060  41.878  0.00  0.00    -0.204 F 
ATOM     25  C   UNL d   1      44.841 -17.915  40.447  0.00  0.00     0.020 A 
ENDBRANCH   2  19
TORSDOF 6
ENDMDL
