MODEL 1
REMARK VINA RESULT:      -3.9      0.000      0.000
REMARK  4 active torsions:
REMARK  status: ('A' for Active; 'I' for Inactive)
REMARK    1  A    between atoms: C_6  and  C_1 
REMARK    2  A    between atoms: C_4  and  C_2 
REMARK    3  A    between atoms: C_3  and  N_5 
REMARK    4  A    between atoms: N_5  and  C_7 
ROOT
ATOM      1  C   UNL d   1      58.324  -0.672  29.896  0.00  0.00     0.073 A 
ATOM      2  C   UNL d   1      57.359  -0.232  30.846  0.00  0.00     0.081 A 
ATOM      3  C   UNL d   1      57.830  -0.831  30.532  0.00  0.00     0.023 A 
ATOM      4  C   UNL d   1      58.349   0.079  29.575  0.00  0.00     0.004 A 
ATOM      5  C   UNL d   1      57.877   0.681  29.890  0.00  0.00     0.002 A 
ATOM      6  C   UNL d   1      57.383   0.525  30.524  0.00  0.00     0.019 A 
ENDROOT
BRANCH   2   7
ATOM      7  N   UNL d   1      56.863  -0.385  31.482  0.00  0.00    -0.245 NA
BRANCH   7   8
ATOM      8  C   UNL d   1      57.062  -0.093  32.230  0.00  0.00     0.087 A 
ATOM      9  C   UNL d   1      56.594  -0.287  32.885  0.00  0.00     0.082 A 
ATOM     10  C   UNL d   1      56.789   0.002  33.633  0.00  0.00     0.008 A 
ATOM     11  C   UNL d   1      57.453   0.486  33.731  0.00  0.00     0.000 A 
ATOM     12  C   UNL d   1      57.922   0.682  33.081  0.00  0.00     0.002 A 
ATOM     13  C   UNL d   1      57.728   0.392  32.328  0.00  0.00     0.019 A 
BRANCH   9  14
ATOM     14  C   UNL d   1      55.924  -0.775  32.789  0.00  0.00     0.212 C 
ATOM     15  O   UNL d   1      55.179  -0.468  32.946  0.00  0.00    -0.644 OA
ATOM     16  O   UNL d   1      56.020  -1.551  32.542  0.00  0.00    -0.644 OA
ENDBRANCH   9  14
ENDBRANCH   7   8
ENDBRANCH   2   7
BRANCH   1  17
ATOM     17  C   UNL d   1      58.794  -1.271  29.582  0.00  0.00     0.419 C 
ATOM     18  F   UNL d   1      59.533  -1.443  29.922  0.00  0.00    -0.166 F 
ATOM     19  F   UNL d   1      58.534  -1.705  28.926  0.00  0.00    -0.166 F 
ATOM     20  F   UNL d   1      59.402  -1.811  29.430  0.00  0.00    -0.166 F 
ENDBRANCH   1  17
TORSDOF 4
ENDMDL
MODEL 2
REMARK VINA RESULT:      -3.9      3.040      4.101
REMARK  4 active torsions:
REMARK  status: ('A' for Active; 'I' for Inactive)
REMARK    1  A    between atoms: C_6  and  C_1 
REMARK    2  A    between atoms: C_4  and  C_2 
REMARK    3  A    between atoms: C_3  and  N_5 
REMARK    4  A    between atoms: N_5  and  C_7 
ROOT
ATOM      1  C   UNL d   1      55.401  -0.097  33.427  0.00  0.00     0.073 A 
ATOM      2  C   UNL d   1      56.288  -0.056  32.314  0.00  0.00     0.081 A 
ATOM      3  C   UNL d   1      55.827   0.335  32.875  0.00  0.00     0.023 A 
ATOM      4  C   UNL d   1      55.434  -0.914  33.422  0.00  0.00     0.004 A 
ATOM      5  C   UNL d   1      55.897  -1.306  32.860  0.00  0.00     0.002 A 
ATOM      6  C   UNL d   1      56.323  -0.878  32.307  0.00  0.00     0.019 A 
ENDROOT
BRANCH   2   7
ATOM      7  N   UNL d   1      56.716   0.372  31.759  0.00  0.00    -0.245 NA
BRANCH   7   8
ATOM      8  C   UNL d   1      57.529   0.475  31.868  0.00  0.00     0.087 A 
ATOM      9  C   UNL d   1      58.032   0.500  31.210  0.00  0.00     0.082 A 
ATOM     10  C   UNL d   1      58.845   0.603  31.314  0.00  0.00     0.008 A 
ATOM     11  C   UNL d   1      59.159   0.682  32.075  0.00  0.00     0.000 A 
ATOM     12  C   UNL d   1      58.662   0.658  32.733  0.00  0.00     0.002 A 
ATOM     13  C   UNL d   1      57.845   0.555  32.631  0.00  0.00     0.019 A 
BRANCH   9  14
ATOM     14  C   UNL d   1      57.718   0.420  30.441  0.00  0.00     0.212 C 
ATOM     15  O   UNL d   1      58.181   0.084  29.852  0.00  0.00    -0.644 OA
ATOM     16  O   UNL d   1      56.955   0.677  30.287  0.00  0.00    -0.644 OA
ENDBRANCH   9  14
ENDBRANCH   7   8
ENDBRANCH   2   7
BRANCH   1  17
ATOM     17  C   UNL d   1      54.940   0.294  33.987  0.00  0.00     0.419 C 
ATOM     18  F   UNL d   1      54.133   0.429  33.842  0.00  0.00    -0.166 F 
ATOM     19  F   UNL d   1      55.279   0.554  34.698  0.00  0.00    -0.166 F 
ATOM     20  F   UNL d   1      54.319   0.653  34.400  0.00  0.00    -0.166 F 
ENDBRANCH   1  17
TORSDOF 4
ENDMDL
MODEL 3
REMARK VINA RESULT:      -2.3      2.996      3.933
REMARK  4 active torsions:
REMARK  status: ('A' for Active; 'I' for Inactive)
REMARK    1  A    between atoms: C_6  and  C_1 
REMARK    2  A    between atoms: C_4  and  C_2 
REMARK    3  A    between atoms: C_3  and  N_5 
REMARK    4  A    between atoms: N_5  and  C_7 
ROOT
ATOM      1  C   UNL d   1      59.831  -3.042  28.883  0.00  0.00     0.073 A 
ATOM      2  C   UNL d   1      59.469  -1.669  28.780  0.00  0.00     0.081 A 
ATOM      3  C   UNL d   1      60.027  -2.249  28.958  0.00  0.00     0.023 A 
ATOM      4  C   UNL d   1      59.082  -3.257  28.633  0.00  0.00     0.004 A 
ATOM      5  C   UNL d   1      58.523  -2.675  28.455  0.00  0.00     0.002 A 
ATOM      6  C   UNL d   1      58.716  -1.883  28.528  0.00  0.00     0.019 A 
ENDROOT
BRANCH   2   7
ATOM      7  N   UNL d   1      59.661  -0.874  28.853  0.00  0.00    -0.245 NA
BRANCH   7   8
ATOM      8  C   UNL d   1      59.279  -0.417  29.427  0.00  0.00     0.087 A 
ATOM      9  C   UNL d   1      59.675   0.223  29.774  0.00  0.00     0.082 A 
ATOM     10  C   UNL d   1      59.297   0.682  30.346  0.00  0.00     0.008 A 
ATOM     11  C   UNL d   1      58.523   0.505  30.576  0.00  0.00     0.000 A 
ATOM     12  C   UNL d   1      58.125  -0.132  30.233  0.00  0.00     0.002 A 
ATOM     13  C   UNL d   1      58.502  -0.595  29.657  0.00  0.00     0.019 A 
BRANCH   9  14
ATOM     14  C   UNL d   1      60.457   0.404  29.544  0.00  0.00     0.212 C 
ATOM     15  O   UNL d   1      61.067   0.303  30.085  0.00  0.00    -0.644 OA
ATOM     16  O   UNL d   1      60.603   0.678  28.785  0.00  0.00    -0.644 OA
ENDBRANCH   9  14
ENDBRANCH   7   8
ENDBRANCH   2   7
BRANCH   1  17
ATOM     17  C   UNL d   1      60.388  -3.622  29.060  0.00  0.00     0.419 C 
ATOM     18  F   UNL d   1      60.710  -3.671  29.825  0.00  0.00    -0.166 F 
ATOM     19  F   UNL d   1      60.631  -4.159  28.478  0.00  0.00    -0.166 F 
ATOM     20  F   UNL d   1      60.941  -4.109  29.438  0.00  0.00    -0.166 F 
ENDBRANCH   1  17
TORSDOF 4
ENDMDL
MODEL 4
REMARK VINA RESULT:      -1.5      2.533      3.881
REMARK  4 active torsions:
REMARK  status: ('A' for Active; 'I' for Inactive)
REMARK    1  A    between atoms: C_6  and  C_1 
REMARK    2  A    between atoms: C_4  and  C_2 
REMARK    3  A    between atoms: C_3  and  N_5 
REMARK    4  A    between atoms: N_5  and  C_7 
ROOT
ATOM      1  C   UNL d   1      56.828  -0.277  32.134  0.00  0.00     0.073 A 
ATOM      2  C   UNL d   1      57.593   0.124  31.003  0.00  0.00     0.081 A 
ATOM      3  C   UNL d   1      56.964  -0.299  31.325  0.00  0.00     0.023 A 
ATOM      4  C   UNL d   1      57.316   0.164  32.620  0.00  0.00     0.004 A 
ATOM      5  C   UNL d   1      57.948   0.588  32.296  0.00  0.00     0.002 A 
ATOM      6  C   UNL d   1      58.086   0.569  31.489  0.00  0.00     0.019 A 
ENDROOT
BRANCH   2   7
ATOM      7  N   UNL d   1      57.734   0.106  30.194  0.00  0.00    -0.245 NA
BRANCH   7   8
ATOM      8  C   UNL d   1      58.130  -0.543  29.867  0.00  0.00     0.087 A 
ATOM      9  C   UNL d   1      58.514  -0.465  29.138  0.00  0.00     0.082 A 
ATOM     10  C   UNL d   1      58.911  -1.109  28.807  0.00  0.00     0.008 A 
ATOM     11  C   UNL d   1      58.925  -1.835  29.204  0.00  0.00     0.000 A 
ATOM     12  C   UNL d   1      58.543  -1.917  29.931  0.00  0.00     0.002 A 
ATOM     13  C   UNL d   1      58.144  -1.271  30.265  0.00  0.00     0.019 A 
BRANCH   9  14
ATOM     14  C   UNL d   1      58.502   0.267  28.735  0.00  0.00     0.212 C 
ATOM     15  O   UNL d   1      57.786   0.557  28.455  0.00  0.00    -0.644 OA
ATOM     16  O   UNL d   1      59.200   0.682  28.627  0.00  0.00    -0.644 OA
ENDBRANCH   9  14
ENDBRANCH   7   8
ENDBRANCH   2   7
BRANCH   1  17
ATOM     17  C   UNL d   1      56.199  -0.701  32.456  0.00  0.00     0.419 C 
ATOM     18  F   UNL d   1      56.266  -1.521  32.576  0.00  0.00    -0.166 F 
ATOM     19  F   UNL d   1      55.497  -0.312  32.662  0.00  0.00    -0.166 F 
ATOM     20  F   UNL d   1      55.707  -1.295  32.755  0.00  0.00    -0.166 F 
ENDBRANCH   1  17
TORSDOF 4
ENDMDL
