MODEL 1
REMARK VINA RESULT:      -3.5      0.000      0.000
REMARK  5 active torsions:
REMARK  status: ('A' for Active; 'I' for Inactive)
REMARK    1  A    between atoms: C_7  and  N_2 
REMARK    2  A    between atoms: C_14  and  C_7 
REMARK    3  A    between atoms: C_8  and  O_16 
REMARK    4  A    between atoms: C_18  and  C_14 
REMARK    5  A    between atoms: O_16  and  C_18 
ROOT
ATOM      1  C   UNL d   1      33.091  18.533 -23.198  0.00  0.00     0.086 C 
ENDROOT
BRANCH   1   2
ATOM      2  N   UNL d   1      32.666  18.217 -23.829  0.00  0.00    -0.268 N 
ATOM      3  C   UNL d   1      32.593  18.555 -24.577  0.00  0.00     0.296 A 
ATOM      4  S   UNL d   1      32.116  18.048 -25.037  0.00  0.00    -0.025 SA
ATOM      5  O   UNL d   1      32.926  19.263 -24.834  0.00  0.00    -0.259 OA
ATOM      6  C   UNL d   1      31.905  17.407 -24.561  0.00  0.00     0.050 A 
ATOM      7  C   UNL d   1      31.439  16.730 -24.715  0.00  0.00     0.008 A 
ATOM      8  C   UNL d   1      32.240  17.507 -23.820  0.00  0.00     0.073 A 
ATOM      9  C   UNL d   1      31.321  16.172 -24.122  0.00  0.00     0.001 A 
ATOM     10  C   UNL d   1      31.664  16.281 -23.376  0.00  0.00     0.002 A 
ATOM     11  C   UNL d   1      32.125  16.948 -23.222  0.00  0.00     0.018 A 
ENDBRANCH   1   2
BRANCH   1  12
ATOM     12  C   UNL d   1      32.867  19.260 -22.864  0.00  0.00     0.046 C 
BRANCH  12  13
ATOM     13  C   UNL d   1      33.239  19.542 -22.184  0.00  0.00     0.124 C 
BRANCH  13  14
ATOM     14  O   UNL d   1      33.040  20.277 -21.882  0.00  0.00    -0.305 OA
BRANCH  14  15
ATOM     15  C   UNL d   1      32.838  21.019 -21.574  0.00  0.00     0.100 A 
ATOM     16  C   UNL d   1      33.164  21.685 -21.903  0.00  0.00     0.025 A 
ATOM     17  C   UNL d   1      32.968  22.433 -21.600  0.00  0.00     0.002 A 
ATOM     18  C   UNL d   1      32.441  22.492 -20.965  0.00  0.00     0.000 A 
ATOM     19  C   UNL d   1      32.116  21.807 -20.638  0.00  0.00     0.002 A 
ATOM     20  C   UNL d   1      32.243  23.226 -20.662  0.00  0.00     0.000 C 
ATOM     21  C   UNL d   1      32.313  21.073 -20.941  0.00  0.00     0.025 A 
ENDBRANCH  14  15
ENDBRANCH  13  14
ENDBRANCH  12  13
ENDBRANCH   1  12
TORSDOF 5
ENDMDL
MODEL 2
REMARK VINA RESULT:      -3.2      1.711      5.290
REMARK  5 active torsions:
REMARK  status: ('A' for Active; 'I' for Inactive)
REMARK    1  A    between atoms: C_7  and  N_2 
REMARK    2  A    between atoms: C_14  and  C_7 
REMARK    3  A    between atoms: C_8  and  O_16 
REMARK    4  A    between atoms: C_18  and  C_14 
REMARK    5  A    between atoms: O_16  and  C_18 
ROOT
ATOM      1  C   UNL d   1      33.237  20.897 -22.277  0.00  0.00     0.086 C 
ENDROOT
BRANCH   1   2
ATOM      2  N   UNL d   1      32.884  21.356 -21.693  0.00  0.00    -0.268 N 
ATOM      3  C   UNL d   1      32.692  21.102 -20.932  0.00  0.00     0.296 A 
ATOM      4  S   UNL d   1      32.346  21.746 -20.531  0.00  0.00    -0.025 SA
ATOM      5  O   UNL d   1      32.815  20.351 -20.616  0.00  0.00    -0.259 OA
ATOM      6  C   UNL d   1      32.332  22.385 -21.054  0.00  0.00     0.050 A 
ATOM      7  C   UNL d   1      32.054  23.170 -20.967  0.00  0.00     0.008 A 
ATOM      8  C   UNL d   1      32.660  22.150 -21.767  0.00  0.00     0.073 A 
ATOM      9  C   UNL d   1      32.113  23.696 -21.596  0.00  0.00     0.001 A 
ATOM     10  C   UNL d   1      32.447  23.449 -22.314  0.00  0.00     0.002 A 
ATOM     11  C   UNL d   1      32.722  22.675 -22.402  0.00  0.00     0.018 A 
ENDBRANCH   1   2
BRANCH   1  12
ATOM     12  C   UNL d   1      32.944  20.138 -22.449  0.00  0.00     0.046 C 
BRANCH  12  13
ATOM     13  C   UNL d   1      33.170  19.747 -23.139  0.00  0.00     0.124 C 
BRANCH  13  14
ATOM     14  O   UNL d   1      32.904  18.987 -23.286  0.00  0.00    -0.305 OA
BRANCH  14  15
ATOM     15  C   UNL d   1      32.633  18.217 -23.433  0.00  0.00     0.100 A 
ATOM     16  C   UNL d   1      33.012  17.592 -23.080  0.00  0.00     0.025 A 
ATOM     17  C   UNL d   1      32.748  16.817 -23.221  0.00  0.00     0.002 A 
ATOM     18  C   UNL d   1      32.100  16.691 -23.720  0.00  0.00     0.000 A 
ATOM     19  C   UNL d   1      31.724  17.334 -24.073  0.00  0.00     0.002 A 
ATOM     20  C   UNL d   1      31.835  15.929 -23.863  0.00  0.00     0.000 C 
ATOM     21  C   UNL d   1      31.989  18.095 -23.930  0.00  0.00     0.025 A 
ENDBRANCH  14  15
ENDBRANCH  13  14
ENDBRANCH  12  13
ENDBRANCH   1  12
TORSDOF 5
ENDMDL
MODEL 3
REMARK VINA RESULT:      -2.6      1.106      1.643
REMARK  5 active torsions:
REMARK  status: ('A' for Active; 'I' for Inactive)
REMARK    1  A    between atoms: C_7  and  N_2 
REMARK    2  A    between atoms: C_14  and  C_7 
REMARK    3  A    between atoms: C_8  and  O_16 
REMARK    4  A    between atoms: C_18  and  C_14 
REMARK    5  A    between atoms: O_16  and  C_18 
ROOT
ATOM      1  C   UNL d   1      32.210  17.694 -23.868  0.00  0.00     0.086 C 
ENDROOT
BRANCH   1   2
ATOM      2  N   UNL d   1      31.476  17.418 -24.119  0.00  0.00    -0.268 N 
ATOM      3  C   UNL d   1      30.994  17.777 -24.682  0.00  0.00     0.296 A 
ATOM      4  S   UNL d   1      30.308  17.310 -24.762  0.00  0.00    -0.025 SA
ATOM      5  O   UNL d   1      31.151  18.472 -25.097  0.00  0.00    -0.259 OA
ATOM      6  C   UNL d   1      30.382  16.671 -24.245  0.00  0.00     0.050 A 
ATOM      7  C   UNL d   1      29.875  16.025 -24.082  0.00  0.00     0.008 A 
ATOM      8  C   UNL d   1      31.097  16.733 -23.848  0.00  0.00     0.073 A 
ATOM      9  C   UNL d   1      30.099  15.461 -23.527  0.00  0.00     0.001 A 
ATOM     10  C   UNL d   1      30.824  15.532 -23.131  0.00  0.00     0.002 A 
ATOM     11  C   UNL d   1      31.325  16.168 -23.290  0.00  0.00     0.018 A 
ENDBRANCH   1   2
BRANCH   1  12
ATOM     12  C   UNL d   1      32.328  18.505 -23.728  0.00  0.00     0.046 C 
BRANCH  12  13
ATOM     13  C   UNL d   1      33.058  18.785 -23.469  0.00  0.00     0.124 C 
BRANCH  13  14
ATOM     14  O   UNL d   1      33.095  19.365 -22.893  0.00  0.00    -0.305 OA
BRANCH  14  15
ATOM     15  C   UNL d   1      33.131  19.955 -22.312  0.00  0.00     0.100 A 
ATOM     16  C   UNL d   1      33.158  19.738 -21.530  0.00  0.00     0.025 A 
ATOM     17  C   UNL d   1      33.195  20.322 -20.941  0.00  0.00     0.002 A 
ATOM     18  C   UNL d   1      33.203  21.121 -21.157  0.00  0.00     0.000 A 
ATOM     19  C   UNL d   1      33.176  21.329 -21.955  0.00  0.00     0.002 A 
ATOM     20  C   UNL d   1      33.239  21.702 -20.581  0.00  0.00     0.000 C 
ATOM     21  C   UNL d   1      33.140  20.749 -22.531  0.00  0.00     0.025 A 
ENDBRANCH  14  15
ENDBRANCH  13  14
ENDBRANCH  12  13
ENDBRANCH   1  12
TORSDOF 5
ENDMDL
MODEL 4
REMARK VINA RESULT:      -2.5      2.128      5.521
REMARK  5 active torsions:
REMARK  status: ('A' for Active; 'I' for Inactive)
REMARK    1  A    between atoms: C_7  and  N_2 
REMARK    2  A    between atoms: C_14  and  C_7 
REMARK    3  A    between atoms: C_8  and  O_16 
REMARK    4  A    between atoms: C_18  and  C_14 
REMARK    5  A    between atoms: O_16  and  C_18 
ROOT
ATOM      1  C   UNL d   1      32.593  21.249 -20.981  0.00  0.00     0.086 C 
ENDROOT
BRANCH   1   2
ATOM      2  N   UNL d   1      32.642  22.055 -20.822  0.00  0.00    -0.268 N 
ATOM      3  C   UNL d   1      32.490  22.662 -21.360  0.00  0.00     0.296 A 
ATOM      4  S   UNL d   1      32.607  23.385 -20.963  0.00  0.00    -0.025 SA
ATOM      5  O   UNL d   1      32.265  22.578 -22.148  0.00  0.00    -0.259 OA
ATOM      6  C   UNL d   1      32.828  23.210 -20.187  0.00  0.00     0.050 A 
ATOM      7  C   UNL d   1      33.016  23.702 -19.537  0.00  0.00     0.008 A 
ATOM      8  C   UNL d   1      32.850  22.396 -20.096  0.00  0.00     0.073 A 
ATOM      9  C   UNL d   1      33.220  23.365 -18.815  0.00  0.00     0.001 A 
ATOM     10  C   UNL d   1      33.240  22.540 -18.733  0.00  0.00     0.002 A 
ATOM     11  C   UNL d   1      33.056  22.053 -19.373  0.00  0.00     0.018 A 
ENDBRANCH   1   2
BRANCH   1  12
ATOM     12  C   UNL d   1      33.071  20.908 -21.568  0.00  0.00     0.046 C 
BRANCH  12  13
ATOM     13  C   UNL d   1      33.223  20.097 -21.568  0.00  0.00     0.124 C 
BRANCH  13  14
ATOM     14  O   UNL d   1      33.106  19.657 -22.249  0.00  0.00    -0.305 OA
BRANCH  14  15
ATOM     15  C   UNL d   1      32.987  19.209 -22.935  0.00  0.00     0.100 A 
ATOM     16  C   UNL d   1      32.771  18.430 -22.866  0.00  0.00     0.025 A 
ATOM     17  C   UNL d   1      32.649  17.973 -23.548  0.00  0.00     0.002 A 
ATOM     18  C   UNL d   1      32.751  18.317 -24.294  0.00  0.00     0.000 A 
ATOM     19  C   UNL d   1      32.971  19.110 -24.352  0.00  0.00     0.002 A 
ATOM     20  C   UNL d   1      32.632  17.872 -24.971  0.00  0.00     0.000 C 
ATOM     21  C   UNL d   1      33.089  19.555 -23.675  0.00  0.00     0.025 A 
ENDBRANCH  14  15
ENDBRANCH  13  14
ENDBRANCH  12  13
ENDBRANCH   1  12
TORSDOF 5
ENDMDL
