MODEL 1
REMARK VINA RESULT:      38.3      0.000      0.000
REMARK  7 active torsions:
REMARK  status: ('A' for Active; 'I' for Inactive)
REMARK    1  A    between atoms: N_4  and  C_1 
REMARK    2  A    between atoms: C_9  and  C_2 
REMARK    3  A    between atoms: C_7  and  N_4 
REMARK       I    between atoms: C_10  and  N_8 
REMARK    4  A    between atoms: C_17  and  C_10 
REMARK    5  A    between atoms: C_12  and  C_18 
REMARK    6  A    between atoms: O_20  and  C_12 
REMARK    7  A    between atoms: C_18  and  C_17 
ROOT
ATOM      1  N   UNL d   1     -57.369 -99.119 -44.117  0.00  0.00    -0.211 NA
ENDROOT
BRANCH   1   2
ATOM      2  C   UNL d   1     -56.597 -99.272 -44.420  0.00  0.00     0.118 A 
ATOM      3  C   UNL d   1     -56.174-100.002 -44.353  0.00  0.00     0.084 A 
ATOM      4  C   UNL d   1     -55.445 -99.904 -44.727  0.00  0.00     0.013 A 
ATOM      5  C   UNL d   1     -54.834-100.500 -44.796  0.00  0.00     0.001 C 
ATOM      6  C   UNL d   1     -55.398 -99.153 -45.021  0.00  0.00     0.031 A 
ATOM      7  S   UNL d   1     -56.098 -98.756 -44.839  0.00  0.00    -0.068 SA
ATOM      8  C   UNL d   1     -54.727 -98.840 -45.446  0.00  0.00     0.007 C 
BRANCH   3   9
ATOM      9  C   UNL d   1     -56.453-100.708 -43.967  0.00  0.00     0.299 C 
ATOM     10  O   UNL d   1     -56.911-101.271 -44.399  0.00  0.00    -0.264 OA
ATOM     11  N   UNL d   1     -56.275-100.857 -43.143  0.00  0.00    -0.102 N 
ENDBRANCH   3   9
ENDBRANCH   1   2
BRANCH   1  12
ATOM     12  C   UNL d   1     -57.471 -99.025 -43.327  0.00  0.00     0.224 C 
ATOM     13  N   UNL d   1     -58.580 -98.871 -42.902  0.00  0.00    -0.179 NA
ATOM     14  C   UNL d   1     -59.205 -98.865 -43.415  0.00  0.00     0.281 C 
ATOM     15  O   UNL d   1     -59.952 -98.762 -43.129  0.00  0.00    -0.265 OA
ATOM     16  S   UNL d   1     -56.842 -99.031 -42.818  0.00  0.00    -0.037 SA
BRANCH  14  17
ATOM     17  C   UNL d   1     -59.090 -98.960 -44.199  0.00  0.00     0.068 C 
BRANCH  17  18
ATOM     18  C   UNL d   1     -59.647 -99.370 -44.624  0.00  0.00     0.073 C 
BRANCH  18  19
ATOM     19  C   UNL d   1     -59.538 -99.432 -45.429  0.00  0.00     0.296 C 
ATOM     20  O   UNL d   1     -59.387-100.128 -45.752  0.00  0.00    -0.259 OA
BRANCH  19  21
ATOM     21  O   UNL d   1     -59.589 -98.769 -45.893  0.00  0.00    -0.296 OA
ATOM     22  C   UNL d   1     -59.813 -98.845 -46.676  0.00  0.00     0.185 C 
ENDBRANCH  19  21
ENDBRANCH  18  19
ENDBRANCH  17  18
ENDBRANCH  14  17
ENDBRANCH   1  12
TORSDOF 7
ENDMDL
