MODEL 1
REMARK VINA RESULT:      40.3      0.000      0.000
REMARK  5 active torsions:
REMARK  status: ('A' for Active; 'I' for Inactive)
REMARK    1  A    between atoms: C_5  and  N_1 
REMARK    2  A    between atoms: C_12  and  C_2 
REMARK    3  A    between atoms: S_18  and  C_3 
REMARK    4  A    between atoms: C_9  and  C_12 
REMARK    5  A    between atoms: C_23  and  S_18 
ROOT
ATOM      1  N   UNL d   1      13.853  13.503  -3.655  0.00  0.00    -0.269 N 
ATOM      2  C   UNL d   1      14.326  13.410  -2.989  0.00  0.00     0.172 A 
ATOM      3  C   UNL d   1      13.649  14.287  -3.702  0.00  0.00     0.201 A 
ATOM      4  N   UNL d   1      14.405  14.144  -2.635  0.00  0.00    -0.128 NA
ATOM      5  N   UNL d   1      13.982  14.691  -3.082  0.00  0.00    -0.121 NA
ENDROOT
BRANCH   2   6
ATOM      6  C   UNL d   1      14.617  12.677  -2.796  0.00  0.00     0.059 C 
BRANCH   6   7
ATOM      7  C   UNL d   1      14.633  12.442  -2.009  0.00  0.00     0.094 A 
ATOM      8  C   UNL d   1      13.937  12.242  -1.625  0.00  0.00     0.082 A 
ATOM      9  C   UNL d   1      13.957  12.006  -0.834  0.00  0.00     0.285 A 
ATOM     10  O   UNL d   1      13.244  11.800  -0.435  0.00  0.00    -0.265 OA
ATOM     11  N   UNL d   1      14.689  11.975  -0.437  0.00  0.00    -0.152 NA
ATOM     12  C   UNL d   1      15.379  12.174  -0.822  0.00  0.00     0.371 A 
ATOM     13  N   UNL d   1      15.352  12.410  -1.618  0.00  0.00    -0.191 NA
ATOM     14  O   UNL d   1      16.098  12.139  -0.418  0.00  0.00    -0.242 OA
ENDBRANCH   6   7
ENDBRANCH   2   6
BRANCH   1  15
ATOM     15  C   UNL d   1      13.613  12.934  -4.192  0.00  0.00     0.067 A 
ATOM     16  C   UNL d   1      13.076  12.352  -3.962  0.00  0.00     0.016 A 
ATOM     17  C   UNL d   1      12.835  11.780  -4.502  0.00  0.00     0.001 A 
ATOM     18  C   UNL d   1      12.781  12.345  -3.185  0.00  0.00     0.002 C 
ATOM     19  C   UNL d   1      13.127  11.785  -5.274  0.00  0.00     0.000 A 
ATOM     20  C   UNL d   1      13.670  12.373  -5.510  0.00  0.00     0.001 A 
ATOM     21  C   UNL d   1      13.907  12.943  -4.962  0.00  0.00     0.018 A 
ATOM     22  C   UNL d   1      13.971  12.391  -6.279  0.00  0.00     0.000 C 
ENDBRANCH   1  15
BRANCH   3  23
ATOM     23  S   UNL d   1      13.166  14.621  -4.306  0.00  0.00    -0.048 SA
BRANCH  23  24
ATOM     24  C   UNL d   1      13.093  15.451  -4.359  0.00  0.00     0.038 C 
ATOM     25  C   UNL d   1      13.114  15.814  -5.101  0.00  0.00     0.008 C 
ENDBRANCH  23  24
ENDBRANCH   3  23
TORSDOF 5
ENDMDL
MODEL 2
REMARK VINA RESULT:      40.5      2.155      3.729
REMARK  5 active torsions:
REMARK  status: ('A' for Active; 'I' for Inactive)
REMARK    1  A    between atoms: C_5  and  N_1 
REMARK    2  A    between atoms: C_12  and  C_2 
REMARK    3  A    between atoms: S_18  and  C_3 
REMARK    4  A    between atoms: C_9  and  C_12 
REMARK    5  A    between atoms: C_23  and  S_18 
ROOT
ATOM      1  N   UNL d   1      14.205  13.318  -2.426  0.00  0.00    -0.269 N 
ATOM      2  C   UNL d   1      14.473  14.091  -2.499  0.00  0.00     0.172 A 
ATOM      3  C   UNL d   1      13.824  13.125  -3.116  0.00  0.00     0.201 A 
ATOM      4  N   UNL d   1      14.252  14.363  -3.238  0.00  0.00    -0.128 NA
ATOM      5  N   UNL d   1      13.847  13.758  -3.624  0.00  0.00    -0.121 NA
ENDROOT
BRANCH   2   6
ATOM      6  C   UNL d   1      14.879  14.439  -1.889  0.00  0.00     0.059 C 
BRANCH   6   7
ATOM      7  C   UNL d   1      14.943  15.258  -1.860  0.00  0.00     0.094 A 
ATOM      8  C   UNL d   1      14.918  15.648  -1.139  0.00  0.00     0.082 A 
ATOM      9  C   UNL d   1      14.983  16.470  -1.113  0.00  0.00     0.285 A 
ATOM     10  O   UNL d   1      14.958  16.875  -0.375  0.00  0.00    -0.265 OA
ATOM     11  N   UNL d   1      15.072  16.894  -1.825  0.00  0.00    -0.152 NA
ATOM     12  C   UNL d   1      15.096  16.503  -2.540  0.00  0.00     0.371 A 
ATOM     13  N   UNL d   1      15.031  15.675  -2.559  0.00  0.00    -0.191 NA
ATOM     14  O   UNL d   1      15.186  16.934  -3.239  0.00  0.00    -0.242 OA
ENDBRANCH   6   7
ENDBRANCH   2   6
BRANCH   1  15
ATOM     15  C   UNL d   1      14.287  12.808  -1.791  0.00  0.00     0.067 A 
ATOM     16  C   UNL d   1      14.965  12.345  -1.721  0.00  0.00     0.016 A 
ATOM     17  C   UNL d   1      15.047  11.833  -1.082  0.00  0.00     0.001 A 
ATOM     18  C   UNL d   1      15.563  12.397  -2.295  0.00  0.00     0.002 C 
ATOM     19  C   UNL d   1      14.454  11.779  -0.510  0.00  0.00     0.000 A 
ATOM     20  C   UNL d   1      13.766  12.247  -0.579  0.00  0.00     0.001 A 
ATOM     21  C   UNL d   1      13.692  12.758  -1.222  0.00  0.00     0.018 A 
ATOM     22  C   UNL d   1      13.165  12.204  -0.014  0.00  0.00     0.000 C 
ENDBRANCH   1  15
BRANCH   3  23
ATOM     23  S   UNL d   1      13.464  12.380  -3.275  0.00  0.00    -0.048 SA
BRANCH  23  24
ATOM     24  C   UNL d   1      12.803  12.344  -3.782  0.00  0.00     0.038 C 
ATOM     25  C   UNL d   1      12.782  11.779  -4.384  0.00  0.00     0.008 C 
ENDBRANCH  23  24
ENDBRANCH   3  23
TORSDOF 5
ENDMDL
MODEL 3
REMARK VINA RESULT:      40.9      2.106      3.962
REMARK  5 active torsions:
REMARK  status: ('A' for Active; 'I' for Inactive)
REMARK    1  A    between atoms: C_5  and  N_1 
REMARK    2  A    between atoms: C_12  and  C_2 
REMARK    3  A    between atoms: S_18  and  C_3 
REMARK    4  A    between atoms: C_9  and  C_12 
REMARK    5  A    between atoms: C_23  and  S_18 
ROOT
ATOM      1  N   UNL d   1      14.440  13.770  -1.424  0.00  0.00    -0.269 N 
ATOM      2  C   UNL d   1      14.058  13.807  -2.150  0.00  0.00     0.172 A 
ATOM      3  C   UNL d   1      14.643  14.527  -1.216  0.00  0.00     0.201 A 
ATOM      4  N   UNL d   1      14.033  14.592  -2.379  0.00  0.00    -0.128 NA
ATOM      5  N   UNL d   1      14.399  15.041  -1.794  0.00  0.00    -0.121 NA
ENDROOT
BRANCH   2   6
ATOM      6  C   UNL d   1      13.788  13.127  -2.502  0.00  0.00     0.059 C 
BRANCH   6   7
ATOM      7  C   UNL d   1      13.539  13.147  -3.285  0.00  0.00     0.094 A 
ATOM      8  C   UNL d   1      13.548  12.464  -3.738  0.00  0.00     0.082 A 
ATOM      9  C   UNL d   1      13.297  12.488  -4.524  0.00  0.00     0.285 A 
ATOM     10  O   UNL d   1      13.304  11.788  -4.993  0.00  0.00    -0.265 OA
ATOM     11  N   UNL d   1      13.037  13.211  -4.846  0.00  0.00    -0.152 NA
ATOM     12  C   UNL d   1      13.030  13.889  -4.394  0.00  0.00     0.371 A 
ATOM     13  N   UNL d   1      13.284  13.858  -3.603  0.00  0.00    -0.191 NA
ATOM     14  O   UNL d   1      12.771  14.600  -4.724  0.00  0.00    -0.242 OA
ENDBRANCH   6   7
ENDBRANCH   2   6
BRANCH   1  15
ATOM     15  C   UNL d   1      14.602  13.110  -0.967  0.00  0.00     0.067 A 
ATOM     16  C   UNL d   1      14.011  12.780  -0.497  0.00  0.00     0.016 A 
ATOM     17  C   UNL d   1      14.175  12.117  -0.038  0.00  0.00     0.001 A 
ATOM     18  C   UNL d   1      13.253  13.118  -0.488  0.00  0.00     0.002 C 
ATOM     19  C   UNL d   1      14.929  11.780  -0.045  0.00  0.00     0.000 A 
ATOM     20  C   UNL d   1      15.529  12.112  -0.520  0.00  0.00     0.001 A 
ATOM     21  C   UNL d   1      15.357  12.776  -0.977  0.00  0.00     0.018 A 
ATOM     22  C   UNL d   1      16.288  11.785  -0.537  0.00  0.00     0.000 C 
ENDBRANCH   1  15
BRANCH   3  23
ATOM     23  S   UNL d   1      15.046  14.739  -0.507  0.00  0.00    -0.048 SA
BRANCH  23  24
ATOM     24  C   UNL d   1      15.382  15.500  -0.438  0.00  0.00     0.038 C 
ATOM     25  C   UNL d   1      16.187  15.575  -0.271  0.00  0.00     0.008 C 
ENDBRANCH  23  24
ENDBRANCH   3  23
TORSDOF 5
ENDMDL
