MODEL 1
REMARK VINA RESULT:      -5.2      0.000      0.000
REMARK  1 active torsions:
REMARK  status: ('A' for Active; 'I' for Inactive)
REMARK    1  A    between atoms: O_15  and  C_11 
ROOT
ATOM      1  C   UNL d   1      56.228  -0.021  32.645  0.00  0.00     0.139 A 
ATOM      2  N   UNL d   1      56.569   0.627  32.228  0.00  0.00    -0.241 NA
ATOM      3  C   UNL d   1      56.474  -0.709  32.276  0.00  0.00     0.025 A 
ATOM      4  C   UNL d   1      56.962  -0.513  31.638  0.00  0.00     0.021 A 
ATOM      5  C   UNL d   1      57.014   0.307  31.616  0.00  0.00     0.082 A 
ATOM      6  C   UNL d   1      55.718  -0.040  33.322  0.00  0.00     0.297 A 
ATOM      7  N   UNL d   1      55.469  -0.768  33.611  0.00  0.00    -0.205 NA
ATOM      8  C   UNL d   1      57.360  -0.961  31.082  0.00  0.00     0.026 A 
ATOM      9  O   UNL d   1      55.473   0.676  33.690  0.00  0.00    -0.264 OA
ATOM     10  C   UNL d   1      57.464   0.682  31.039  0.00  0.00     0.021 A 
ATOM     11  C   UNL d   1      57.812  -0.583  30.502  0.00  0.00     0.094 A 
ATOM     12  C   UNL d   1      56.210  -1.462  32.584  0.00  0.00     0.022 A 
ATOM     13  C   UNL d   1      55.714  -1.482  33.243  0.00  0.00     0.102 A 
ATOM     14  C   UNL d   1      57.868   0.211  30.475  0.00  0.00     0.026 A 
ENDROOT
BRANCH  11  15
ATOM     15  O   UNL d   1      58.227  -1.009  29.924  0.00  0.00    -0.328 OA
ATOM     16  C   UNL d   1      58.761  -0.625  29.408  0.00  0.00     0.181 C 
ENDBRANCH  11  15
TORSDOF 1
ENDMDL
MODEL 2
REMARK VINA RESULT:      -4.3      1.549      2.112
REMARK  1 active torsions:
REMARK  status: ('A' for Active; 'I' for Inactive)
REMARK    1  A    between atoms: O_15  and  C_11 
ROOT
ATOM      1  C   UNL d   1      55.955   0.681  34.326  0.00  0.00     0.139 A 
ATOM      2  N   UNL d   1      56.796   0.680  34.285  0.00  0.00    -0.241 NA
ATOM      3  C   UNL d   1      55.670   0.680  33.559  0.00  0.00     0.025 A 
ATOM      4  C   UNL d   1      56.309   0.680  33.034  0.00  0.00     0.021 A 
ATOM      5  C   UNL d   1      56.994   0.679  33.487  0.00  0.00     0.082 A 
ATOM      6  C   UNL d   1      55.431   0.681  34.992  0.00  0.00     0.297 A 
ATOM      7  N   UNL d   1      54.620   0.682  34.860  0.00  0.00    -0.205 NA
ATOM      8  C   UNL d   1      56.361   0.679  32.218  0.00  0.00     0.026 A 
ATOM      9  O   UNL d   1      55.739   0.682  35.775  0.00  0.00    -0.264 OA
ATOM     10  C   UNL d   1      57.733   0.678  33.127  0.00  0.00     0.021 A 
ATOM     11  C   UNL d   1      57.104   0.678  31.857  0.00  0.00     0.094 A 
ATOM     12  C   UNL d   1      54.824   0.681  33.430  0.00  0.00     0.022 A 
ATOM     13  C   UNL d   1      54.313   0.682  34.078  0.00  0.00     0.102 A 
ATOM     14  C   UNL d   1      57.773   0.678  32.289  0.00  0.00     0.026 A 
ENDROOT
BRANCH  11  15
ATOM     15  O   UNL d   1      57.190   0.678  31.032  0.00  0.00    -0.328 OA
ATOM     16  C   UNL d   1      57.680   0.118  30.652  0.00  0.00     0.181 C 
ENDBRANCH  11  15
TORSDOF 1
ENDMDL
MODEL 3
REMARK VINA RESULT:      -3.7      1.503      3.729
REMARK  1 active torsions:
REMARK  status: ('A' for Active; 'I' for Inactive)
REMARK    1  A    between atoms: O_15  and  C_11 
ROOT
ATOM      1  C   UNL d   1      58.217  -1.004  30.132  0.00  0.00     0.139 A 
ATOM      2  N   UNL d   1      57.642  -1.476  30.526  0.00  0.00    -0.241 NA
ATOM      3  C   UNL d   1      58.223  -0.269  30.493  0.00  0.00     0.025 A 
ATOM      4  C   UNL d   1      57.667  -0.265  31.104  0.00  0.00     0.021 A 
ATOM      5  C   UNL d   1      57.316  -1.007  31.118  0.00  0.00     0.082 A 
ATOM      6  C   UNL d   1      58.730  -1.181  29.481  0.00  0.00     0.297 A 
ATOM      7  N   UNL d   1      59.244  -0.600  29.209  0.00  0.00    -0.205 NA
ATOM      8  C   UNL d   1      57.435   0.304  31.644  0.00  0.00     0.026 A 
ATOM      9  O   UNL d   1      58.712  -1.941  29.120  0.00  0.00    -0.264 OA
ATOM     10  C   UNL d   1      56.732  -1.184  31.669  0.00  0.00     0.021 A 
ATOM     11  C   UNL d   1      56.849   0.126  32.197  0.00  0.00     0.094 A 
ATOM     12  C   UNL d   1      58.761   0.331  30.204  0.00  0.00     0.022 A 
ATOM     13  C   UNL d   1      59.261   0.159  29.570  0.00  0.00     0.102 A 
ATOM     14  C   UNL d   1      56.503  -0.592  32.217  0.00  0.00     0.026 A 
ENDROOT
BRANCH  11  15
ATOM     15  O   UNL d   1      56.591   0.682  32.757  0.00  0.00    -0.328 OA
ATOM     16  C   UNL d   1      56.831   0.629  33.557  0.00  0.00     0.181 C 
ENDBRANCH  11  15
TORSDOF 1
ENDMDL
MODEL 4
REMARK VINA RESULT:      -2.9      9.667     10.183
REMARK  1 active torsions:
REMARK  status: ('A' for Active; 'I' for Inactive)
REMARK    1  A    between atoms: O_15  and  C_11 
ROOT
ATOM      1  C   UNL d   1      59.445  -9.728  32.164  0.00  0.00     0.139 A 
ATOM      2  N   UNL d   1      60.231  -9.688  32.463  0.00  0.00    -0.241 NA
ATOM      3  C   UNL d   1      58.935  -9.697  32.803  0.00  0.00     0.025 A 
ATOM      4  C   UNL d   1      59.378  -9.640  33.499  0.00  0.00     0.021 A 
ATOM      5  C   UNL d   1      60.170  -9.635  33.281  0.00  0.00     0.082 A 
ATOM      6  C   UNL d   1      59.155  -9.788  31.370  0.00  0.00     0.297 A 
ATOM      7  N   UNL d   1      58.343  -9.816  31.244  0.00  0.00    -0.205 NA
ATOM      8  C   UNL d   1      59.173  -9.592  34.289  0.00  0.00     0.026 A 
ATOM      9  O   UNL d   1      59.692  -9.818  30.722  0.00  0.00    -0.264 OA
ATOM     10  C   UNL d   1      60.761  -9.583  33.852  0.00  0.00     0.021 A 
ATOM     11  C   UNL d   1      59.766  -9.540  34.861  0.00  0.00     0.094 A 
ATOM     12  C   UNL d   1      58.091  -9.727  32.664  0.00  0.00     0.022 A 
ATOM     13  C   UNL d   1      57.808  -9.786  31.891  0.00  0.00     0.102 A 
ATOM     14  C   UNL d   1      60.537  -9.534  34.658  0.00  0.00     0.026 A 
ENDROOT
BRANCH  11  15
ATOM     15  O   UNL d   1      59.591  -9.490  35.671  0.00  0.00    -0.328 OA
ATOM     16  C   UNL d   1      59.642  -8.761  36.077  0.00  0.00     0.181 C 
ENDBRANCH  11  15
TORSDOF 1
ENDMDL
MODEL 5
REMARK VINA RESULT:      -2.6      9.598      9.896
REMARK  1 active torsions:
REMARK  status: ('A' for Active; 'I' for Inactive)
REMARK    1  A    between atoms: O_15  and  C_11 
ROOT
ATOM      1  C   UNL d   1      59.462  -9.691  33.412  0.00  0.00     0.139 A 
ATOM      2  N   UNL d   1      58.621  -9.733  33.379  0.00  0.00    -0.241 NA
ATOM      3  C   UNL d   1      59.740  -9.691  32.642  0.00  0.00     0.025 A 
ATOM      4  C   UNL d   1      59.097  -9.732  32.124  0.00  0.00     0.021 A 
ATOM      5  C   UNL d   1      58.417  -9.758  32.584  0.00  0.00     0.082 A 
ATOM      6  C   UNL d   1      59.991  -9.653  34.073  0.00  0.00     0.297 A 
ATOM      7  N   UNL d   1      60.800  -9.615  33.933  0.00  0.00    -0.205 NA
ATOM      8  C   UNL d   1      59.038  -9.749  31.309  0.00  0.00     0.026 A 
ATOM      9  O   UNL d   1      59.691  -9.654  34.859  0.00  0.00    -0.264 OA
ATOM     10  C   UNL d   1      57.675  -9.801  32.231  0.00  0.00     0.021 A 
ATOM     11  C   UNL d   1      58.292  -9.793  30.955  0.00  0.00     0.094 A 
ATOM     12  C   UNL d   1      60.583  -9.651  32.505  0.00  0.00     0.022 A 
ATOM     13  C   UNL d   1      61.100  -9.614  33.147  0.00  0.00     0.102 A 
ATOM     14  C   UNL d   1      57.628  -9.818  31.394  0.00  0.00     0.026 A 
ENDROOT
BRANCH  11  15
ATOM     15  O   UNL d   1      58.199  -9.812  30.130  0.00  0.00    -0.328 OA
ATOM     16  C   UNL d   1      57.459  -9.647  29.778  0.00  0.00     0.181 C 
ENDBRANCH  11  15
TORSDOF 1
ENDMDL
MODEL 6
REMARK VINA RESULT:      -2.6      9.481      9.631
REMARK  1 active torsions:
REMARK  status: ('A' for Active; 'I' for Inactive)
REMARK    1  A    between atoms: O_15  and  C_11 
ROOT
ATOM      1  C   UNL d   1      59.653  -8.679  35.128  0.00  0.00     0.139 A 
ATOM      2  N   UNL d   1      59.054  -9.031  34.652  0.00  0.00    -0.241 NA
ATOM      3  C   UNL d   1      60.354  -8.711  34.706  0.00  0.00     0.025 A 
ATOM      4  C   UNL d   1      60.213  -9.073  33.977  0.00  0.00     0.021 A 
ATOM      5  C   UNL d   1      59.415  -9.265  33.952  0.00  0.00     0.082 A 
ATOM      6  C   UNL d   1      59.618  -8.337  35.903  0.00  0.00     0.297 A 
ATOM      7  N   UNL d   1      60.305  -8.031  36.234  0.00  0.00    -0.205 NA
ATOM      8  C   UNL d   1      60.694  -9.251  33.340  0.00  0.00     0.026 A 
ATOM      9  O   UNL d   1      58.890  -8.312  36.324  0.00  0.00    -0.264 OA
ATOM     10  C   UNL d   1      59.094  -9.637  33.292  0.00  0.00     0.021 A 
ATOM     11  C   UNL d   1      60.372  -9.624  32.677  0.00  0.00     0.094 A 
ATOM     12  C   UNL d   1      61.065  -8.390  35.058  0.00  0.00     0.022 A 
ATOM     13  C   UNL d   1      61.032  -8.057  35.812  0.00  0.00     0.102 A 
ATOM     14  C   UNL d   1      59.599  -9.814  32.646  0.00  0.00     0.026 A 
ENDROOT
BRANCH  11  15
ATOM     15  O   UNL d   1      60.834  -9.818  32.016  0.00  0.00    -0.328 OA
ATOM     16  C   UNL d   1      60.509  -9.804  31.246  0.00  0.00     0.181 C 
ENDBRANCH  11  15
TORSDOF 1
ENDMDL
MODEL 7
REMARK VINA RESULT:      -2.4      9.657     10.010
REMARK  1 active torsions:
REMARK  status: ('A' for Active; 'I' for Inactive)
REMARK    1  A    between atoms: O_15  and  C_11 
ROOT
ATOM      1  C   UNL d   1      57.583  -9.816  30.377  0.00  0.00     0.139 A 
ATOM      2  N   UNL d   1      57.210  -9.816  31.132  0.00  0.00    -0.241 NA
ATOM      3  C   UNL d   1      58.392  -9.817  30.500  0.00  0.00     0.025 A 
ATOM      4  C   UNL d   1      58.540  -9.817  31.313  0.00  0.00     0.021 A 
ATOM      5  C   UNL d   1      57.812  -9.817  31.692  0.00  0.00     0.082 A 
ATOM      6  C   UNL d   1      57.254  -9.816  29.595  0.00  0.00     0.297 A 
ATOM      7  N   UNL d   1      57.764  -9.816  28.950  0.00  0.00    -0.205 NA
ATOM      8  C   UNL d   1      59.228  -9.817  31.755  0.00  0.00     0.026 A 
ATOM      9  O   UNL d   1      56.420  -9.816  29.484  0.00  0.00    -0.264 OA
ATOM     10  C   UNL d   1      57.767  -9.817  32.514  0.00  0.00     0.021 A 
ATOM     11  C   UNL d   1      59.184  -9.817  32.579  0.00  0.00     0.094 A 
ATOM     12  C   UNL d   1      58.915  -9.817  29.823  0.00  0.00     0.022 A 
ATOM     13  C   UNL d   1      58.597  -9.817  29.061  0.00  0.00     0.102 A 
ATOM     14  C   UNL d   1      58.481  -9.817  32.955  0.00  0.00     0.026 A 
ENDROOT
BRANCH  11  15
ATOM     15  O   UNL d   1      59.863  -9.818  33.055  0.00  0.00    -0.328 OA
ATOM     16  C   UNL d   1      59.940  -9.285  33.695  0.00  0.00     0.181 C 
ENDBRANCH  11  15
TORSDOF 1
ENDMDL
