MODEL 1
REMARK VINA RESULT:       5.6      0.000      0.000
REMARK  5 active torsions:
REMARK  status: ('A' for Active; 'I' for Inactive)
REMARK    1  A    between atoms: N_2  and  S_1 
REMARK    2  A    between atoms: C_9  and  S_1 
REMARK    3  A    between atoms: C_4  and  N_11 
REMARK    4  A    between atoms: C_8  and  C_16 
REMARK       I    between atoms: N_10  and  C_8 
REMARK    5  A    between atoms: N_11  and  N_10 
ROOT
ATOM      1  C   UNL d   1     -42.009-121.922 -50.124  0.00  0.00     0.104 A 
ATOM      2  C   UNL d   1     -41.695-120.985 -51.440  0.00  0.00     0.059 A 
ATOM      3  C   UNL d   1     -41.276-121.547 -50.196  0.00  0.00     0.013 A 
ATOM      4  C   UNL d   1     -42.582-121.827 -50.711  0.00  0.00     0.013 A 
ATOM      5  C   UNL d   1     -42.420-121.356 -51.369  0.00  0.00     0.006 A 
ATOM      6  C   UNL d   1     -41.123-121.081 -50.854  0.00  0.00     0.006 A 
ENDROOT
BRANCH   2   7
ATOM      7  C   UNL d   1     -41.541-120.518 -52.098  0.00  0.00     0.297 C 
ATOM      8  N   UNL d   1     -41.532-120.930 -52.806  0.00  0.00    -0.104 NA
ATOM      9  O   UNL d   1     -41.427-119.716 -51.902  0.00  0.00    -0.264 OA
BRANCH   8  10
ATOM     10  N   UNL d   1     -41.669-121.738 -52.806  0.00  0.00    -0.118 NA
BRANCH  10  11
ATOM     11  C   UNL d   1     -41.765-122.147 -53.523  0.00  0.00     0.215 A 
ATOM     12  N   UNL d   1     -42.039-121.829 -54.228  0.00  0.00    -0.219 NA
ATOM     13  C   UNL d   1     -42.050-122.417 -54.799  0.00  0.00     0.090 A 
ATOM     14  C   UNL d   1     -42.268-122.422 -55.590  0.00  0.00     0.018 A 
ATOM     15  C   UNL d   1     -41.776-123.114 -54.438  0.00  0.00     0.050 A 
ATOM     16  C   UNL d   1     -42.214-123.120 -56.028  0.00  0.00     0.002 A 
ATOM     17  C   UNL d   1     -42.541-121.725 -55.947  0.00  0.00     0.002 C 
ATOM     18  C   UNL d   1     -41.943-123.808 -55.669  0.00  0.00     0.001 A 
ATOM     19  C   UNL d   1     -41.719-123.817 -54.868  0.00  0.00     0.008 A 
ATOM     20  S   UNL d   1     -41.602-122.942 -53.654  0.00  0.00    -0.045 SA
ENDBRANCH  10  11
ENDBRANCH   8  10
ENDBRANCH   2   7
BRANCH   1  21
ATOM     21  S   UNL d   1     -42.178-122.395 -49.469  0.00  0.00     0.271 S 
ATOM     22  O   UNL d   1     -42.102-121.733 -48.983  0.00  0.00    -0.200 OA
ATOM     23  O   UNL d   1     -42.254-123.058 -49.951  0.00  0.00    -0.200 OA
BRANCH  21  24
ATOM     24  N   UNL d   1     -42.347-122.860 -48.808  0.00  0.00    -0.229 N 
ATOM     25  C   UNL d   1     -41.737-123.070 -48.306  0.00  0.00     0.092 A 
ATOM     26  C   UNL d   1     -41.905-123.534 -47.645  0.00  0.00     0.018 A 
ATOM     27  C   UNL d   1     -41.304-123.766 -47.111  0.00  0.00     0.002 C 
ATOM     28  C   UNL d   1     -42.681-123.781 -47.499  0.00  0.00     0.003 A 
ATOM     29  C   UNL d   1     -43.287-123.562 -48.014  0.00  0.00     0.018 A 
ATOM     30  C   UNL d   1     -43.119-123.098 -48.675  0.00  0.00     0.092 A 
ATOM     31  C   UNL d   1     -44.067-123.817 -47.856  0.00  0.00     0.002 C 
ENDBRANCH  21  24
ENDBRANCH   1  21
TORSDOF 5
ENDMDL
