MODEL 1
REMARK VINA RESULT:      -8.9      0.000      0.000
REMARK  5 active torsions:
REMARK  status: ('A' for Active; 'I' for Inactive)
REMARK    1  A    between atoms: C_11  and  N_1 
REMARK    2  A    between atoms: S_8  and  C_4 
REMARK    3  A    between atoms: C_6  and  S_8 
REMARK    4  A    between atoms: C_9  and  C_7 
REMARK    5  A    between atoms: N_10  and  C_13 
ROOT
ATOM      1  N   UNL d   1      51.064  34.054  52.702  0.00  0.00    -0.241 N 
ATOM      2  C   UNL d   1      51.757  34.303  52.331  0.00  0.00     0.268 A 
ATOM      3  C   UNL d   1      51.248  33.446  53.207  0.00  0.00     0.273 A 
ATOM      4  C   UNL d   1      52.069  33.310  53.154  0.00  0.00     0.092 A 
ATOM      5  C   UNL d   1      52.369  33.845  52.611  0.00  0.00     0.072 A 
ATOM      6  O   UNL d   1      51.849  34.905  51.773  0.00  0.00    -0.267 OA
ATOM      7  O   UNL d   1      50.725  33.037  53.685  0.00  0.00    -0.266 OA
ENDROOT
BRANCH   1   8
ATOM      8  C   UNL d   1      50.323  34.392  52.557  0.00  0.00     0.070 A 
ATOM      9  C   UNL d   1      49.985  34.877  53.117  0.00  0.00     0.019 A 
ATOM     10  C   UNL d   1      49.229  35.222  52.970  0.00  0.00     0.019 A 
ATOM     11  C   UNL d   1      48.845  35.066  52.268  0.00  0.00     0.064 A 
ATOM     12  C   UNL d   1      49.196  34.564  51.691  0.00  0.00     0.019 A 
ATOM     13  C   UNL d   1      49.938  34.234  51.852  0.00  0.00     0.019 A 
BRANCH  11  14
ATOM     14  N   UNL d   1      48.113  35.405  52.135  0.00  0.00    -0.300 N 
ATOM     15  C   UNL d   1      47.670  35.207  51.448  0.00  0.00     0.107 A 
ATOM     16  C   UNL d   1      46.930  35.559  51.327  0.00  0.00     0.142 A 
ATOM     17  O   UNL d   1      46.614  36.098  51.862  0.00  0.00    -0.300 OA
ATOM     18  C   UNL d   1      47.056  36.295  52.550  0.00  0.00     0.142 A 
ATOM     19  C   UNL d   1      47.802  35.941  52.673  0.00  0.00     0.107 A 
ENDBRANCH  11  14
ENDBRANCH   1   8
BRANCH   4  20
ATOM     20  S   UNL d   1      52.516  32.748  53.562  0.00  0.00    -0.063 SA
BRANCH  20  21
ATOM     21  C   UNL d   1      53.132  32.975  54.064  0.00  0.00     0.117 A 
ATOM     22  C   UNL d   1      53.748  32.448  54.235  0.00  0.00     0.088 A 
ATOM     23  C   UNL d   1      54.352  32.679  54.732  0.00  0.00     0.010 A 
ATOM     24  C   UNL d   1      54.357  33.421  55.061  0.00  0.00     0.021 A 
ATOM     25  C   UNL d   1      53.757  33.951  54.901  0.00  0.00     0.100 A 
ATOM     26  N   UNL d   1      53.137  33.719  54.394  0.00  0.00    -0.237 NA
BRANCH  22  27
ATOM     27  C   UNL d   1      53.744  31.689  53.900  0.00  0.00     0.213 C 
ATOM     28  O   UNL d   1      53.356  31.077  54.292  0.00  0.00    -0.644 OA
ATOM     29  O   UNL d   1      54.129  31.555  53.180  0.00  0.00    -0.644 OA
ENDBRANCH  22  27
ENDBRANCH  20  21
ENDBRANCH   4  20
TORSDOF 5
ENDMDL
MODEL 2
REMARK VINA RESULT:      -6.7      1.432      5.958
REMARK  5 active torsions:
REMARK  status: ('A' for Active; 'I' for Inactive)
REMARK    1  A    between atoms: C_11  and  N_1 
REMARK    2  A    between atoms: S_8  and  C_4 
REMARK    3  A    between atoms: C_6  and  S_8 
REMARK    4  A    between atoms: C_9  and  C_7 
REMARK    5  A    between atoms: N_10  and  C_13 
ROOT
ATOM      1  N   UNL d   1      49.994  34.511  52.542  0.00  0.00    -0.241 N 
ATOM      2  C   UNL d   1      49.672  34.468  51.785  0.00  0.00     0.268 A 
ATOM      3  C   UNL d   1      49.495  34.950  53.009  0.00  0.00     0.273 A 
ATOM      4  C   UNL d   1      48.849  35.187  52.537  0.00  0.00     0.092 A 
ATOM      5  C   UNL d   1      48.971  34.883  51.786  0.00  0.00     0.072 A 
ATOM      6  O   UNL d   1      49.979  34.082  51.122  0.00  0.00    -0.267 OA
ATOM      7  O   UNL d   1      49.602  35.131  53.799  0.00  0.00    -0.266 OA
ENDROOT
BRANCH   1   8
ATOM      8  C   UNL d   1      50.709  34.154  52.755  0.00  0.00     0.070 A 
ATOM      9  C   UNL d   1      50.702  33.438  53.145  0.00  0.00     0.019 A 
ATOM     10  C   UNL d   1      51.431  33.074  53.362  0.00  0.00     0.019 A 
ATOM     11  C   UNL d   1      52.135  33.441  53.180  0.00  0.00     0.064 A 
ATOM     12  C   UNL d   1      52.140  34.180  52.778  0.00  0.00     0.019 A 
ATOM     13  C   UNL d   1      51.415  34.524  52.572  0.00  0.00     0.019 A 
BRANCH  11  14
ATOM     14  N   UNL d   1      52.836  33.079  53.395  0.00  0.00    -0.300 N 
ATOM     15  C   UNL d   1      53.398  33.487  53.870  0.00  0.00     0.107 A 
ATOM     16  C   UNL d   1      54.104  33.106  54.079  0.00  0.00     0.142 A 
ATOM     17  O   UNL d   1      54.272  32.339  53.835  0.00  0.00    -0.300 OA
ATOM     18  C   UNL d   1      53.710  31.931  53.361  0.00  0.00     0.142 A 
ATOM     19  C   UNL d   1      52.998  32.313  53.148  0.00  0.00     0.107 A 
ENDBRANCH  11  14
ENDBRANCH   1   8
BRANCH   4  20
ATOM     20  S   UNL d   1      48.198  35.642  52.763  0.00  0.00    -0.063 SA
BRANCH  20  21
ATOM     21  C   UNL d   1      47.511  35.663  52.304  0.00  0.00     0.117 A 
ATOM     22  C   UNL d   1      46.782  35.853  52.649  0.00  0.00     0.088 A 
ATOM     23  C   UNL d   1      46.109  35.871  52.188  0.00  0.00     0.010 A 
ATOM     24  C   UNL d   1      46.145  35.704  51.395  0.00  0.00     0.021 A 
ATOM     25  C   UNL d   1      46.856  35.515  51.041  0.00  0.00     0.100 A 
ATOM     26  N   UNL d   1      47.547  35.496  51.508  0.00  0.00    -0.237 NA
BRANCH  22  27
ATOM     27  C   UNL d   1      46.744  36.023  53.459  0.00  0.00     0.213 C 
ATOM     28  O   UNL d   1      46.346  35.504  53.962  0.00  0.00    -0.644 OA
ATOM     29  O   UNL d   1      47.102  36.708  53.755  0.00  0.00    -0.644 OA
ENDBRANCH  22  27
ENDBRANCH  20  21
ENDBRANCH   4  20
TORSDOF 5
ENDMDL
