MODEL 1
REMARK VINA RESULT:      23.2      0.000      0.000
REMARK  7 active torsions:
REMARK  status: ('A' for Active; 'I' for Inactive)
REMARK       I    between atoms: C_2  and  N_1 
REMARK    1  A    between atoms: C_7  and  C_2 
REMARK    2  A    between atoms: C_10  and  C_3 
REMARK       I    between atoms: C_4  and  N_6 
REMARK    3  A    between atoms: C_5  and  C_4 
REMARK       I    between atoms: N_13  and  C_5 
REMARK    4  A    between atoms: N_6  and  C_10 
REMARK    5  A    between atoms: C_23  and  N_13 
REMARK    6  A    between atoms: O_22  and  C_24 
REMARK    7  A    between atoms: C_24  and  C_23 
ROOT
ATOM      1  N   UNL d   1      45.305 -15.849  44.458  0.00  0.00    -0.250 N 
ATOM      2  C   UNL d   1      45.911 -15.350  44.192  0.00  0.00     0.266 C 
ATOM      3  C   UNL d   1      45.348 -16.667  44.544  0.00  0.00     0.190 A 
ATOM      4  O   UNL d   1      46.642 -15.661  43.983  0.00  0.00    -0.267 OA
ATOM      5  O   UNL d   1      44.613 -16.940  44.826  0.00  0.00    -0.285 OA
ATOM      6  C   UNL d   1      44.547 -15.619  44.685  0.00  0.00     0.112 A 
ATOM      7  C   UNL d   1      44.117 -16.289  44.914  0.00  0.00     0.144 A 
ENDROOT
BRANCH   3   8
ATOM      8  C   UNL d   1      46.006 -17.132  44.379  0.00  0.00     0.146 C 
BRANCH   8   9
ATOM      9  N   UNL d   1      46.171 -17.793  44.843  0.00  0.00    -0.199 NA
ATOM     10  C   UNL d   1      46.427 -18.486  44.490  0.00  0.00     0.337 C 
ATOM     11  O   UNL d   1      46.592 -19.146  44.953  0.00  0.00    -0.260 OA
BRANCH  10  12
ATOM     12  C   UNL d   1      46.521 -18.531  43.669  0.00  0.00     0.337 C 
ATOM     13  O   UNL d   1      46.582 -17.837  43.228  0.00  0.00    -0.260 OA
ATOM     14  N   UNL d   1      46.554 -19.260  43.287  0.00  0.00    -0.200 NA
BRANCH  14  15
ATOM     15  C   UNL d   1      46.646 -19.311  42.479  0.00  0.00     0.129 C 
BRANCH  15  16
ATOM     16  C   UNL d   1      46.033 -19.577  41.991  0.00  0.00     0.137 C 
BRANCH  16  17
ATOM     17  O   UNL d   1      46.178 -19.779  41.206  0.00  0.00    -0.325 OA
ATOM     18  C   UNL d   1      46.231 -19.194  40.617  0.00  0.00     0.182 C 
ENDBRANCH  16  17
ENDBRANCH  15  16
ENDBRANCH  14  15
ENDBRANCH  10  12
ENDBRANCH   8   9
ENDBRANCH   3   8
BRANCH   2  19
ATOM     19  C   UNL d   1      45.778 -14.524  44.135  0.00  0.00     0.057 A 
ATOM     20  C   UNL d   1      46.037 -14.026  44.729  0.00  0.00     0.006 A 
ATOM     21  C   UNL d   1      45.905 -13.212  44.672  0.00  0.00     0.012 A 
ATOM     22  C   UNL d   1      45.513 -12.905  44.018  0.00  0.00     0.058 A 
ATOM     23  C   UNL d   1      45.252 -13.411  43.417  0.00  0.00     0.012 A 
ATOM     24 CL   UNL d   1      45.381 -12.083  43.962  0.00  0.00    -0.082 Cl
ATOM     25  C   UNL d   1      45.385 -14.213  43.479  0.00  0.00     0.006 A 
ENDBRANCH   2  19
TORSDOF 7
ENDMDL
MODEL 2
REMARK VINA RESULT:      24.2      2.345      4.835
REMARK  7 active torsions:
REMARK  status: ('A' for Active; 'I' for Inactive)
REMARK       I    between atoms: C_2  and  N_1 
REMARK    1  A    between atoms: C_7  and  C_2 
REMARK    2  A    between atoms: C_10  and  C_3 
REMARK       I    between atoms: C_4  and  N_6 
REMARK    3  A    between atoms: C_5  and  C_4 
REMARK       I    between atoms: N_13  and  C_5 
REMARK    4  A    between atoms: N_6  and  C_10 
REMARK    5  A    between atoms: C_23  and  N_13 
REMARK    6  A    between atoms: O_22  and  C_24 
REMARK    7  A    between atoms: C_24  and  C_23 
ROOT
ATOM      1  N   UNL d   1      45.302 -15.917  44.464  0.00  0.00    -0.250 N 
ATOM      2  C   UNL d   1      45.991 -16.274  44.173  0.00  0.00     0.266 C 
ATOM      3  C   UNL d   1      45.181 -15.111  44.582  0.00  0.00     0.190 A 
ATOM      4  O   UNL d   1      46.641 -15.815  43.970  0.00  0.00    -0.267 OA
ATOM      5  O   UNL d   1      44.412 -15.002  44.882  0.00  0.00    -0.285 OA
ATOM      6  C   UNL d   1      44.610 -16.304  44.690  0.00  0.00     0.112 A 
ATOM      7  C   UNL d   1      44.057 -15.742  44.949  0.00  0.00     0.144 A 
ENDROOT
BRANCH   3   8
ATOM      8  C   UNL d   1      45.729 -14.517  44.429  0.00  0.00     0.146 C 
BRANCH   8   9
ATOM      9  N   UNL d   1      45.725 -13.826  44.878  0.00  0.00    -0.199 NA
ATOM     10  C   UNL d   1      45.772 -13.098  44.505  0.00  0.00     0.337 C 
ATOM     11  O   UNL d   1      45.768 -12.407  44.953  0.00  0.00    -0.260 OA
BRANCH  10  12
ATOM     12  C   UNL d   1      45.824 -13.048  43.681  0.00  0.00     0.337 C 
ATOM     13  O   UNL d   1      46.384 -13.501  43.281  0.00  0.00    -0.260 OA
ATOM     14  N   UNL d   1      45.322 -12.552  43.256  0.00  0.00    -0.200 NA
BRANCH  14  15
ATOM     15  C   UNL d   1      45.368 -12.499  42.444  0.00  0.00     0.129 C 
BRANCH  15  16
ATOM     16  C   UNL d   1      44.697 -12.348  41.983  0.00  0.00     0.137 C 
BRANCH  16  17
ATOM     17  O   UNL d   1      44.657 -12.602  41.201  0.00  0.00    -0.325 OA
ATOM     18  C   UNL d   1      44.429 -12.081  40.594  0.00  0.00     0.182 C 
ENDBRANCH  16  17
ENDBRANCH  15  16
ENDBRANCH  14  15
ENDBRANCH  10  12
ENDBRANCH   8   9
ENDBRANCH   3   8
BRANCH   2  19
ATOM     19  C   UNL d   1      46.025 -17.107  44.086  0.00  0.00     0.057 A 
ATOM     20  C   UNL d   1      46.112 -17.585  44.744  0.00  0.00     0.006 A 
ATOM     21  C   UNL d   1      46.145 -18.406  44.656  0.00  0.00     0.012 A 
ATOM     22  C   UNL d   1      46.092 -18.741  43.907  0.00  0.00     0.058 A 
ATOM     23  C   UNL d   1      46.005 -18.255  43.242  0.00  0.00     0.012 A 
ATOM     24 CL   UNL d   1      46.126 -19.570  43.821  0.00  0.00    -0.082 Cl
ATOM     25  C   UNL d   1      45.972 -17.446  43.335  0.00  0.00     0.006 A 
ENDBRANCH   2  19
TORSDOF 7
ENDMDL
