MODEL 1
REMARK VINA RESULT:      77.5      0.000      0.000
REMARK  8 active torsions:
REMARK  status: ('A' for Active; 'I' for Inactive)
REMARK    1  A    between atoms: N_10  and  C_1 
REMARK    2  A    between atoms: C_20  and  N_2 
REMARK    3  A    between atoms: C_4  and  S_13 
REMARK       I    between atoms: C_14  and  N_10 
REMARK       I    between atoms: C_12  and  N_18 
REMARK    4  A    between atoms: C_16  and  C_12 
REMARK    5  A    between atoms: S_13  and  C_19 
REMARK    6  A    between atoms: C_19  and  C_14 
REMARK    7  A    between atoms: N_18  and  C_22 
REMARK    8  A    between atoms: C_22  and  C_20 
ROOT
ATOM      1  N   UNL d   1     -53.219  23.472  35.568  0.00  0.00    -0.302 N 
ATOM      2  C   UNL d   1     -52.363  23.522  34.544  0.00  0.00     0.049 A 
ATOM      3  C   UNL d   1     -52.414  23.561  35.360  0.00  0.00     0.087 A 
ATOM      4  C   UNL d   1     -53.125  23.409  34.237  0.00  0.00     0.024 A 
ATOM      5  C   UNL d   1     -53.651  23.379  34.871  0.00  0.00     0.065 A 
ATOM      6  C   UNL d   1     -53.396  23.332  33.468  0.00  0.00     0.002 A 
ATOM      7  C   UNL d   1     -54.448  23.271  34.729  0.00  0.00     0.018 A 
ATOM      8  C   UNL d   1     -54.200  23.223  33.328  0.00  0.00     0.000 A 
ATOM      9  C   UNL d   1     -54.730  23.192  33.957  0.00  0.00     0.002 A 
ENDROOT
BRANCH   1  10
ATOM     10  C   UNL d   1     -53.530  23.476  36.329  0.00  0.00     0.101 C 
BRANCH  10  11
ATOM     11  C   UNL d   1     -53.608  24.185  36.738  0.00  0.00     0.121 C 
BRANCH  11  12
ATOM     12  N   UNL d   1     -52.931  24.574  37.019  0.00  0.00    -0.205 NA
ATOM     13  C   UNL d   1     -53.009  25.203  37.552  0.00  0.00     0.279 C 
ATOM     14  O   UNL d   1     -53.763  25.441  37.801  0.00  0.00    -0.265 OA
BRANCH  13  15
ATOM     15  C   UNL d   1     -52.339  25.586  37.829  0.00  0.00     0.058 A 
ATOM     16  C   UNL d   1     -52.064  26.250  37.460  0.00  0.00     0.005 A 
ATOM     17  C   UNL d   1     -51.393  26.646  37.726  0.00  0.00     0.000 A 
ATOM     18  C   UNL d   1     -50.987  26.361  38.385  0.00  0.00     0.000 A 
ATOM     19  C   UNL d   1     -51.261  25.678  38.771  0.00  0.00     0.000 A 
ATOM     20  C   UNL d   1     -51.937  25.292  38.492  0.00  0.00     0.005 A 
ENDBRANCH  13  15
ENDBRANCH  11  12
ENDBRANCH  10  11
ENDBRANCH   1  10
BRANCH   2  21
ATOM     21  S   UNL d   1     -51.671  23.583  34.098  0.00  0.00    -0.080 SA
BRANCH  21  22
ATOM     22  C   UNL d   1     -51.638  24.116  33.471  0.00  0.00     0.098 C 
BRANCH  22  23
ATOM     23  C   UNL d   1     -51.206  24.821  33.546  0.00  0.00     0.288 C 
ATOM     24  N   UNL d   1     -51.566  25.537  33.377  0.00  0.00    -0.181 NA
ATOM     25  O   UNL d   1     -50.422  24.795  33.790  0.00  0.00    -0.265 OA
BRANCH  24  26
ATOM     26  C   UNL d   1     -51.142  26.247  33.449  0.00  0.00     0.219 A 
ATOM     27  S   UNL d   1     -51.436  27.003  33.345  0.00  0.00    -0.026 SA
ATOM     28  C   UNL d   1     -50.818  27.535  33.472  0.00  0.00     0.135 A 
ATOM     29  C   UNL d   1     -50.870  28.358  33.424  0.00  0.00     0.030 C 
ATOM     30  N   UNL d   1     -50.143  27.119  33.654  0.00  0.00    -0.139 NA
ATOM     31  N   UNL d   1     -50.336  26.317  33.642  0.00  0.00    -0.121 NA
ENDBRANCH  24  26
ENDBRANCH  22  23
ENDBRANCH  21  22
ENDBRANCH   2  21
TORSDOF 8
ENDMDL
MODEL 2
REMARK VINA RESULT:      78.6      3.277      4.898
REMARK  8 active torsions:
REMARK  status: ('A' for Active; 'I' for Inactive)
REMARK    1  A    between atoms: N_10  and  C_1 
REMARK    2  A    between atoms: C_20  and  N_2 
REMARK    3  A    between atoms: C_4  and  S_13 
REMARK       I    between atoms: C_14  and  N_10 
REMARK       I    between atoms: C_12  and  N_18 
REMARK    4  A    between atoms: C_16  and  C_12 
REMARK    5  A    between atoms: S_13  and  C_19 
REMARK    6  A    between atoms: C_19  and  C_14 
REMARK    7  A    between atoms: N_18  and  C_22 
REMARK    8  A    between atoms: C_22  and  C_20 
ROOT
ATOM      1  N   UNL d   1     -50.145  27.394  35.617  0.00  0.00    -0.302 N 
ATOM      2  C   UNL d   1     -49.008  27.921  35.154  0.00  0.00     0.049 A 
ATOM      3  C   UNL d   1     -49.497  27.885  35.809  0.00  0.00     0.087 A 
ATOM      4  C   UNL d   1     -49.341  27.457  34.551  0.00  0.00     0.024 A 
ATOM      5  C   UNL d   1     -50.042  27.134  34.841  0.00  0.00     0.065 A 
ATOM      6  C   UNL d   1     -49.092  27.296  33.788  0.00  0.00     0.002 A 
ATOM      7  C   UNL d   1     -50.490  26.648  34.359  0.00  0.00     0.018 A 
ATOM      8  C   UNL d   1     -49.546  26.806  33.306  0.00  0.00     0.000 A 
ATOM      9  C   UNL d   1     -50.247  26.480  33.589  0.00  0.00     0.002 A 
ENDROOT
BRANCH   1  10
ATOM     10  C   UNL d   1     -50.775  27.201  36.108  0.00  0.00     0.101 C 
BRANCH  10  11
ATOM     11  C   UNL d   1     -50.632  26.904  36.862  0.00  0.00     0.121 C 
BRANCH  11  12
ATOM     12  N   UNL d   1     -51.150  26.344  37.189  0.00  0.00    -0.205 NA
ATOM     13  C   UNL d   1     -51.359  26.394  37.988  0.00  0.00     0.279 C 
ATOM     14  O   UNL d   1     -51.051  27.002  38.459  0.00  0.00    -0.265 OA
BRANCH  13  15
ATOM     15  C   UNL d   1     -51.871  25.839  38.309  0.00  0.00     0.058 A 
ATOM     16  C   UNL d   1     -52.660  25.860  38.135  0.00  0.00     0.005 A 
ATOM     17  C   UNL d   1     -53.187  25.311  38.449  0.00  0.00     0.000 A 
ATOM     18  C   UNL d   1     -52.906  24.721  38.955  0.00  0.00     0.000 A 
ATOM     19  C   UNL d   1     -52.097  24.692  39.139  0.00  0.00     0.000 A 
ATOM     20  C   UNL d   1     -51.581  25.250  38.816  0.00  0.00     0.005 A 
ENDBRANCH  13  15
ENDBRANCH  11  12
ENDBRANCH  10  11
ENDBRANCH   1  10
BRANCH   2  21
ATOM     21  S   UNL d   1     -48.302  28.344  35.097  0.00  0.00    -0.080 SA
BRANCH  21  22
ATOM     22  C   UNL d   1     -48.122  28.910  35.666  0.00  0.00     0.098 C 
BRANCH  22  23
ATOM     23  C   UNL d   1     -47.745  29.618  35.446  0.00  0.00     0.288 C 
ATOM     24  N   UNL d   1     -48.178  30.312  35.408  0.00  0.00    -0.181 NA
ATOM     25  O   UNL d   1     -46.943  29.615  35.269  0.00  0.00    -0.265 OA
BRANCH  24  26
ATOM     26  C   UNL d   1     -47.811  31.023  35.188  0.00  0.00     0.219 A 
ATOM     27  S   UNL d   1     -47.980  31.476  34.528  0.00  0.00    -0.026 SA
ATOM     28  C   UNL d   1     -47.479  32.131  34.535  0.00  0.00     0.135 A 
ATOM     29  C   UNL d   1     -47.462  32.734  33.970  0.00  0.00     0.030 C 
ATOM     30  N   UNL d   1     -46.999  32.092  35.192  0.00  0.00    -0.139 NA
ATOM     31  N   UNL d   1     -47.199  31.406  35.603  0.00  0.00    -0.121 NA
ENDBRANCH  24  26
ENDBRANCH  22  23
ENDBRANCH  21  22
ENDBRANCH   2  21
TORSDOF 8
ENDMDL
MODEL 3
REMARK VINA RESULT:      79.4      3.211      6.214
REMARK  8 active torsions:
REMARK  status: ('A' for Active; 'I' for Inactive)
REMARK    1  A    between atoms: N_10  and  C_1 
REMARK    2  A    between atoms: C_20  and  N_2 
REMARK    3  A    between atoms: C_4  and  S_13 
REMARK       I    between atoms: C_14  and  N_10 
REMARK       I    between atoms: C_12  and  N_18 
REMARK    4  A    between atoms: C_16  and  C_12 
REMARK    5  A    between atoms: S_13  and  C_19 
REMARK    6  A    between atoms: C_19  and  C_14 
REMARK    7  A    between atoms: N_18  and  C_22 
REMARK    8  A    between atoms: C_22  and  C_20 
ROOT
ATOM      1  N   UNL d   1     -49.230  27.713  35.160  0.00  0.00    -0.302 N 
ATOM      2  C   UNL d   1     -50.239  27.074  35.759  0.00  0.00     0.049 A 
ATOM      3  C   UNL d   1     -49.586  27.548  35.898  0.00  0.00     0.087 A 
ATOM      4  C   UNL d   1     -50.298  26.940  34.942  0.00  0.00     0.024 A 
ATOM      5  C   UNL d   1     -49.674  27.335  34.576  0.00  0.00     0.065 A 
ATOM      6  C   UNL d   1     -50.837  26.511  34.499  0.00  0.00     0.002 A 
ATOM      7  C   UNL d   1     -49.595  27.297  33.763  0.00  0.00     0.018 A 
ATOM      8  C   UNL d   1     -50.754  26.475  33.680  0.00  0.00     0.000 A 
ATOM      9  C   UNL d   1     -50.133  26.868  33.309  0.00  0.00     0.002 A 
ENDROOT
BRANCH   1  10
ATOM     10  C   UNL d   1     -48.558  28.168  35.032  0.00  0.00     0.101 C 
BRANCH  10  11
ATOM     11  C   UNL d   1     -48.413  28.828  35.502  0.00  0.00     0.121 C 
BRANCH  11  12
ATOM     12  N   UNL d   1     -48.265  29.562  35.146  0.00  0.00    -0.205 NA
ATOM     13  C   UNL d   1     -47.809  30.128  35.541  0.00  0.00     0.279 C 
ATOM     14  O   UNL d   1     -47.501  29.958  36.293  0.00  0.00    -0.265 OA
BRANCH  13  15
ATOM     15  C   UNL d   1     -47.663  30.853  35.187  0.00  0.00     0.058 A 
ATOM     16  C   UNL d   1     -48.231  31.212  34.739  0.00  0.00     0.005 A 
ATOM     17  C   UNL d   1     -48.101  31.940  34.376  0.00  0.00     0.000 A 
ATOM     18  C   UNL d   1     -47.373  32.316  34.472  0.00  0.00     0.000 A 
ATOM     19  C   UNL d   1     -46.783  31.956  34.931  0.00  0.00     0.000 A 
ATOM     20  C   UNL d   1     -46.929  31.225  35.288  0.00  0.00     0.005 A 
ENDBRANCH  13  15
ENDBRANCH  11  12
ENDBRANCH  10  11
ENDBRANCH   1  10
BRANCH   2  21
ATOM     21  S   UNL d   1     -50.755  26.779  36.331  0.00  0.00    -0.080 SA
BRANCH  21  22
ATOM     22  C   UNL d   1     -50.692  27.042  37.109  0.00  0.00     0.098 C 
BRANCH  22  23
ATOM     23  C   UNL d   1     -51.127  26.669  37.711  0.00  0.00     0.288 C 
ATOM     24  N   UNL d   1     -51.748  26.172  37.513  0.00  0.00    -0.181 NA
ATOM     25  O   UNL d   1     -50.931  26.801  38.497  0.00  0.00    -0.265 OA
BRANCH  24  26
ATOM     26  C   UNL d   1     -52.187  25.795  38.107  0.00  0.00     0.219 A 
ATOM     27  S   UNL d   1     -52.076  25.035  38.389  0.00  0.00    -0.026 SA
ATOM     28  C   UNL d   1     -52.639  24.897  38.976  0.00  0.00     0.135 A 
ATOM     29  C   UNL d   1     -52.726  24.198  39.408  0.00  0.00     0.030 C 
ATOM     30  N   UNL d   1     -53.100  25.562  39.063  0.00  0.00    -0.139 NA
ATOM     31  N   UNL d   1     -52.826  26.125  38.527  0.00  0.00    -0.121 NA
ENDBRANCH  24  26
ENDBRANCH  22  23
ENDBRANCH  21  22
ENDBRANCH   2  21
TORSDOF 8
ENDMDL
