MODEL 1
REMARK VINA RESULT:      -4.8      0.000      0.000
REMARK  3 active torsions:
REMARK  status: ('A' for Active; 'I' for Inactive)
REMARK    1  A    between atoms: N_2  and  C_1 
REMARK    2  A    between atoms: C_4  and  C_8 
REMARK    3  A    between atoms: N_14  and  C_5 
ROOT
ATOM      1  C   UNL d   1     -41.972-122.344 -51.399  0.00  0.00     0.143 A 
ATOM      2  C   UNL d   1     -41.581-123.018 -51.134  0.00  0.00     0.086 A 
ATOM      3  C   UNL d   1     -41.958-122.144 -52.204  0.00  0.00     0.027 A 
ATOM      4  C   UNL d   1     -41.546-122.627 -52.743  0.00  0.00     0.021 A 
ATOM      5  C   UNL d   1     -41.174-123.495 -51.667  0.00  0.00     0.019 A 
ATOM      6  C   UNL d   1     -41.153-123.305 -52.472  0.00  0.00     0.003 A 
ENDROOT
BRANCH   4   7
ATOM      7  C   UNL d   1     -41.530-122.431 -53.542  0.00  0.00     0.103 A 
ATOM      8  N   UNL d   1     -41.466-121.640 -53.773  0.00  0.00    -0.145 NA
ATOM      9  N   UNL d   1     -41.450-121.446 -54.571  0.00  0.00    -0.106 NA
ATOM     10  C   UNL d   1     -41.497-122.038 -55.142  0.00  0.00     0.297 A 
ATOM     11  C   UNL d   1     -41.561-122.828 -54.911  0.00  0.00     0.066 A 
ATOM     12  O   UNL d   1     -41.481-121.842 -55.941  0.00  0.00    -0.264 OA
ATOM     13  C   UNL d   1     -41.578-123.030 -54.107  0.00  0.00     0.024 A 
ATOM     14  C   UNL d   1     -41.641-123.817 -53.879  0.00  0.00     0.002 C 
ENDBRANCH   4   7
BRANCH   1  15
ATOM     15  N   UNL d   1     -42.383-121.859 -50.869  0.00  0.00    -0.112 N 
ATOM     16  O   UNL d   1     -41.975-121.257 -50.470  0.00  0.00    -0.532 OA
ATOM     17  O   UNL d   1     -43.188-121.970 -50.736  0.00  0.00    -0.532 OA
ENDBRANCH   1  15
BRANCH   2  18
ATOM     18  N   UNL d   1     -41.598-123.213 -50.336  0.00  0.00    -0.300 N 
ATOM     19  C   UNL d   1     -42.090-123.817 -50.072  0.00  0.00     0.100 C 
ATOM     20  C   UNL d   1     -41.123-122.804 -49.801  0.00  0.00     0.100 C 
ENDBRANCH   2  18
TORSDOF 3
ENDMDL
MODEL 2
REMARK VINA RESULT:      -4.7      1.536      2.307
REMARK  3 active torsions:
REMARK  status: ('A' for Active; 'I' for Inactive)
REMARK    1  A    between atoms: N_2  and  C_1 
REMARK    2  A    between atoms: C_4  and  C_8 
REMARK    3  A    between atoms: N_14  and  C_5 
ROOT
ATOM      1  C   UNL d   1     -42.547-123.025 -49.677  0.00  0.00     0.143 A 
ATOM      2  C   UNL d   1     -41.998-123.410 -49.200  0.00  0.00     0.086 A 
ATOM      3  C   UNL d   1     -42.405-122.937 -50.489  0.00  0.00     0.027 A 
ATOM      4  C   UNL d   1     -41.703-123.239 -50.822  0.00  0.00     0.021 A 
ATOM      5  C   UNL d   1     -41.304-123.709 -49.529  0.00  0.00     0.019 A 
ATOM      6  C   UNL d   1     -41.152-123.626 -50.338  0.00  0.00     0.003 A 
ENDROOT
BRANCH   4   7
ATOM      7  C   UNL d   1     -41.558-123.153 -51.627  0.00  0.00     0.103 A 
ATOM      8  N   UNL d   1     -41.700-123.783 -52.142  0.00  0.00    -0.145 NA
ATOM      9  N   UNL d   1     -41.555-123.696 -52.946  0.00  0.00    -0.106 NA
ATOM     10  C   UNL d   1     -41.268-122.982 -53.240  0.00  0.00     0.297 A 
ATOM     11  C   UNL d   1     -41.126-122.352 -52.724  0.00  0.00     0.066 A 
ATOM     12  O   UNL d   1     -41.123-122.896 -54.045  0.00  0.00    -0.264 OA
ATOM     13  C   UNL d   1     -41.271-122.435 -51.912  0.00  0.00     0.024 A 
ATOM     14  C   UNL d   1     -41.129-121.807 -51.401  0.00  0.00     0.002 C 
ENDBRANCH   4   7
BRANCH   1  15
ATOM     15  N   UNL d   1     -43.247-122.722 -49.354  0.00  0.00    -0.112 N 
ATOM     16  O   UNL d   1     -43.952-123.150 -49.442  0.00  0.00    -0.532 OA
ATOM     17  O   UNL d   1     -43.246-122.006 -48.950  0.00  0.00    -0.532 OA
ENDBRANCH   1  15
BRANCH   2  18
ATOM     18  N   UNL d   1     -42.144-123.496 -48.396  0.00  0.00    -0.300 N 
ATOM     19  C   UNL d   1     -41.576-123.260 -47.850  0.00  0.00     0.100 C 
ATOM     20  C   UNL d   1     -42.857-123.817 -48.137  0.00  0.00     0.100 C 
ENDBRANCH   2  18
TORSDOF 3
ENDMDL
MODEL 3
REMARK VINA RESULT:      -3.4      1.657      4.419
REMARK  3 active torsions:
REMARK  status: ('A' for Active; 'I' for Inactive)
REMARK    1  A    between atoms: N_2  and  C_1 
REMARK    2  A    between atoms: C_4  and  C_8 
REMARK    3  A    between atoms: N_14  and  C_5 
ROOT
ATOM      1  C   UNL d   1     -41.699-122.416 -51.160  0.00  0.00     0.143 A 
ATOM      2  C   UNL d   1     -41.343-123.029 -51.578  0.00  0.00     0.086 A 
ATOM      3  C   UNL d   1     -41.849-122.497 -50.348  0.00  0.00     0.027 A 
ATOM      4  C   UNL d   1     -41.639-123.201 -49.957  0.00  0.00     0.021 A 
ATOM      5  C   UNL d   1     -41.135-123.726 -51.190  0.00  0.00     0.019 A 
ATOM      6  C   UNL d   1     -41.281-123.817 -50.381  0.00  0.00     0.003 A 
ENDROOT
BRANCH   4   7
ATOM      7  C   UNL d   1     -41.786-123.285 -49.152  0.00  0.00     0.103 A 
ATOM      8  N   UNL d   1     -41.207-123.075 -48.601  0.00  0.00    -0.145 NA
ATOM      9  N   UNL d   1     -41.355-123.159 -47.797  0.00  0.00    -0.106 NA
ATOM     10  C   UNL d   1     -42.080-123.452 -47.539  0.00  0.00     0.297 A 
ATOM     11  C   UNL d   1     -42.659-123.662 -48.089  0.00  0.00     0.066 A 
ATOM     12  O   UNL d   1     -42.228-123.536 -46.734  0.00  0.00    -0.264 OA
ATOM     13  C   UNL d   1     -42.514-123.579 -48.902  0.00  0.00     0.024 A 
ATOM     14  C   UNL d   1     -43.092-123.788 -49.447  0.00  0.00     0.002 C 
ENDBRANCH   4   7
BRANCH   1  15
ATOM     15  N   UNL d   1     -41.910-121.713 -51.542  0.00  0.00    -0.112 N 
ATOM     16  O   UNL d   1     -41.365-121.088 -51.573  0.00  0.00    -0.532 OA
ATOM     17  O   UNL d   1     -42.652-121.631 -51.889  0.00  0.00    -0.532 OA
ENDBRANCH   1  15
BRANCH   2  18
ATOM     18  N   UNL d   1     -41.196-122.945 -52.382  0.00  0.00    -0.300 N 
ATOM     19  C   UNL d   1     -41.122-122.194 -52.708  0.00  0.00     0.100 C 
ATOM     20  C   UNL d   1     -41.123-123.612 -52.860  0.00  0.00     0.100 C 
ENDBRANCH   2  18
TORSDOF 3
ENDMDL
