MODEL 1
REMARK VINA RESULT:      -5.9      0.000      0.000
REMARK  4 active torsions:
REMARK  status: ('A' for Active; 'I' for Inactive)
REMARK    1  A    between atoms: N_2  and  S_1 
REMARK    2  A    between atoms: C_4  and  S_1 
REMARK    3  A    between atoms: C_5  and  N_3 
REMARK    4  A    between atoms: C_12  and  C_13 
ROOT
ATOM      1  N   UNL d   1     -41.750-122.880 -51.564  0.00  0.00    -0.226 N 
ATOM      2  N   UNL d   1     -41.693-122.627 -53.194  0.00  0.00    -0.299 N 
ATOM      3  C   UNL d   1     -41.859-123.509 -52.083  0.00  0.00     0.111 A 
ATOM      4  C   UNL d   1     -41.612-122.115 -51.858  0.00  0.00     0.111 A 
ATOM      5  C   UNL d   1     -41.830-123.383 -52.898  0.00  0.00     0.100 A 
ATOM      6  C   UNL d   1     -41.584-121.989 -52.673  0.00  0.00     0.100 A 
ENDROOT
BRANCH   1   7
ATOM      7  S   UNL d   1     -41.779-123.006 -50.746  0.00  0.00     0.271 S 
ATOM      8  O   UNL d   1     -42.239-123.680 -50.866  0.00  0.00    -0.200 OA
ATOM      9  O   UNL d   1     -41.319-122.332 -50.625  0.00  0.00    -0.200 OA
BRANCH   7  10
ATOM     10  C   UNL d   1     -41.808-123.132 -49.935  0.00  0.00     0.104 A 
ATOM     11  C   UNL d   1     -41.139-123.397 -49.534  0.00  0.00     0.013 A 
ATOM     12  C   UNL d   1     -41.168-123.523 -48.719  0.00  0.00    -0.004 A 
ATOM     13  C   UNL d   1     -41.865-123.384 -48.305  0.00  0.00    -0.023 A 
ATOM     14  C   UNL d   1     -42.530-123.120 -48.705  0.00  0.00    -0.004 A 
ATOM     15  C   UNL d   1     -42.502-122.994 -49.520  0.00  0.00     0.013 A 
BRANCH  13  16
ATOM     16  C   UNL d   1     -41.893-123.511 -47.486  0.00  0.00     0.019 C 
ATOM     17  C   UNL d   1     -42.664-123.217 -47.468  0.00  0.00     0.004 C 
ATOM     18  C   UNL d   1     -41.123-123.804 -47.505  0.00  0.00     0.004 C 
ATOM     19  C   UNL d   1     -41.922-123.636 -46.676  0.00  0.00     0.004 C 
ENDBRANCH  13  16
ENDBRANCH   7  10
ENDBRANCH   1   7
BRANCH   2  20
ATOM     20  C   UNL d   1     -41.664-122.500 -54.017  0.00  0.00     0.092 A 
ATOM     21  C   UNL d   1     -42.147-121.918 -54.366  0.00  0.00     0.156 A 
ATOM     22  F   UNL d   1     -42.620-121.497 -53.924  0.00  0.00    -0.203 F 
ATOM     23  C   UNL d   1     -42.118-121.792 -55.177  0.00  0.00     0.031 A 
ATOM     24  C   UNL d   1     -41.607-122.247 -55.650  0.00  0.00     0.002 A 
ATOM     25  C   UNL d   1     -41.131-122.823 -55.301  0.00  0.00     0.002 A 
ATOM     26  C   UNL d   1     -41.159-122.949 -54.491  0.00  0.00     0.020 A 
ENDBRANCH   2  20
TORSDOF 4
ENDMDL
MODEL 2
REMARK VINA RESULT:      -5.7      1.418      5.538
REMARK  4 active torsions:
REMARK  status: ('A' for Active; 'I' for Inactive)
REMARK    1  A    between atoms: N_2  and  S_1 
REMARK    2  A    between atoms: C_4  and  S_1 
REMARK    3  A    between atoms: C_5  and  N_3 
REMARK    4  A    between atoms: C_12  and  C_13 
ROOT
ATOM      1  N   UNL d   1     -41.681-122.988 -50.771  0.00  0.00    -0.226 N 
ATOM      2  N   UNL d   1     -41.741-123.215 -49.137  0.00  0.00    -0.299 N 
ATOM      3  C   UNL d   1     -42.193-122.537 -50.311  0.00  0.00     0.111 A 
ATOM      4  C   UNL d   1     -41.193-123.559 -50.415  0.00  0.00     0.111 A 
ATOM      5  C   UNL d   1     -42.223-122.651 -49.494  0.00  0.00     0.100 A 
ATOM      6  C   UNL d   1     -41.223-123.672 -49.599  0.00  0.00     0.100 A 
ENDROOT
BRANCH   1   7
ATOM      7  S   UNL d   1     -41.651-122.875 -51.591  0.00  0.00     0.271 S 
ATOM      8  O   UNL d   1     -41.865-123.663 -51.708  0.00  0.00    -0.200 OA
ATOM      9  O   UNL d   1     -41.436-122.087 -51.474  0.00  0.00    -0.200 OA
BRANCH   7  10
ATOM     10  C   UNL d   1     -41.621-122.762 -52.404  0.00  0.00     0.104 A 
ATOM     11  C   UNL d   1     -41.244-123.315 -52.884  0.00  0.00     0.013 A 
ATOM     12  C   UNL d   1     -41.214-123.202 -53.700  0.00  0.00    -0.004 A 
ATOM     13  C   UNL d   1     -41.560-122.536 -54.037  0.00  0.00    -0.023 A 
ATOM     14  C   UNL d   1     -41.935-121.985 -53.559  0.00  0.00    -0.004 A 
ATOM     15  C   UNL d   1     -41.965-122.098 -52.742  0.00  0.00     0.013 A 
BRANCH  13  16
ATOM     16  C   UNL d   1     -41.530-122.422 -54.858  0.00  0.00     0.019 C 
ATOM     17  C   UNL d   1     -41.166-123.157 -54.946  0.00  0.00     0.004 C 
ATOM     18  C   UNL d   1     -41.894-121.687 -54.769  0.00  0.00     0.004 C 
ATOM     19  C   UNL d   1     -41.500-122.309 -55.670  0.00  0.00     0.004 C 
ENDBRANCH  13  16
ENDBRANCH   7  10
ENDBRANCH   1   7
BRANCH   2  20
ATOM     20  C   UNL d   1     -41.772-123.329 -48.313  0.00  0.00     0.092 A 
ATOM     21  C   UNL d   1     -42.460-123.638 -47.960  0.00  0.00     0.156 A 
ATOM     22  F   UNL d   1     -43.069-123.817 -48.399  0.00  0.00    -0.203 F 
ATOM     23  C   UNL d   1     -42.490-123.750 -47.147  0.00  0.00     0.031 A 
ATOM     24  C   UNL d   1     -41.832-123.556 -46.676  0.00  0.00     0.002 A 
ATOM     25  C   UNL d   1     -41.153-123.251 -47.028  0.00  0.00     0.002 A 
ATOM     26  C   UNL d   1     -41.123-123.138 -47.841  0.00  0.00     0.020 A 
ENDBRANCH   2  20
TORSDOF 4
ENDMDL
