MODEL 1
REMARK VINA RESULT:      26.3      0.000      0.000
REMARK  1 active torsions:
REMARK  status: ('A' for Active; 'I' for Inactive)
REMARK       I    between atoms: C_8  and  N_9 
REMARK    1  A    between atoms: N_9  and  C_10 
ROOT
ATOM      1  N   UNL d   1     -50.108  25.654  33.354  0.00  0.00    -0.304 N 
ATOM      2  C   UNL d   1     -50.909  25.455  33.366  0.00  0.00     0.066 A 
ATOM      3  C   UNL d   1     -51.349  26.156  33.370  0.00  0.00     0.018 A 
ATOM      4  C   UNL d   1     -50.052  26.477  33.351  0.00  0.00     0.064 A 
ATOM      5  C   UNL d   1     -50.817  26.786  33.361  0.00  0.00     0.018 A 
ATOM      6  C   UNL d   1     -51.298  24.726  33.374  0.00  0.00     0.037 A 
ATOM      7  C   UNL d   1     -52.171  26.127  33.382  0.00  0.00     0.003 A 
ATOM      8  C   UNL d   1     -52.127  24.700  33.386  0.00  0.00     0.086 A 
ATOM      9  C   UNL d   1     -52.556  25.407  33.390  0.00  0.00     0.019 A 
ATOM     10  C   UNL d   1     -49.485  25.128  33.347  0.00  0.00     0.099 C 
ATOM     11  C   UNL d   1     -49.403  26.987  33.340  0.00  0.00     0.018 A 
ATOM     12  C   UNL d   1     -50.928  27.605  33.360  0.00  0.00     0.002 A 
ATOM     13  C   UNL d   1     -50.281  28.108  33.349  0.00  0.00     0.000 A 
ATOM     14  C   UNL d   1     -49.517  27.798  33.339  0.00  0.00     0.002 A 
ENDROOT
BRANCH   8  15
ATOM     15  N   UNL d   1     -52.505  23.977  33.394  0.00  0.00    -0.208 NA
ATOM     16  C   UNL d   1     -53.324  23.932  33.354  0.00  0.00     0.279 C 
ATOM     17  O   UNL d   1     -53.698  23.201  33.363  0.00  0.00    -0.265 OA
ATOM     18  C   UNL d   1     -53.764  24.621  33.307  0.00  0.00     0.068 C 
ENDBRANCH   8  15
TORSDOF 1
ENDMDL
