MODEL 1
REMARK VINA RESULT:      -2.0      0.000      0.000
REMARK  3 active torsions:
REMARK  status: ('A' for Active; 'I' for Inactive)
REMARK    1  A    between atoms: C_15  and  N_4 
REMARK    2  A    between atoms: C_11  and  N_10 
REMARK    3  A    between atoms: C_19  and  C_15 
ROOT
ATOM      1  C   UNL d   1     -42.636-122.376 -50.876  0.00  0.00     0.191 A 
ATOM      2  C   UNL d   1     -42.059-122.952 -50.724  0.00  0.00     0.173 A 
ATOM      3  C   UNL d   1     -42.053-122.692 -52.047  0.00  0.00     0.722 A 
ATOM      4  N   UNL d   1     -42.378-122.933 -49.326  0.00  0.00    -0.224 N 
ATOM      5  N   UNL d   1     -42.642-122.207 -51.687  0.00  0.00    -0.042 NA
ATOM      6  N   UNL d   1     -41.699-123.145 -51.459  0.00  0.00    -0.131 N 
ATOM      7  N   UNL d   1     -43.100-122.065 -50.242  0.00  0.00    -0.240 N 
ATOM      8  C   UNL d   1     -42.961-122.356 -49.450  0.00  0.00     0.343 A 
ATOM      9  C   UNL d   1     -41.924-123.230 -49.983  0.00  0.00     0.288 A 
ATOM     10  N   UNL d   1     -41.700-122.881 -52.763  0.00  0.00    -0.139 N 
ATOM     11  C   UNL d   1     -41.123-123.618 -51.814  0.00  0.00     0.118 A 
ATOM     12  C   UNL d   1     -41.129-123.449 -52.621  0.00  0.00     0.117 A 
ATOM     13  O   UNL d   1     -43.407-122.068 -48.790  0.00  0.00    -0.245 OA
ATOM     14  O   UNL d   1     -41.336-123.817 -49.829  0.00  0.00    -0.265 OA
ATOM     15  C   UNL d   1     -43.686-121.483 -50.383  0.00  0.00     0.105 C 
ENDROOT
BRANCH  10  16
ATOM     16  C   UNL d   1     -41.888-122.555 -53.498  0.00  0.00     0.082 A 
ATOM     17  C   UNL d   1     -41.641-122.935 -54.180  0.00  0.00     0.027 A 
ATOM     18  C   UNL d   1     -41.827-122.613 -54.907  0.00  0.00     0.059 A 
ATOM     19  C   UNL d   1     -41.206-123.639 -54.139  0.00  0.00     0.002 C 
ATOM     20 CL   UNL d   1     -41.545-123.049 -55.549  0.00  0.00    -0.082 Cl
ATOM     21  C   UNL d   1     -42.261-121.909 -54.956  0.00  0.00     0.011 A 
ATOM     22  C   UNL d   1     -42.509-121.528 -54.267  0.00  0.00     0.002 A 
ATOM     23  C   UNL d   1     -42.319-121.856 -53.535  0.00  0.00     0.018 A 
ENDBRANCH  10  16
BRANCH   4  24
ATOM     24  C   UNL d   1     -42.561-122.922 -48.521  0.00  0.00     0.087 C 
BRANCH  24  25
ATOM     25  C   UNL d   1     -42.011-123.193 -47.978  0.00  0.00     0.018 C 
ATOM     26  C   UNL d   1     -42.221-123.790 -47.449  0.00  0.00     0.002 C 
ATOM     27  C   UNL d   1     -41.256-122.882 -47.950  0.00  0.00     0.002 C 
ENDBRANCH  24  25
ENDBRANCH   4  24
TORSDOF 3
ENDMDL
MODEL 2
REMARK VINA RESULT:      -0.4      2.144      4.804
REMARK  3 active torsions:
REMARK  status: ('A' for Active; 'I' for Inactive)
REMARK    1  A    between atoms: C_15  and  N_4 
REMARK    2  A    between atoms: C_11  and  N_10 
REMARK    3  A    between atoms: C_19  and  C_15 
ROOT
ATOM      1  C   UNL d   1     -41.613-121.727 -51.787  0.00  0.00     0.191 A 
ATOM      2  C   UNL d   1     -41.658-122.504 -52.074  0.00  0.00     0.173 A 
ATOM      3  C   UNL d   1     -41.711-122.551 -50.727  0.00  0.00     0.722 A 
ATOM      4  N   UNL d   1     -41.574-122.034 -53.426  0.00  0.00    -0.224 N 
ATOM      5  N   UNL d   1     -41.645-121.742 -50.959  0.00  0.00    -0.042 NA
ATOM      6  N   UNL d   1     -41.719-123.014 -51.407  0.00  0.00    -0.131 N 
ATOM      7  N   UNL d   1     -41.546-121.081 -52.328  0.00  0.00    -0.240 N 
ATOM      8  C   UNL d   1     -41.527-121.247 -53.166  0.00  0.00     0.343 A 
ATOM      9  C   UNL d   1     -41.640-122.667 -52.859  0.00  0.00     0.288 A 
ATOM     10  N   UNL d   1     -41.771-123.049 -50.079  0.00  0.00    -0.139 N 
ATOM     11  C   UNL d   1     -41.784-123.803 -51.177  0.00  0.00     0.118 A 
ATOM     12  C   UNL d   1     -41.815-123.818 -50.353  0.00  0.00     0.117 A 
ATOM     13  O   UNL d   1     -41.461-120.625 -53.737  0.00  0.00    -0.245 OA
ATOM     14  O   UNL d   1     -41.686-123.459 -53.151  0.00  0.00    -0.265 OA
ATOM     15  C   UNL d   1     -41.500-120.291 -52.050  0.00  0.00     0.105 C 
ENDROOT
BRANCH  10  16
ATOM     16  C   UNL d   1     -41.783-122.815 -49.286  0.00  0.00     0.082 A 
ATOM     17  C   UNL d   1     -42.457-122.947 -48.840  0.00  0.00     0.027 A 
ATOM     18  C   UNL d   1     -42.471-122.716 -48.058  0.00  0.00     0.059 A 
ATOM     19  C   UNL d   1     -43.122-123.313 -49.175  0.00  0.00     0.002 C 
ATOM     20 CL   UNL d   1     -43.182-122.881 -47.671  0.00  0.00    -0.082 Cl
ATOM     21  C   UNL d   1     -41.811-122.351 -47.716  0.00  0.00     0.011 A 
ATOM     22  C   UNL d   1     -41.132-122.218 -48.168  0.00  0.00     0.002 A 
ATOM     23  C   UNL d   1     -41.123-122.453 -48.958  0.00  0.00     0.018 A 
ENDBRANCH  10  16
BRANCH   4  24
ATOM     24  C   UNL d   1     -41.525-121.763 -54.204  0.00  0.00     0.087 C 
BRANCH  24  25
ATOM     25  C   UNL d   1     -41.854-122.208 -54.808  0.00  0.00     0.018 C 
ATOM     26  C   UNL d   1     -41.518-122.936 -55.005  0.00  0.00     0.002 C 
ATOM     27  C   UNL d   1     -42.508-121.945 -55.219  0.00  0.00     0.002 C 
ENDBRANCH  24  25
ENDBRANCH   4  24
TORSDOF 3
ENDMDL
