MODEL 1
REMARK VINA RESULT:       7.0      0.000      0.000
REMARK  1 active torsions:
REMARK  status: ('A' for Active; 'I' for Inactive)
REMARK    1  A    between atoms: C_7  and  C_1 
ROOT
ATOM      1  C   UNL d   1     -51.013  25.977  33.323  0.00  0.00     0.122 A 
ATOM      2  C   UNL d   1     -50.401  25.406  33.312  0.00  0.00     0.285 A 
ATOM      3  C   UNL d   1     -51.794  25.720  33.329  0.00  0.00     0.012 A 
ATOM      4  N   UNL d   1     -50.572  24.600  33.306  0.00  0.00    -0.208 NA
ATOM      5  C   UNL d   1     -51.366  24.353  33.312  0.00  0.00     0.085 A 
ATOM      6  C   UNL d   1     -51.980  24.910  33.324  0.00  0.00     0.018 A 
ATOM      7  O   UNL d   1     -49.613  25.657  33.306  0.00  0.00    -0.265 OA
ATOM      8  C   UNL d   1     -51.542  23.548  33.306  0.00  0.00     0.019 A 
ATOM      9  C   UNL d   1     -52.762  24.670  33.330  0.00  0.00     0.002 A 
ATOM     10  C   UNL d   1     -52.936  23.861  33.324  0.00  0.00     0.000 A 
ATOM     11  C   UNL d   1     -52.331  23.307  33.313  0.00  0.00     0.002 A 
ENDROOT
BRANCH   1  12
ATOM     12  C   UNL d   1     -50.838  26.774  33.329  0.00  0.00     0.216 C 
ATOM     13  O   UNL d   1     -51.461  27.332  33.307  0.00  0.00    -0.644 OA
ATOM     14  O   UNL d   1     -50.057  27.032  33.356  0.00  0.00    -0.644 OA
ENDBRANCH   1  12
TORSDOF 1
ENDMDL
