MODEL 1
REMARK VINA RESULT:      27.9      0.000      0.000
REMARK  5 active torsions:
REMARK  status: ('A' for Active; 'I' for Inactive)
REMARK    1  A    between atoms: C_6  and  N_2 
REMARK    2  A    between atoms: C_7  and  C_6 
REMARK    3  A    between atoms: C_8  and  C_7 
REMARK       I    between atoms: N_10  and  C_8 
REMARK    4  A    between atoms: C_12  and  N_10 
REMARK    5  A    between atoms: C_13  and  C_12 
ROOT
ATOM      1  C   UNL d   1     -56.936 -98.794 -44.952  0.00  0.00     0.088 C 
ENDROOT
BRANCH   1   2
ATOM      2  N   UNL d   1     -57.738 -98.812 -44.769  0.00  0.00    -0.268 N 
ATOM      3  C   UNL d   1     -58.062 -98.845 -44.015  0.00  0.00     0.296 A 
ATOM      4  S   UNL d   1     -58.913 -98.853 -44.116  0.00  0.00    -0.025 SA
ATOM      5  O   UNL d   1     -57.639 -98.866 -43.308  0.00  0.00    -0.259 OA
ATOM      6  C   UNL d   1     -59.064 -98.826 -44.894  0.00  0.00     0.050 A 
ATOM      7  C   UNL d   1     -59.788 -98.821 -45.298  0.00  0.00     0.008 A 
ATOM      8  C   UNL d   1     -58.356 -98.800 -45.316  0.00  0.00     0.073 A 
ATOM      9  C   UNL d   1     -59.800 -98.790 -46.128  0.00  0.00     0.001 A 
ATOM     10  C   UNL d   1     -59.086 -98.764 -46.539  0.00  0.00     0.002 A 
ATOM     11  C   UNL d   1     -58.366 -98.770 -46.132  0.00  0.00     0.018 A 
ENDBRANCH   1   2
BRANCH   1  12
ATOM     12  C   UNL d   1     -56.374 -98.849 -44.356  0.00  0.00     0.082 C 
BRANCH  12  13
ATOM     13  C   UNL d   1     -55.650 -99.219 -44.496  0.00  0.00     0.281 C 
ATOM     14  N   UNL d   1     -55.576-100.034 -44.426  0.00  0.00    -0.206 NA
ATOM     15  O   UNL d   1     -54.994 -98.765 -44.708  0.00  0.00    -0.265 OA
BRANCH  14  16
ATOM     16  C   UNL d   1     -54.856-100.398 -44.565  0.00  0.00     0.102 C 
BRANCH  16  17
ATOM     17  C   UNL d   1     -54.809-101.218 -44.577  0.00  0.00     0.019 A 
ATOM     18  C   UNL d   1     -54.785-101.625 -45.304  0.00  0.00     0.002 A 
ATOM     19  C   UNL d   1     -54.737-102.455 -45.308  0.00  0.00     0.000 A 
ATOM     20  C   UNL d   1     -54.715-102.877 -44.603  0.00  0.00     0.000 A 
ATOM     21  C   UNL d   1     -54.739-102.470 -43.875  0.00  0.00     0.000 A 
ATOM     22  C   UNL d   1     -54.786-101.643 -43.857  0.00  0.00     0.002 A 
ENDBRANCH  16  17
ENDBRANCH  14  16
ENDBRANCH  12  13
ENDBRANCH   1  12
TORSDOF 5
ENDMDL
