MODEL 1
REMARK VINA RESULT:      35.9      0.000      0.000
REMARK  3 active torsions:
REMARK  status: ('A' for Active; 'I' for Inactive)
REMARK       I    between atoms: C_6  and  N_7 
REMARK    1  A    between atoms: C_9  and  C_6 
REMARK    2  A    between atoms: N_7  and  C_13 
REMARK    3  A    between atoms: C_15  and  C_14 
ROOT
ATOM      1  C   UNL d   1      46.309 -12.771  44.626  0.00  0.00     0.279 C 
ATOM      2  N   UNL d   1      46.497 -13.502  44.948  0.00  0.00    -0.208 NA
ATOM      3  O   UNL d   1      46.638 -12.091  44.946  0.00  0.00    -0.265 OA
ENDROOT
BRANCH   2   4
ATOM      4  C   UNL d   1      46.169 -14.189  44.630  0.00  0.00     0.085 A 
ATOM      5  C   UNL d   1      45.387 -14.372  44.790  0.00  0.00     0.024 A 
ATOM      6  C   UNL d   1      45.058 -15.058  44.472  0.00  0.00     0.064 A 
ATOM      7  C   UNL d   1      44.298 -15.384  44.534  0.00  0.00     0.282 A 
ATOM      8  C   UNL d   1      45.501 -15.558  43.999  0.00  0.00     0.063 A 
ATOM      9  N   UNL d   1      44.287 -16.080  44.098  0.00  0.00    -0.169 NA
ATOM     10  O   UNL d   1      43.658 -15.082  44.951  0.00  0.00    -0.265 OA
ATOM     11  C   UNL d   1      45.029 -16.186  43.768  0.00  0.00     0.282 A 
ATOM     12  O   UNL d   1      45.265 -16.812  43.289  0.00  0.00    -0.265 OA
ATOM     13  C   UNL d   1      46.289 -15.372  43.839  0.00  0.00     0.006 A 
ATOM     14  C   UNL d   1      46.625 -14.688  44.152  0.00  0.00     0.019 A 
ENDBRANCH   2   4
BRANCH   1  15
ATOM     15  C   UNL d   1      45.799 -12.717  43.993  0.00  0.00     0.058 A 
ATOM     16  C   UNL d   1      44.993 -12.628  44.114  0.00  0.00     0.005 A 
ATOM     17  C   UNL d   1      44.482 -12.574  43.465  0.00  0.00     0.003 A 
ATOM     18  C   UNL d   1      44.781 -12.609  42.697  0.00  0.00     0.039 A 
ATOM     19  C   UNL d   1      45.593 -12.698  42.578  0.00  0.00     0.003 A 
ATOM     20  C   UNL d   1      46.104 -12.752  43.226  0.00  0.00     0.005 A 
BRANCH  18  21
ATOM     21  C   UNL d   1      44.270 -12.554  42.049  0.00  0.00     0.196 C 
ATOM     22  O   UNL d   1      44.472 -12.911  41.334  0.00  0.00    -0.287 OA
ATOM     23  C   UNL d   1      43.558 -12.142  42.121  0.00  0.00     0.045 C 
ENDBRANCH  18  21
ENDBRANCH   1  15
TORSDOF 3
ENDMDL
MODEL 2
REMARK VINA RESULT:      36.5      3.467      5.604
REMARK  3 active torsions:
REMARK  status: ('A' for Active; 'I' for Inactive)
REMARK       I    between atoms: C_6  and  N_7 
REMARK    1  A    between atoms: C_9  and  C_6 
REMARK    2  A    between atoms: N_7  and  C_13 
REMARK    3  A    between atoms: C_15  and  C_14 
ROOT
ATOM      1  C   UNL d   1      46.257 -19.750  44.228  0.00  0.00     0.279 C 
ATOM      2  N   UNL d   1      46.464 -20.043  43.490  0.00  0.00    -0.208 NA
ATOM      3  O   UNL d   1      46.228 -20.257  44.872  0.00  0.00    -0.265 OA
ENDROOT
BRANCH   2   4
ATOM      4  C   UNL d   1      46.494 -19.536  42.840  0.00  0.00     0.085 A 
ATOM      5  C   UNL d   1      46.444 -19.848  42.084  0.00  0.00     0.024 A 
ATOM      6  C   UNL d   1      46.474 -19.341  41.434  0.00  0.00     0.064 A 
ATOM      7  C   UNL d   1      46.437 -19.490  40.619  0.00  0.00     0.282 A 
ATOM      8  C   UNL d   1      46.553 -18.533  41.532  0.00  0.00     0.063 A 
ATOM      9  N   UNL d   1      46.495 -18.769  40.229  0.00  0.00    -0.169 NA
ATOM     10  O   UNL d   1      46.358 -20.218  40.248  0.00  0.00    -0.265 OA
ATOM     11  C   UNL d   1      46.566 -18.180  40.793  0.00  0.00     0.282 A 
ATOM     12  O   UNL d   1      46.638 -17.372  40.650  0.00  0.00    -0.265 OA
ATOM     13  C   UNL d   1      46.603 -18.220  42.294  0.00  0.00     0.006 A 
ATOM     14  C   UNL d   1      46.574 -18.719  42.950  0.00  0.00     0.019 A 
ENDBRANCH   2   4
BRANCH   1  15
ATOM     15  C   UNL d   1      46.080 -18.960  44.325  0.00  0.00     0.058 A 
ATOM     16  C   UNL d   1      46.507 -18.499  44.853  0.00  0.00     0.005 A 
ATOM     17  C   UNL d   1      46.321 -17.699  44.946  0.00  0.00     0.003 A 
ATOM     18  C   UNL d   1      45.708 -17.362  44.508  0.00  0.00     0.039 A 
ATOM     19  C   UNL d   1      45.280 -17.827  43.977  0.00  0.00     0.003 A 
ATOM     20  C   UNL d   1      45.466 -18.627  43.885  0.00  0.00     0.005 A 
BRANCH  18  21
ATOM     21  C   UNL d   1      45.523 -16.561  44.601  0.00  0.00     0.196 C 
ATOM     22  O   UNL d   1      44.738 -16.328  44.695  0.00  0.00    -0.287 OA
ATOM     23  C   UNL d   1      46.125 -15.997  44.599  0.00  0.00     0.045 C 
ENDBRANCH  18  21
ENDBRANCH   1  15
TORSDOF 3
ENDMDL
MODEL 3
REMARK VINA RESULT:      38.0      2.215      4.324
REMARK  3 active torsions:
REMARK  status: ('A' for Active; 'I' for Inactive)
REMARK       I    between atoms: C_6  and  N_7 
REMARK    1  A    between atoms: C_9  and  C_6 
REMARK    2  A    between atoms: N_7  and  C_13 
REMARK    3  A    between atoms: C_15  and  C_14 
ROOT
ATOM      1  C   UNL d   1      45.970 -18.382  44.469  0.00  0.00     0.279 C 
ATOM      2  N   UNL d   1      45.973 -17.720  44.955  0.00  0.00    -0.208 NA
ATOM      3  O   UNL d   1      45.963 -19.130  44.805  0.00  0.00    -0.265 OA
ENDROOT
BRANCH   2   4
ATOM      4  C   UNL d   1      45.981 -16.965  44.621  0.00  0.00     0.085 A 
ATOM      5  C   UNL d   1      45.360 -16.453  44.773  0.00  0.00     0.024 A 
ATOM      6  C   UNL d   1      45.368 -15.698  44.439  0.00  0.00     0.064 A 
ATOM      7  C   UNL d   1      44.830 -15.069  44.490  0.00  0.00     0.282 A 
ATOM      8  C   UNL d   1      45.984 -15.455  43.960  0.00  0.00     0.063 A 
ATOM      9  N   UNL d   1      45.125 -14.449  44.040  0.00  0.00    -0.169 NA
ATOM     10  O   UNL d   1      44.123 -15.050  44.909  0.00  0.00    -0.265 OA
ATOM     11  C   UNL d   1      45.837 -14.687  43.714  0.00  0.00     0.282 A 
ATOM     12  O   UNL d   1      46.325 -14.240  43.224  0.00  0.00    -0.265 OA
ATOM     13  C   UNL d   1      46.609 -15.973  43.808  0.00  0.00     0.006 A 
ATOM     14  C   UNL d   1      46.610 -16.728  44.137  0.00  0.00     0.019 A 
ENDBRANCH   2   4
BRANCH   1  15
ATOM     15  C   UNL d   1      45.974 -18.300  43.659  0.00  0.00     0.058 A 
ATOM     16  C   UNL d   1      45.331 -17.971  43.270  0.00  0.00     0.005 A 
ATOM     17  C   UNL d   1      45.343 -17.892  42.446  0.00  0.00     0.003 A 
ATOM     18  C   UNL d   1      46.000 -18.143  42.015  0.00  0.00     0.039 A 
ATOM     19  C   UNL d   1      46.646 -18.474  42.408  0.00  0.00     0.003 A 
ATOM     20  C   UNL d   1      46.634 -18.553  43.231  0.00  0.00     0.005 A 
BRANCH  18  21
ATOM     21  C   UNL d   1      46.012 -18.064  41.192  0.00  0.00     0.196 C 
ATOM     22  O   UNL d   1      46.500 -17.501  40.838  0.00  0.00    -0.287 OA
ATOM     23  C   UNL d   1      45.535 -18.550  40.726  0.00  0.00     0.045 C 
ENDBRANCH  18  21
ENDBRANCH   1  15
TORSDOF 3
ENDMDL
