MODEL 1
REMARK VINA RESULT:      -4.9      0.000      0.000
REMARK  3 active torsions:
REMARK  status: ('A' for Active; 'I' for Inactive)
REMARK    1  A    between atoms: C_6  and  C_1 
REMARK    2  A    between atoms: O_9  and  C_6 
REMARK    3  A    between atoms: C_12  and  O_9 
ROOT
ATOM      1  C   UNL d   1     -41.622-122.515 -53.115  0.00  0.00     0.089 A 
ATOM      2  C   UNL d   1     -41.400-123.314 -53.176  0.00  0.00     0.138 A 
ATOM      3  S   UNL d   1     -41.468-123.530 -53.947  0.00  0.00    -0.066 SA
ATOM      4  C   UNL d   1     -41.820-122.268 -53.857  0.00  0.00     0.013 A 
ATOM      5  C   UNL d   1     -41.730-122.877 -54.368  0.00  0.00     0.031 A 
ATOM      6  N   UNL d   1     -41.149-123.816 -52.563  0.00  0.00    -0.141 N 
ATOM      7  C   UNL d   1     -42.082-121.522 -54.118  0.00  0.00     0.001 A 
ATOM      8  C   UNL d   1     -41.896-122.778 -55.179  0.00  0.00     0.006 A 
ATOM      9  C   UNL d   1     -42.248-121.428 -54.932  0.00  0.00     0.000 A 
ATOM     10  C   UNL d   1     -42.154-122.038 -55.425  0.00  0.00     0.001 A 
ENDROOT
BRANCH   1  11
ATOM     11  C   UNL d   1     -41.628-122.076 -52.396  0.00  0.00     0.302 C 
ATOM     12  O   UNL d   1     -41.123-121.451 -52.319  0.00  0.00    -0.259 OA
BRANCH  11  13
ATOM     13  O   UNL d   1     -42.134-122.299 -51.821  0.00  0.00    -0.271 OA
BRANCH  13  14
ATOM     14  C   UNL d   1     -42.092-121.938 -51.094  0.00  0.00     0.126 C 
ATOM     15  C   UNL d   1     -42.634-122.146 -50.508  0.00  0.00     0.029 C 
ENDBRANCH  13  14
ENDBRANCH  11  13
ENDBRANCH   1  11
TORSDOF 3
ENDMDL
MODEL 2
REMARK VINA RESULT:      -4.4      1.106      2.868
REMARK  3 active torsions:
REMARK  status: ('A' for Active; 'I' for Inactive)
REMARK    1  A    between atoms: C_6  and  C_1 
REMARK    2  A    between atoms: O_9  and  C_6 
REMARK    3  A    between atoms: C_12  and  O_9 
ROOT
ATOM      1  C   UNL d   1     -41.453-122.665 -53.041  0.00  0.00     0.089 A 
ATOM      2  C   UNL d   1     -41.228-123.452 -53.188  0.00  0.00     0.138 A 
ATOM      3  S   UNL d   1     -41.124-123.815 -52.478  0.00  0.00    -0.066 SA
ATOM      4  C   UNL d   1     -41.480-122.573 -52.240  0.00  0.00     0.013 A 
ATOM      5  C   UNL d   1     -41.282-123.265 -51.891  0.00  0.00     0.031 A 
ATOM      6  N   UNL d   1     -41.123-123.817 -53.927  0.00  0.00    -0.141 N 
ATOM      7  C   UNL d   1     -41.672-121.901 -51.787  0.00  0.00     0.001 A 
ATOM      8  C   UNL d   1     -41.263-123.330 -51.059  0.00  0.00     0.006 A 
ATOM      9  C   UNL d   1     -41.652-121.971 -50.955  0.00  0.00     0.000 A 
ATOM     10  C   UNL d   1     -41.455-122.661 -50.623  0.00  0.00     0.001 A 
ENDROOT
BRANCH   1  11
ATOM     11  C   UNL d   1     -41.615-122.097 -53.641  0.00  0.00     0.302 C 
ATOM     12  O   UNL d   1     -41.137-121.450 -53.703  0.00  0.00    -0.259 OA
BRANCH  11  13
ATOM     13  O   UNL d   1     -42.238-122.224 -54.124  0.00  0.00    -0.271 OA
BRANCH  13  14
ATOM     14  C   UNL d   1     -42.418-121.673 -54.693  0.00  0.00     0.126 C 
ATOM     15  C   UNL d   1     -42.761-121.919 -55.401  0.00  0.00     0.029 C 
ENDBRANCH  13  14
ENDBRANCH  11  13
ENDBRANCH   1  11
TORSDOF 3
ENDMDL
MODEL 3
REMARK VINA RESULT:      -3.9      1.945      2.592
REMARK  3 active torsions:
REMARK  status: ('A' for Active; 'I' for Inactive)
REMARK    1  A    between atoms: C_6  and  C_1 
REMARK    2  A    between atoms: O_9  and  C_6 
REMARK    3  A    between atoms: C_12  and  O_9 
ROOT
ATOM      1  C   UNL d   1     -41.585-122.604 -51.046  0.00  0.00     0.089 A 
ATOM      2  C   UNL d   1     -41.512-121.776 -51.092  0.00  0.00     0.138 A 
ATOM      3  S   UNL d   1     -41.332-121.587 -51.853  0.00  0.00    -0.066 SA
ATOM      4  C   UNL d   1     -41.445-122.894 -51.786  0.00  0.00     0.013 A 
ATOM      5  C   UNL d   1     -41.291-122.286 -52.281  0.00  0.00     0.031 A 
ATOM      6  N   UNL d   1     -41.605-121.226 -50.477  0.00  0.00    -0.141 N 
ATOM      7  C   UNL d   1     -41.445-123.682 -52.057  0.00  0.00     0.001 A 
ATOM      8  C   UNL d   1     -41.126-122.426 -53.086  0.00  0.00     0.006 A 
ATOM      9  C   UNL d   1     -41.279-123.817 -52.865  0.00  0.00     0.000 A 
ATOM     10  C   UNL d   1     -41.129-123.206 -53.343  0.00  0.00     0.001 A 
ENDROOT
BRANCH   1  11
ATOM     11  C   UNL d   1     -41.770-123.026 -50.342  0.00  0.00     0.302 C 
ATOM     12  O   UNL d   1     -41.170-123.235 -49.845  0.00  0.00    -0.259 OA
BRANCH  11  13
ATOM     13  O   UNL d   1     -42.535-123.200 -50.196  0.00  0.00    -0.271 OA
BRANCH  13  14
ATOM     14  C   UNL d   1     -42.722-123.656 -49.550  0.00  0.00     0.126 C 
ATOM     15  C   UNL d   1     -43.512-123.743 -49.330  0.00  0.00     0.029 C 
ENDBRANCH  13  14
ENDBRANCH  11  13
ENDBRANCH   1  11
TORSDOF 3
ENDMDL
MODEL 4
REMARK VINA RESULT:      -3.9      2.422      4.590
REMARK  3 active torsions:
REMARK  status: ('A' for Active; 'I' for Inactive)
REMARK    1  A    between atoms: C_6  and  C_1 
REMARK    2  A    between atoms: O_9  and  C_6 
REMARK    3  A    between atoms: C_12  and  O_9 
ROOT
ATOM      1  C   UNL d   1     -42.121-122.706 -50.072  0.00  0.00     0.089 A 
ATOM      2  C   UNL d   1     -42.925-122.504 -50.003  0.00  0.00     0.138 A 
ATOM      3  S   UNL d   1     -43.185-122.766 -49.288  0.00  0.00    -0.066 SA
ATOM      4  C   UNL d   1     -41.915-123.088 -49.391  0.00  0.00     0.013 A 
ATOM      5  C   UNL d   1     -42.553-123.128 -48.911  0.00  0.00     0.031 A 
ATOM      6  N   UNL d   1     -43.394-122.104 -50.560  0.00  0.00    -0.141 N 
ATOM      7  C   UNL d   1     -41.182-123.410 -49.162  0.00  0.00     0.001 A 
ATOM      8  C   UNL d   1     -42.499-123.497 -48.164  0.00  0.00     0.006 A 
ATOM      9  C   UNL d   1     -41.133-123.778 -48.414  0.00  0.00     0.000 A 
ATOM     10  C   UNL d   1     -41.772-123.811 -47.949  0.00  0.00     0.001 A 
ENDROOT
BRANCH   1  11
ATOM     11  C   UNL d   1     -41.643-122.530 -50.741  0.00  0.00     0.302 C 
ATOM     12  O   UNL d   1     -41.202-121.854 -50.736  0.00  0.00    -0.259 OA
BRANCH  11  13
ATOM     13  O   UNL d   1     -41.645-123.042 -51.354  0.00  0.00    -0.271 OA
BRANCH  13  14
ATOM     14  C   UNL d   1     -41.123-122.930 -51.966  0.00  0.00     0.126 C 
ATOM     15  C   UNL d   1     -41.146-123.440 -52.614  0.00  0.00     0.029 C 
ENDBRANCH  13  14
ENDBRANCH  11  13
ENDBRANCH   1  11
TORSDOF 3
ENDMDL
