MODEL 1
REMARK VINA RESULT:      -8.4      0.000      0.000
REMARK  4 active torsions:
REMARK  status: ('A' for Active; 'I' for Inactive)
REMARK    1  A    between atoms: N_2  and  S_1 
REMARK    2  A    between atoms: C_5  and  S_1 
REMARK    3  A    between atoms: C_4  and  N_2 
REMARK    4  A    between atoms: C_7  and  C_3 
ROOT
ATOM      1  S   UNL d   1     -48.032  13.470  22.987  0.00  0.00     0.285 S 
ATOM      2  O   UNL d   1     -48.159  12.643  23.093  0.00  0.00    -0.198 OA
ATOM      3  O   UNL d   1     -47.901  14.305  22.884  0.00  0.00    -0.198 OA
ENDROOT
BRANCH   1   4
ATOM      4  N   UNL d   1     -47.310  13.415  23.420  0.00  0.00    -0.158 NA
BRANCH   4   5
ATOM      5  C   UNL d   1     -46.582  13.227  23.038  0.00  0.00     0.094 A 
ATOM      6  C   UNL d   1     -46.313  12.487  23.063  0.00  0.00     0.018 A 
ATOM      7  C   UNL d   1     -45.605  12.253  22.704  0.00  0.00     0.002 A 
ATOM      8  C   UNL d   1     -46.768  11.971  23.460  0.00  0.00     0.002 C 
ATOM      9  C   UNL d   1     -45.152  12.842  22.291  0.00  0.00     0.000 A 
ATOM     10  C   UNL d   1     -45.462  13.578  22.290  0.00  0.00     0.002 A 
ATOM     11  C   UNL d   1     -44.443  12.712  21.905  0.00  0.00     0.000 C 
ATOM     12  C   UNL d   1     -46.172  13.820  22.648  0.00  0.00     0.018 A 
ATOM     13  C   UNL d   1     -46.427  14.580  22.610  0.00  0.00     0.002 C 
ENDBRANCH   4   5
ENDBRANCH   1   4
BRANCH   1  14
ATOM     14  C   UNL d   1     -48.764  13.524  22.549  0.00  0.00     0.106 A 
ATOM     15  C   UNL d   1     -49.351  14.030  22.853  0.00  0.00     0.020 A 
ATOM     16  C   UNL d   1     -50.064  14.093  22.442  0.00  0.00     0.076 A 
ATOM     17  C   UNL d   1     -50.194  13.667  21.748  0.00  0.00     0.064 A 
ATOM     18  C   UNL d   1     -49.614  13.168  21.451  0.00  0.00     0.012 A 
ATOM     19 CL   UNL d   1     -50.920  13.741  21.344  0.00  0.00    -0.082 Cl
ATOM     20  C   UNL d   1     -48.900  13.077  21.823  0.00  0.00     0.014 A 
BRANCH  16  21
ATOM     21  C   UNL d   1     -50.657  14.603  22.745  0.00  0.00     0.212 C 
ATOM     22  O   UNL d   1     -51.062  14.297  23.379  0.00  0.00    -0.644 OA
ATOM     23  O   UNL d   1     -50.794  15.370  22.389  0.00  0.00    -0.644 OA
ENDBRANCH  16  21
ENDBRANCH   1  14
TORSDOF 4
ENDMDL
MODEL 2
REMARK VINA RESULT:      -8.1      2.030      4.246
REMARK  4 active torsions:
REMARK  status: ('A' for Active; 'I' for Inactive)
REMARK    1  A    between atoms: N_2  and  S_1 
REMARK    2  A    between atoms: C_5  and  S_1 
REMARK    3  A    between atoms: C_4  and  N_2 
REMARK    4  A    between atoms: C_7  and  C_3 
ROOT
ATOM      1  S   UNL d   1     -48.731  11.834  22.869  0.00  0.00     0.285 S 
ATOM      2  O   UNL d   1     -48.903  12.326  23.532  0.00  0.00    -0.198 OA
ATOM      3  O   UNL d   1     -48.563  11.336  22.198  0.00  0.00    -0.198 OA
ENDROOT
BRANCH   1   4
ATOM      4  N   UNL d   1     -49.549  11.833  22.658  0.00  0.00    -0.158 NA
BRANCH   4   5
ATOM      5  C   UNL d   1     -49.931  12.530  22.376  0.00  0.00     0.094 A 
ATOM      6  C   UNL d   1     -49.905  12.702  21.609  0.00  0.00     0.018 A 
ATOM      7  C   UNL d   1     -50.263  13.373  21.284  0.00  0.00     0.002 A 
ATOM      8  C   UNL d   1     -49.507  12.183  21.156  0.00  0.00     0.002 C 
ATOM      9  C   UNL d   1     -50.678  13.898  21.810  0.00  0.00     0.000 A 
ATOM     10  C   UNL d   1     -50.679  13.686  22.580  0.00  0.00     0.002 A 
ATOM     11  C   UNL d   1     -51.064  14.585  21.589  0.00  0.00     0.000 C 
ATOM     12  C   UNL d   1     -50.321  13.013  22.912  0.00  0.00     0.018 A 
ATOM     13  C   UNL d   1     -50.360  12.858  23.698  0.00  0.00     0.002 C 
ENDBRANCH   4   5
ENDBRANCH   1   4
BRANCH   1  14
ATOM     14  C   UNL d   1     -47.904  11.836  23.084  0.00  0.00     0.106 A 
ATOM     15  C   UNL d   1     -47.462  12.512  22.882  0.00  0.00     0.020 A 
ATOM     16  C   UNL d   1     -46.662  12.531  23.083  0.00  0.00     0.076 A 
ATOM     17  C   UNL d   1     -46.307  11.897  23.473  0.00  0.00     0.064 A 
ATOM     18  C   UNL d   1     -46.745  11.232  23.671  0.00  0.00     0.012 A 
ATOM     19 CL   UNL d   1     -45.497  11.930  23.670  0.00  0.00    -0.082 Cl
ATOM     20  C   UNL d   1     -47.532  11.172  23.493  0.00  0.00     0.014 A 
BRANCH  16  21
ATOM     21  C   UNL d   1     -46.214  13.211  22.882  0.00  0.00     0.212 C 
ATOM     22  O   UNL d   1     -46.274  13.816  23.418  0.00  0.00    -0.644 OA
ATOM     23  O   UNL d   1     -45.747  13.225  22.163  0.00  0.00    -0.644 OA
ENDBRANCH  16  21
ENDBRANCH   1  14
TORSDOF 4
ENDMDL
MODEL 3
REMARK VINA RESULT:      -7.9      1.906      4.217
REMARK  4 active torsions:
REMARK  status: ('A' for Active; 'I' for Inactive)
REMARK    1  A    between atoms: N_2  and  S_1 
REMARK    2  A    between atoms: C_5  and  S_1 
REMARK    3  A    between atoms: C_4  and  N_2 
REMARK    4  A    between atoms: C_7  and  C_3 
ROOT
ATOM      1  S   UNL d   1     -49.027  12.664  22.745  0.00  0.00     0.285 S 
ATOM      2  O   UNL d   1     -48.667  13.057  22.091  0.00  0.00    -0.198 OA
ATOM      3  O   UNL d   1     -49.395  12.270  23.404  0.00  0.00    -0.198 OA
ENDROOT
BRANCH   1   4
ATOM      4  N   UNL d   1     -49.784  12.941  22.494  0.00  0.00    -0.158 NA
BRANCH   4   5
ATOM      5  C   UNL d   1     -50.108  13.662  22.788  0.00  0.00     0.094 A 
ATOM      6  C   UNL d   1     -50.631  13.639  23.375  0.00  0.00     0.018 A 
ATOM      7  C   UNL d   1     -50.977  14.318  23.698  0.00  0.00     0.002 A 
ATOM      8  C   UNL d   1     -50.811  12.913  23.645  0.00  0.00     0.002 C 
ATOM      9  C   UNL d   1     -50.753  15.072  23.376  0.00  0.00     0.000 A 
ATOM     10  C   UNL d   1     -50.220  15.049  22.782  0.00  0.00     0.002 A 
ATOM     11  C   UNL d   1     -51.036  15.799  23.624  0.00  0.00     0.000 C 
ATOM     12  C   UNL d   1     -49.869  14.371  22.453  0.00  0.00     0.018 A 
ATOM     13  C   UNL d   1     -49.337  14.418  21.854  0.00  0.00     0.002 C 
ENDBRANCH   4   5
ENDBRANCH   1   4
BRANCH   1  14
ATOM     14  C   UNL d   1     -48.259  12.385  22.997  0.00  0.00     0.106 A 
ATOM     15  C   UNL d   1     -47.611  12.892  22.869  0.00  0.00     0.020 A 
ATOM     16  C   UNL d   1     -46.863  12.638  23.107  0.00  0.00     0.076 A 
ATOM     17  C   UNL d   1     -46.758  11.902  23.462  0.00  0.00     0.064 A 
ATOM     18  C   UNL d   1     -47.398  11.404  23.587  0.00  0.00     0.012 A 
ATOM     19 CL   UNL d   1     -45.995  11.658  23.697  0.00  0.00    -0.082 Cl
ATOM     20  C   UNL d   1     -48.149  11.614  23.370  0.00  0.00     0.014 A 
BRANCH  16  21
ATOM     21  C   UNL d   1     -46.209  13.147  22.979  0.00  0.00     0.212 C 
ATOM     22  O   UNL d   1     -46.015  13.603  23.621  0.00  0.00    -0.644 OA
ATOM     23  O   UNL d   1     -45.805  13.154  22.223  0.00  0.00    -0.644 OA
ENDBRANCH  16  21
ENDBRANCH   1  14
TORSDOF 4
ENDMDL
MODEL 4
REMARK VINA RESULT:      -6.4      8.092      9.271
REMARK  4 active torsions:
REMARK  status: ('A' for Active; 'I' for Inactive)
REMARK    1  A    between atoms: N_2  and  S_1 
REMARK    2  A    between atoms: C_5  and  S_1 
REMARK    3  A    between atoms: C_4  and  N_2 
REMARK    4  A    between atoms: C_7  and  C_3 
ROOT
ATOM      1  S   UNL d   1     -40.005  14.983  19.676  0.00  0.00     0.285 S 
ATOM      2  O   UNL d   1     -39.356  15.517  19.611  0.00  0.00    -0.198 OA
ATOM      3  O   UNL d   1     -40.661  14.444  19.746  0.00  0.00    -0.198 OA
ENDROOT
BRANCH   1   4
ATOM      4  N   UNL d   1     -40.123  15.223  20.476  0.00  0.00    -0.158 NA
BRANCH   4   5
ATOM      5  C   UNL d   1     -39.714  14.848  21.112  0.00  0.00     0.094 A 
ATOM      6  C   UNL d   1     -40.037  14.221  21.462  0.00  0.00     0.018 A 
ATOM      7  C   UNL d   1     -39.676  13.819  22.089  0.00  0.00     0.002 A 
ATOM      8  C   UNL d   1     -40.741  13.993  21.173  0.00  0.00     0.002 C 
ATOM      9  C   UNL d   1     -38.922  14.101  22.363  0.00  0.00     0.000 A 
ATOM     10  C   UNL d   1     -38.632  14.739  21.980  0.00  0.00     0.002 A 
ATOM     11  C   UNL d   1     -38.486  13.776  22.974  0.00  0.00     0.000 C 
ATOM     12  C   UNL d   1     -38.989  15.147  21.350  0.00  0.00     0.018 A 
ATOM     13  C   UNL d   1     -38.642  15.784  21.008  0.00  0.00     0.002 C 
ENDBRANCH   4   5
ENDBRANCH   1   4
BRANCH   1  14
ATOM     14  C   UNL d   1     -39.884  14.741  18.865  0.00  0.00     0.106 A 
ATOM     15  C   UNL d   1     -40.312  15.151  18.279  0.00  0.00     0.020 A 
ATOM     16  C   UNL d   1     -40.206  14.930  17.492  0.00  0.00     0.076 A 
ATOM     17  C   UNL d   1     -39.691  14.319  17.287  0.00  0.00     0.064 A 
ATOM     18  C   UNL d   1     -39.271  13.917  17.866  0.00  0.00     0.012 A 
ATOM     19 CL   UNL d   1     -39.595  14.107  16.486  0.00  0.00    -0.082 Cl
ATOM     20  C   UNL d   1     -39.345  14.101  18.650  0.00  0.00     0.014 A 
BRANCH  16  21
ATOM     21  C   UNL d   1     -40.636  15.340  16.900  0.00  0.00     0.212 C 
ATOM     22  O   UNL d   1     -40.209  15.921  16.526  0.00  0.00    -0.644 OA
ATOM     23  O   UNL d   1     -41.451  15.136  16.734  0.00  0.00    -0.644 OA
ENDBRANCH  16  21
ENDBRANCH   1  14
TORSDOF 4
ENDMDL
MODEL 5
REMARK VINA RESULT:      -6.4      8.349      9.680
REMARK  4 active torsions:
REMARK  status: ('A' for Active; 'I' for Inactive)
REMARK    1  A    between atoms: N_2  and  S_1 
REMARK    2  A    between atoms: C_5  and  S_1 
REMARK    3  A    between atoms: C_4  and  N_2 
REMARK    4  A    between atoms: C_7  and  C_3 
ROOT
ATOM      1  S   UNL d   1     -40.411  14.492  18.820  0.00  0.00     0.285 S 
ATOM      2  O   UNL d   1     -40.358  15.246  18.446  0.00  0.00    -0.198 OA
ATOM      3  O   UNL d   1     -40.464  13.728  19.194  0.00  0.00    -0.198 OA
ENDROOT
BRANCH   1   4
ATOM      4  N   UNL d   1     -40.454  14.120  18.064  0.00  0.00    -0.158 NA
BRANCH   4   5
ATOM      5  C   UNL d   1     -39.850  14.229  17.485  0.00  0.00     0.094 A 
ATOM      6  C   UNL d   1     -39.936  14.788  16.939  0.00  0.00     0.018 A 
ATOM      7  C   UNL d   1     -39.373  14.934  16.351  0.00  0.00     0.002 A 
ATOM      8  C   UNL d   1     -40.607  15.212  16.985  0.00  0.00     0.002 C 
ATOM      9  C   UNL d   1     -38.671  14.455  16.342  0.00  0.00     0.000 A 
ATOM     10  C   UNL d   1     -38.625  13.899  16.914  0.00  0.00     0.002 A 
ATOM     11  C   UNL d   1     -38.057  14.519  15.805  0.00  0.00     0.000 C 
ATOM     12  C   UNL d   1     -39.187  13.748  17.507  0.00  0.00     0.018 A 
ATOM     13  C   UNL d   1     -39.078  13.172  18.055  0.00  0.00     0.002 C 
ENDBRANCH   4   5
ENDBRANCH   1   4
BRANCH   1  14
ATOM     14  C   UNL d   1     -40.367  14.871  19.585  0.00  0.00     0.106 A 
ATOM     15  C   UNL d   1     -39.723  14.668  20.072  0.00  0.00     0.020 A 
ATOM     16  C   UNL d   1     -39.666  15.025  20.814  0.00  0.00     0.076 A 
ATOM     17  C   UNL d   1     -40.231  15.569  21.068  0.00  0.00     0.064 A 
ATOM     18  C   UNL d   1     -40.864  15.768  20.586  0.00  0.00     0.012 A 
ATOM     19 CL   UNL d   1     -40.159  15.922  21.821  0.00  0.00    -0.082 Cl
ATOM     20  C   UNL d   1     -40.959  15.441  19.852  0.00  0.00     0.014 A 
BRANCH  16  21
ATOM     21  C   UNL d   1     -39.018  14.822  21.307  0.00  0.00     0.212 C 
ATOM     22  O   UNL d   1     -38.345  15.250  21.159  0.00  0.00    -0.644 OA
ATOM     23  O   UNL d   1     -39.101  14.212  21.903  0.00  0.00    -0.644 OA
ENDBRANCH  16  21
ENDBRANCH   1  14
TORSDOF 4
ENDMDL
