MODEL 1
REMARK VINA RESULT:      19.0      0.000      0.000
REMARK  3 active torsions:
REMARK  status: ('A' for Active; 'I' for Inactive)
REMARK    1  A    between atoms: C_7  and  C_2 
REMARK       I    between atoms: N_9  and  C_7 
REMARK    2  A    between atoms: C_12  and  N_9 
REMARK    3  A    between atoms: C_11  and  C_12 
ROOT
ATOM      1  C   UNL d   1      46.250 -17.130  42.944  0.00  0.00     0.285 C 
ATOM      2  N   UNL d   1      46.043 -16.375  43.205  0.00  0.00    -0.206 NA
ATOM      3  O   UNL d   1      46.444 -17.257  42.153  0.00  0.00    -0.265 OA
ENDROOT
BRANCH   1   4
ATOM      4  C   UNL d   1      46.262 -17.766  43.481  0.00  0.00     0.133 A 
ATOM      5  C   UNL d   1      46.311 -18.547  43.211  0.00  0.00     0.272 A 
ATOM      6  N   UNL d   1      46.323 -19.162  43.744  0.00  0.00    -0.252 N 
ATOM      7  O   UNL d   1      46.348 -18.698  42.401  0.00  0.00    -0.266 OA
ATOM      8  C   UNL d   1      46.286 -19.011  44.552  0.00  0.00     0.182 A 
ATOM      9  C   UNL d   1      46.367 -19.978  43.645  0.00  0.00     0.092 A 
ATOM     10  N   UNL d   1      46.237 -18.246  44.827  0.00  0.00    -0.220 NA
ATOM     11  S   UNL d   1      46.307 -19.734  44.955  0.00  0.00    -0.048 SA
ATOM     12  C   UNL d   1      46.225 -17.615  44.289  0.00  0.00     0.111 A 
ATOM     13  C   UNL d   1      46.358 -20.330  44.391  0.00  0.00     0.057 A 
ENDBRANCH   1   4
BRANCH   2  14
ATOM     14  C   UNL d   1      45.850 -16.252  43.996  0.00  0.00     0.103 C 
BRANCH  14  15
ATOM     15  C   UNL d   1      45.754 -15.485  44.274  0.00  0.00     0.030 A 
ATOM     16  C   UNL d   1      45.062 -15.270  44.676  0.00  0.00     0.059 A 
ATOM     17 CL   UNL d   1      44.469 -15.828  44.796  0.00  0.00    -0.082 Cl
ATOM     18  C   UNL d   1      44.961 -14.508  44.954  0.00  0.00     0.011 A 
ATOM     19  C   UNL d   1      45.557 -13.941  44.835  0.00  0.00     0.001 A 
ATOM     20  C   UNL d   1      46.247 -14.153  44.435  0.00  0.00     0.000 A 
ATOM     21  C   UNL d   1      46.347 -14.926  44.153  0.00  0.00     0.002 A 
ENDBRANCH  14  15
ENDBRANCH   2  14
TORSDOF 3
ENDMDL
MODEL 2
REMARK VINA RESULT:      19.7      2.344      4.402
REMARK  3 active torsions:
REMARK  status: ('A' for Active; 'I' for Inactive)
REMARK    1  A    between atoms: C_7  and  C_2 
REMARK       I    between atoms: N_9  and  C_7 
REMARK    2  A    between atoms: C_12  and  N_9 
REMARK    3  A    between atoms: C_11  and  C_12 
ROOT
ATOM      1  C   UNL d   1      44.687 -15.829  44.668  0.00  0.00     0.285 C 
ATOM      2  N   UNL d   1      44.977 -16.557  44.410  0.00  0.00    -0.206 NA
ATOM      3  O   UNL d   1      43.909 -15.761  44.932  0.00  0.00    -0.265 OA
ENDROOT
BRANCH   1   4
ATOM      4  C   UNL d   1      45.182 -15.160  44.661  0.00  0.00     0.133 A 
ATOM      5  C   UNL d   1      44.911 -14.436  44.363  0.00  0.00     0.272 A 
ATOM      6  N   UNL d   1      45.403 -13.787  44.361  0.00  0.00    -0.252 N 
ATOM      7  O   UNL d   1      44.144 -14.377  44.069  0.00  0.00    -0.266 OA
ATOM      8  C   UNL d   1      46.170 -13.847  44.654  0.00  0.00     0.182 A 
ATOM      9  C   UNL d   1      45.293 -13.012  44.106  0.00  0.00     0.092 A 
ATOM     10  N   UNL d   1      46.445 -14.555  44.949  0.00  0.00    -0.220 NA
ATOM     11  S   UNL d   1      46.536 -13.108  44.581  0.00  0.00    -0.048 SA
ATOM     12  C   UNL d   1      45.949 -15.219  44.954  0.00  0.00     0.111 A 
ATOM     13  C   UNL d   1      45.992 -12.594  44.242  0.00  0.00     0.057 A 
ENDBRANCH   1   4
BRANCH   2  14
ATOM     14  C   UNL d   1      45.754 -16.620  44.147  0.00  0.00     0.103 C 
BRANCH  14  15
ATOM     15  C   UNL d   1      45.987 -17.290  43.733  0.00  0.00     0.030 A 
ATOM     16  C   UNL d   1      46.305 -17.941  44.136  0.00  0.00     0.059 A 
ATOM     17 CL   UNL d   1      46.386 -17.914  44.955  0.00  0.00    -0.082 Cl
ATOM     18  C   UNL d   1      46.538 -18.611  43.730  0.00  0.00     0.011 A 
ATOM     19  C   UNL d   1      46.457 -18.642  42.902  0.00  0.00     0.001 A 
ATOM     20  C   UNL d   1      46.141 -17.996  42.499  0.00  0.00     0.000 A 
ATOM     21  C   UNL d   1      45.905 -17.318  42.913  0.00  0.00     0.002 A 
ENDBRANCH  14  15
ENDBRANCH   2  14
TORSDOF 3
ENDMDL
