MODEL 1
REMARK VINA RESULT:      -1.8      0.000      0.000
REMARK  5 active torsions:
REMARK  status: ('A' for Active; 'I' for Inactive)
REMARK    1  A    between atoms: C_3  and  C_1 
REMARK    2  A    between atoms: C_9  and  N_2 
REMARK    3  A    between atoms: C_7  and  C_3 
REMARK    4  A    between atoms: C_8  and  C_3 
REMARK    5  A    between atoms: C_20  and  C_6 
ROOT
ATOM      1  C   UNL d   1      59.556  -0.658  29.508  0.00  0.00     0.103 A 
ATOM      2  N   UNL d   1      58.827  -0.570  29.885  0.00  0.00    -0.269 N 
ATOM      3  S   UNL d   1      59.550  -1.371  29.084  0.00  0.00    -0.064 SA
ATOM      4  C   UNL d   1      58.366  -1.228  29.697  0.00  0.00     0.271 A 
ATOM      5  C   UNL d   1      58.806  -1.724  29.204  0.00  0.00     0.087 A 
ATOM      6  O   UNL d   1      57.590  -1.372  29.956  0.00  0.00    -0.266 OA
ENDROOT
BRANCH   2   7
ATOM      7  C   UNL d   1      58.217  -0.258  30.344  0.00  0.00     0.068 A 
ATOM      8  C   UNL d   1      58.059  -0.584  31.083  0.00  0.00     0.020 A 
ATOM      9  C   UNL d   1      57.449  -0.272  31.542  0.00  0.00     0.031 A 
ATOM     10  C   UNL d   1      57.008   0.361  31.254  0.00  0.00     0.140 A 
ATOM     11  C   UNL d   1      57.171   0.681  30.516  0.00  0.00     0.031 A 
ATOM     12  F   UNL d   1      56.393   0.675  31.717  0.00  0.00    -0.204 F 
ATOM     13  C   UNL d   1      57.780   0.372  30.056  0.00  0.00     0.020 A 
ENDBRANCH   2   7
BRANCH   1  14
ATOM     14  C   UNL d   1      60.194  -0.129  29.541  0.00  0.00     0.103 C 
BRANCH  14  15
ATOM     15  C   UNL d   1      60.817  -0.280  30.062  0.00  0.00     0.300 C 
ATOM     16  O   UNL d   1      61.132  -1.046  30.131  0.00  0.00    -0.264 OA
ATOM     17  N   UNL d   1      61.132   0.336  30.521  0.00  0.00    -0.102 N 
ENDBRANCH  14  15
BRANCH  14  18
ATOM     18  C   UNL d   1      60.207   0.536  29.063  0.00  0.00     0.129 C 
ATOM     19  N   UNL d   1      60.767   0.600  28.456  0.00  0.00    -0.146 N 
ENDBRANCH  14  18
ENDBRANCH   1  14
BRANCH   5  20
ATOM     20  C   UNL d   1      58.555  -2.442  28.886  0.00  0.00     0.011 C 
ATOM     21  C   UNL d   1      59.111  -2.968  28.567  0.00  0.00     0.001 C 
ENDBRANCH   5  20
TORSDOF 5
ENDMDL
MODEL 2
REMARK VINA RESULT:      -1.8      1.972      3.037
REMARK  5 active torsions:
REMARK  status: ('A' for Active; 'I' for Inactive)
REMARK    1  A    between atoms: C_3  and  C_1 
REMARK    2  A    between atoms: C_9  and  N_2 
REMARK    3  A    between atoms: C_7  and  C_3 
REMARK    4  A    between atoms: C_8  and  C_3 
REMARK    5  A    between atoms: C_20  and  C_6 
ROOT
ATOM      1  C   UNL d   1      58.038  -0.034  30.970  0.00  0.00     0.103 A 
ATOM      2  N   UNL d   1      57.523   0.022  31.612  0.00  0.00    -0.269 N 
ATOM      3  S   UNL d   1      58.795   0.198  31.218  0.00  0.00    -0.064 SA
ATOM      4  C   UNL d   1      57.957   0.289  32.261  0.00  0.00     0.271 A 
ATOM      5  C   UNL d   1      58.741   0.399  32.024  0.00  0.00     0.087 A 
ATOM      6  O   UNL d   1      57.663   0.426  33.025  0.00  0.00    -0.266 OA
ENDROOT
BRANCH   2   7
ATOM      7  C   UNL d   1      56.836  -0.009  32.069  0.00  0.00     0.068 A 
ATOM      8  C   UNL d   1      56.599  -0.727  32.394  0.00  0.00     0.020 A 
ATOM      9  C   UNL d   1      55.913  -0.758  32.850  0.00  0.00     0.031 A 
ATOM     10  C   UNL d   1      55.476  -0.071  32.973  0.00  0.00     0.140 A 
ATOM     11  C   UNL d   1      55.719   0.642  32.646  0.00  0.00     0.031 A 
ATOM     12  F   UNL d   1      54.784  -0.103  33.433  0.00  0.00    -0.204 F 
ATOM     13  C   UNL d   1      56.404   0.676  32.190  0.00  0.00     0.020 A 
ENDBRANCH   2   7
BRANCH   1  14
ATOM     14  C   UNL d   1      57.843  -0.280  30.202  0.00  0.00     0.103 C 
BRANCH  14  15
ATOM     15  C   UNL d   1      58.050  -1.042  29.958  0.00  0.00     0.300 C 
ATOM     16  O   UNL d   1      57.552  -1.687  30.124  0.00  0.00    -0.264 OA
ATOM     17  N   UNL d   1      58.759  -1.166  29.544  0.00  0.00    -0.102 N 
ENDBRANCH  14  15
BRANCH  14  18
ATOM     18  C   UNL d   1      57.450   0.226  29.691  0.00  0.00     0.129 C 
ATOM     19  N   UNL d   1      57.858   0.578  29.062  0.00  0.00    -0.146 N 
ENDBRANCH  14  18
ENDBRANCH   1  14
BRANCH   5  20
ATOM     20  C   UNL d   1      59.362   0.661  32.499  0.00  0.00     0.011 C 
ATOM     21  C   UNL d   1      60.133   0.682  32.195  0.00  0.00     0.001 C 
ENDBRANCH   5  20
TORSDOF 5
ENDMDL
MODEL 3
REMARK VINA RESULT:      -0.7      3.082      4.919
REMARK  5 active torsions:
REMARK  status: ('A' for Active; 'I' for Inactive)
REMARK    1  A    between atoms: C_3  and  C_1 
REMARK    2  A    between atoms: C_9  and  N_2 
REMARK    3  A    between atoms: C_7  and  C_3 
REMARK    4  A    between atoms: C_8  and  C_3 
REMARK    5  A    between atoms: C_20  and  C_6 
ROOT
ATOM      1  C   UNL d   1      56.510  -0.061  33.248  0.00  0.00     0.103 A 
ATOM      2  N   UNL d   1      56.972   0.061  32.576  0.00  0.00    -0.269 N 
ATOM      3  S   UNL d   1      56.952   0.155  33.916  0.00  0.00    -0.064 SA
ATOM      4  C   UNL d   1      57.703   0.353  32.823  0.00  0.00     0.271 A 
ATOM      5  C   UNL d   1      57.696   0.414  33.647  0.00  0.00     0.087 A 
ATOM      6  O   UNL d   1      58.341   0.555  32.331  0.00  0.00    -0.266 OA
ENDROOT
BRANCH   2   7
ATOM      7  C   UNL d   1      57.212   0.090  31.787  0.00  0.00     0.068 A 
ATOM      8  C   UNL d   1      57.772  -0.448  31.515  0.00  0.00     0.020 A 
ATOM      9  C   UNL d   1      58.012  -0.419  30.726  0.00  0.00     0.031 A 
ATOM     10  C   UNL d   1      57.689   0.147  30.225  0.00  0.00     0.140 A 
ATOM     11  C   UNL d   1      57.130   0.681  30.503  0.00  0.00     0.031 A 
ATOM     12  F   UNL d   1      57.931   0.177  29.430  0.00  0.00    -0.204 F 
ATOM     13  C   UNL d   1      56.889   0.654  31.290  0.00  0.00     0.020 A 
ENDBRANCH   2   7
BRANCH   1  14
ATOM     14  C   UNL d   1      55.733  -0.351  33.266  0.00  0.00     0.103 C 
BRANCH  14  15
ATOM     15  C   UNL d   1      55.127   0.136  33.545  0.00  0.00     0.300 C 
ATOM     16  O   UNL d   1      54.528   0.399  33.033  0.00  0.00    -0.264 OA
ATOM     17  N   UNL d   1      55.116   0.366  34.343  0.00  0.00    -0.102 N 
ENDBRANCH  14  15
BRANCH  14  18
ATOM     18  C   UNL d   1      55.567  -1.111  33.010  0.00  0.00     0.129 C 
ATOM     19  N   UNL d   1      55.207  -1.653  33.523  0.00  0.00    -0.146 N 
ENDBRANCH  14  18
ENDBRANCH   1  14
BRANCH   5  20
ATOM     20  C   UNL d   1      58.316   0.682  34.120  0.00  0.00     0.011 C 
ATOM     21  C   UNL d   1      58.251   0.636  34.946  0.00  0.00     0.001 C 
ENDBRANCH   5  20
TORSDOF 5
ENDMDL
MODEL 4
REMARK VINA RESULT:      -0.5      1.246      2.237
REMARK  5 active torsions:
REMARK  status: ('A' for Active; 'I' for Inactive)
REMARK    1  A    between atoms: C_3  and  C_1 
REMARK    2  A    between atoms: C_9  and  N_2 
REMARK    3  A    between atoms: C_7  and  C_3 
REMARK    4  A    between atoms: C_8  and  C_3 
REMARK    5  A    between atoms: C_20  and  C_6 
ROOT
ATOM      1  C   UNL d   1      59.380  -1.238  29.163  0.00  0.00     0.103 A 
ATOM      2  N   UNL d   1      58.942  -0.731  29.645  0.00  0.00    -0.269 N 
ATOM      3  S   UNL d   1      60.028  -0.819  28.859  0.00  0.00    -0.064 SA
ATOM      4  C   UNL d   1      59.317   0.005  29.643  0.00  0.00     0.271 A 
ATOM      5  C   UNL d   1      59.986  -0.044  29.160  0.00  0.00     0.087 A 
ATOM      6  O   UNL d   1      59.068   0.682  30.054  0.00  0.00    -0.266 OA
ENDROOT
BRANCH   2   7
ATOM      7  C   UNL d   1      58.357  -0.445  30.153  0.00  0.00     0.068 A 
ATOM      8  C   UNL d   1      58.382  -0.645  30.951  0.00  0.00     0.020 A 
ATOM      9  C   UNL d   1      57.798  -0.360  31.458  0.00  0.00     0.031 A 
ATOM     10  C   UNL d   1      57.200   0.119  31.159  0.00  0.00     0.140 A 
ATOM     11  C   UNL d   1      57.181   0.314  30.361  0.00  0.00     0.031 A 
ATOM     12  F   UNL d   1      56.610   0.406  31.670  0.00  0.00    -0.204 F 
ATOM     13  C   UNL d   1      57.763   0.031  29.853  0.00  0.00     0.020 A 
ENDBRANCH   2   7
BRANCH   1  14
ATOM     14  C   UNL d   1      59.209  -2.034  29.003  0.00  0.00     0.103 C 
BRANCH  14  15
ATOM     15  C   UNL d   1      59.758  -2.614  29.215  0.00  0.00     0.300 C 
ATOM     16  O   UNL d   1      60.366  -2.831  28.692  0.00  0.00    -0.264 OA
ATOM     17  N   UNL d   1      59.702  -2.984  29.956  0.00  0.00    -0.102 N 
ENDBRANCH  14  15
BRANCH  14  18
ATOM     18  C   UNL d   1      58.506  -2.242  28.638  0.00  0.00     0.129 C 
ATOM     19  N   UNL d   1      58.337  -3.040  28.489  0.00  0.00    -0.146 N 
ENDBRANCH  14  18
ENDBRANCH   1  14
BRANCH   5  20
ATOM     20  C   UNL d   1      60.518   0.565  29.004  0.00  0.00     0.011 C 
ATOM     21  C   UNL d   1      61.133   0.444  28.460  0.00  0.00     0.001 C 
ENDBRANCH   5  20
TORSDOF 5
ENDMDL
MODEL 5
REMARK VINA RESULT:       0.5      2.366      3.746
REMARK  5 active torsions:
REMARK  status: ('A' for Active; 'I' for Inactive)
REMARK    1  A    between atoms: C_3  and  C_1 
REMARK    2  A    between atoms: C_9  and  N_2 
REMARK    3  A    between atoms: C_7  and  C_3 
REMARK    4  A    between atoms: C_8  and  C_3 
REMARK    5  A    between atoms: C_20  and  C_6 
ROOT
ATOM      1  C   UNL d   1      57.689   0.231  31.842  0.00  0.00     0.103 A 
ATOM      2  N   UNL d   1      57.087   0.158  32.402  0.00  0.00    -0.269 N 
ATOM      3  S   UNL d   1      58.391   0.437  32.234  0.00  0.00    -0.064 SA
ATOM      4  C   UNL d   1      57.412   0.318  33.143  0.00  0.00     0.271 A 
ATOM      5  C   UNL d   1      58.214   0.491  33.046  0.00  0.00     0.087 A 
ATOM      6  O   UNL d   1      57.006   0.309  33.868  0.00  0.00    -0.266 OA
ENDROOT
BRANCH   2   7
ATOM      7  C   UNL d   1      56.346   0.027  32.740  0.00  0.00     0.068 A 
ATOM      8  C   UNL d   1      55.909   0.668  33.016  0.00  0.00     0.020 A 
ATOM      9  C   UNL d   1      55.168   0.539  33.354  0.00  0.00     0.031 A 
ATOM     10  C   UNL d   1      54.878  -0.229  33.411  0.00  0.00     0.140 A 
ATOM     11  C   UNL d   1      55.319  -0.864  33.134  0.00  0.00     0.031 A 
ATOM     12  F   UNL d   1      54.131  -0.360  33.752  0.00  0.00    -0.204 F 
ATOM     13  C   UNL d   1      56.059  -0.737  32.796  0.00  0.00     0.020 A 
ENDBRANCH   2   7
BRANCH   1  14
ATOM     14  C   UNL d   1      57.616   0.120  31.023  0.00  0.00     0.103 C 
BRANCH  14  15
ATOM     15  C   UNL d   1      57.940  -0.558  30.678  0.00  0.00     0.300 C 
ATOM     16  O   UNL d   1      57.574  -1.298  30.780  0.00  0.00    -0.264 OA
ATOM     17  N   UNL d   1      58.635  -0.502  30.228  0.00  0.00    -0.102 N 
ENDBRANCH  14  15
BRANCH  14  18
ATOM     18  C   UNL d   1      57.229   0.674  30.561  0.00  0.00     0.129 C 
ATOM     19  N   UNL d   1      57.025   0.493  29.779  0.00  0.00    -0.146 N 
ENDBRANCH  14  18
ENDBRANCH   1  14
BRANCH   5  20
ATOM     20  C   UNL d   1      58.747   0.682  33.645  0.00  0.00     0.011 C 
ATOM     21  C   UNL d   1      59.546   0.472  33.567  0.00  0.00     0.001 C 
ENDBRANCH   5  20
TORSDOF 5
ENDMDL
