MODEL 1
REMARK VINA RESULT:      -7.7      0.000      0.000
REMARK  1 active torsions:
REMARK  status: ('A' for Active; 'I' for Inactive)
REMARK    1  A    between atoms: C_7  and  C_1 
ROOT
ATOM      1  C   UNL d   1     -46.834  12.922  23.085  0.00  0.00     0.102 A 
ATOM      2  C   UNL d   1     -46.687  12.213  23.486  0.00  0.00     0.303 A 
ATOM      3  C   UNL d   1     -47.613  13.125  22.891  0.00  0.00     0.011 A 
ATOM      4  O   UNL d   1     -47.320  11.707  23.693  0.00  0.00    -0.273 OA
ATOM      5  C   UNL d   1     -48.236  12.635  23.090  0.00  0.00     0.023 A 
ATOM      6  C   UNL d   1     -48.089  11.926  23.491  0.00  0.00     0.103 A 
ATOM      7  O   UNL d   1     -45.895  11.999  23.688  0.00  0.00    -0.259 OA
ATOM      8  C   UNL d   1     -49.002  12.840  22.896  0.00  0.00     0.002 A 
ATOM      9  C   UNL d   1     -48.709  11.422  23.698  0.00  0.00     0.025 A 
ATOM     10  C   UNL d   1     -49.620  12.351  23.095  0.00  0.00     0.000 A 
ATOM     11  C   UNL d   1     -49.474  11.643  23.496  0.00  0.00     0.002 A 
ENDROOT
BRANCH   1  12
ATOM     12  C   UNL d   1     -46.188  13.417  22.886  0.00  0.00     0.201 C 
ATOM     13  O   UNL d   1     -45.980  14.031  23.400  0.00  0.00    -0.286 OA
ATOM     14  C   UNL d   1     -45.762  13.302  22.197  0.00  0.00     0.045 C 
ENDBRANCH   1  12
TORSDOF 1
ENDMDL
MODEL 2
REMARK VINA RESULT:      -7.5      0.984      2.832
REMARK  1 active torsions:
REMARK  status: ('A' for Active; 'I' for Inactive)
REMARK    1  A    between atoms: C_7  and  C_1 
ROOT
ATOM      1  C   UNL d   1     -48.743  12.164  23.128  0.00  0.00     0.102 A 
ATOM      2  C   UNL d   1     -48.135  11.688  23.424  0.00  0.00     0.303 A 
ATOM      3  C   UNL d   1     -48.573  12.939  22.890  0.00  0.00     0.011 A 
ATOM      4  O   UNL d   1     -47.356  11.987  23.481  0.00  0.00    -0.273 OA
ATOM      5  C   UNL d   1     -47.814  13.237  22.943  0.00  0.00     0.023 A 
ATOM      6  C   UNL d   1     -47.206  12.761  23.239  0.00  0.00     0.103 A 
ATOM      7  O   UNL d   1     -48.300  10.896  23.670  0.00  0.00    -0.259 OA
ATOM      8  C   UNL d   1     -47.652  14.002  22.707  0.00  0.00     0.002 A 
ATOM      9  C   UNL d   1     -46.435  13.050  23.298  0.00  0.00     0.025 A 
ATOM     10  C   UNL d   1     -46.897  14.296  22.761  0.00  0.00     0.000 A 
ATOM     11  C   UNL d   1     -46.288  13.820  23.056  0.00  0.00     0.002 A 
ENDROOT
BRANCH   1  12
ATOM     12  C   UNL d   1     -49.518  11.848  23.078  0.00  0.00     0.201 C 
ATOM     13  O   UNL d   1     -49.747  11.458  22.386  0.00  0.00    -0.286 OA
ATOM     14  C   UNL d   1     -50.046  11.920  23.698  0.00  0.00     0.045 C 
ENDBRANCH   1  12
TORSDOF 1
ENDMDL
MODEL 3
REMARK VINA RESULT:      -7.5      1.410      1.919
REMARK  1 active torsions:
REMARK  status: ('A' for Active; 'I' for Inactive)
REMARK    1  A    between atoms: C_7  and  C_1 
ROOT
ATOM      1  C   UNL d   1     -47.148  13.624  22.945  0.00  0.00     0.102 A 
ATOM      2  C   UNL d   1     -47.658  12.991  23.099  0.00  0.00     0.303 A 
ATOM      3  C   UNL d   1     -47.467  14.369  22.771  0.00  0.00     0.011 A 
ATOM      4  O   UNL d   1     -48.486  13.102  23.080  0.00  0.00    -0.273 OA
ATOM      5  C   UNL d   1     -48.275  14.484  22.751  0.00  0.00     0.023 A 
ATOM      6  C   UNL d   1     -48.785  13.851  22.905  0.00  0.00     0.103 A 
ATOM      7  O   UNL d   1     -47.340  12.228  23.278  0.00  0.00    -0.259 OA
ATOM      8  C   UNL d   1     -48.584  15.221  22.579  0.00  0.00     0.002 A 
ATOM      9  C   UNL d   1     -49.603  13.955  22.888  0.00  0.00     0.025 A 
ATOM     10  C   UNL d   1     -49.388  15.333  22.559  0.00  0.00     0.000 A 
ATOM     11  C   UNL d   1     -49.898  14.701  22.714  0.00  0.00     0.002 A 
ENDROOT
BRANCH   1  12
ATOM     12  C   UNL d   1     -46.321  13.494  22.969  0.00  0.00     0.201 C 
ATOM     13  O   UNL d   1     -45.928  13.542  23.695  0.00  0.00    -0.286 OA
ATOM     14  C   UNL d   1     -45.899  13.322  22.289  0.00  0.00     0.045 C 
ENDBRANCH   1  12
TORSDOF 1
ENDMDL
MODEL 4
REMARK VINA RESULT:      -7.3      2.116      3.237
REMARK  1 active torsions:
REMARK  status: ('A' for Active; 'I' for Inactive)
REMARK    1  A    between atoms: C_7  and  C_1 
ROOT
ATOM      1  C   UNL d   1     -49.014  14.677  22.927  0.00  0.00     0.102 A 
ATOM      2  C   UNL d   1     -49.235  13.896  23.090  0.00  0.00     0.303 A 
ATOM      3  C   UNL d   1     -48.215  14.855  22.805  0.00  0.00     0.011 A 
ATOM      4  O   UNL d   1     -48.656  13.294  23.129  0.00  0.00    -0.273 OA
ATOM      5  C   UNL d   1     -47.644  14.272  22.843  0.00  0.00     0.023 A 
ATOM      6  C   UNL d   1     -47.865  13.491  23.005  0.00  0.00     0.103 A 
ATOM      7  O   UNL d   1     -50.049  13.705  23.216  0.00  0.00    -0.259 OA
ATOM      8  C   UNL d   1     -46.857  14.454  22.721  0.00  0.00     0.002 A 
ATOM      9  C   UNL d   1     -47.299  12.892  23.045  0.00  0.00     0.025 A 
ATOM     10  C   UNL d   1     -46.292  13.872  22.759  0.00  0.00     0.000 A 
ATOM     11  C   UNL d   1     -46.512  13.091  22.921  0.00  0.00     0.002 A 
ENDROOT
BRANCH   1  12
ATOM     12  C   UNL d   1     -49.608  15.267  22.891  0.00  0.00     0.201 C 
ATOM     13  O   UNL d   1     -49.961  15.436  22.163  0.00  0.00    -0.286 OA
ATOM     14  C   UNL d   1     -49.841  15.675  23.560  0.00  0.00     0.045 C 
ENDBRANCH   1  12
TORSDOF 1
ENDMDL
MODEL 5
REMARK VINA RESULT:      -6.8      1.737      2.798
REMARK  1 active torsions:
REMARK  status: ('A' for Active; 'I' for Inactive)
REMARK    1  A    between atoms: C_7  and  C_1 
ROOT
ATOM      1  C   UNL d   1     -48.553  12.363  23.125  0.00  0.00     0.102 A 
ATOM      2  C   UNL d   1     -49.334  12.433  23.387  0.00  0.00     0.303 A 
ATOM      3  C   UNL d   1     -48.152  13.036  22.856  0.00  0.00     0.011 A 
ATOM      4  O   UNL d   1     -49.716  13.177  23.381  0.00  0.00    -0.273 OA
ATOM      5  C   UNL d   1     -48.519  13.766  22.847  0.00  0.00     0.023 A 
ATOM      6  C   UNL d   1     -49.300  13.837  23.109  0.00  0.00     0.103 A 
ATOM      7  O   UNL d   1     -49.750  11.751  23.663  0.00  0.00    -0.259 OA
ATOM      8  C   UNL d   1     -48.119  14.427  22.581  0.00  0.00     0.002 A 
ATOM      9  C   UNL d   1     -49.682  14.568  23.106  0.00  0.00     0.025 A 
ATOM     10  C   UNL d   1     -48.486  15.152  22.573  0.00  0.00     0.000 A 
ATOM     11  C   UNL d   1     -49.267  15.222  22.835  0.00  0.00     0.002 A 
ENDROOT
BRANCH   1  12
ATOM     12  C   UNL d   1     -48.187  11.609  23.138  0.00  0.00     0.201 C 
ATOM     13  O   UNL d   1     -48.406  11.047  22.572  0.00  0.00    -0.286 OA
ATOM     14  C   UNL d   1     -47.621  11.422  23.698  0.00  0.00     0.045 C 
ENDBRANCH   1  12
TORSDOF 1
ENDMDL
MODEL 6
REMARK VINA RESULT:      -6.1      7.977      8.747
REMARK  1 active torsions:
REMARK  status: ('A' for Active; 'I' for Inactive)
REMARK    1  A    between atoms: C_7  and  C_1 
ROOT
ATOM      1  C   UNL d   1     -40.593  15.052  18.121  0.00  0.00     0.102 A 
ATOM      2  C   UNL d   1     -40.566  14.246  18.304  0.00  0.00     0.303 A 
ATOM      3  C   UNL d   1     -40.600  15.608  18.735  0.00  0.00     0.011 A 
ATOM      4  O   UNL d   1     -40.544  13.995  19.101  0.00  0.00    -0.273 OA
ATOM      5  C   UNL d   1     -40.578  15.369  19.516  0.00  0.00     0.023 A 
ATOM      6  C   UNL d   1     -40.551  14.563  19.699  0.00  0.00     0.103 A 
ATOM      7  O   UNL d   1     -40.559  13.672  17.683  0.00  0.00    -0.259 OA
ATOM      8  C   UNL d   1     -40.585  15.922  20.118  0.00  0.00     0.002 A 
ATOM      9  C   UNL d   1     -40.529  14.309  20.484  0.00  0.00     0.025 A 
ATOM     10  C   UNL d   1     -40.564  15.682  20.894  0.00  0.00     0.000 A 
ATOM     11  C   UNL d   1     -40.536  14.876  21.077  0.00  0.00     0.002 A 
ENDROOT
BRANCH   1  12
ATOM     12  C   UNL d   1     -40.615  15.285  17.316  0.00  0.00     0.201 C 
ATOM     13  O   UNL d   1     -41.312  15.176  16.886  0.00  0.00    -0.286 OA
ATOM     14  C   UNL d   1     -39.961  15.616  16.953  0.00  0.00     0.045 C 
ENDBRANCH   1  12
TORSDOF 1
ENDMDL
MODEL 7
REMARK VINA RESULT:      -5.9      8.964     10.224
REMARK  1 active torsions:
REMARK  status: ('A' for Active; 'I' for Inactive)
REMARK    1  A    between atoms: C_7  and  C_1 
ROOT
ATOM      1  C   UNL d   1     -40.275  14.760  17.482  0.00  0.00     0.102 A 
ATOM      2  C   UNL d   1     -40.409  14.104  17.968  0.00  0.00     0.303 A 
ATOM      3  C   UNL d   1     -39.617  14.765  16.979  0.00  0.00     0.011 A 
ATOM      4  O   UNL d   1     -39.884  13.453  17.952  0.00  0.00    -0.273 OA
ATOM      5  C   UNL d   1     -39.100  14.132  16.958  0.00  0.00     0.023 A 
ATOM      6  C   UNL d   1     -39.234  13.477  17.445  0.00  0.00     0.103 A 
ATOM      7  O   UNL d   1     -41.079  14.091  18.484  0.00  0.00    -0.259 OA
ATOM      8  C   UNL d   1     -38.453  14.143  16.460  0.00  0.00     0.002 A 
ATOM      9  C   UNL d   1     -38.720  12.831  17.434  0.00  0.00     0.025 A 
ATOM     10  C   UNL d   1     -37.940  13.512  16.442  0.00  0.00     0.000 A 
ATOM     11  C   UNL d   1     -38.074  12.857  16.928  0.00  0.00     0.002 A 
ENDROOT
BRANCH   1  12
ATOM     12  C   UNL d   1     -40.811  15.403  17.511  0.00  0.00     0.201 C 
ATOM     13  O   UNL d   1     -40.843  15.868  18.195  0.00  0.00    -0.286 OA
ATOM     14  C   UNL d   1     -41.300  15.577  16.879  0.00  0.00     0.045 C 
ENDBRANCH   1  12
TORSDOF 1
ENDMDL
MODEL 8
REMARK VINA RESULT:      -5.4      7.868      8.659
REMARK  1 active torsions:
REMARK  status: ('A' for Active; 'I' for Inactive)
REMARK    1  A    between atoms: C_7  and  C_1 
ROOT
ATOM      1  C   UNL d   1     -40.700  15.404  20.021  0.00  0.00     0.102 A 
ATOM      2  C   UNL d   1     -40.446  14.619  19.974  0.00  0.00     0.303 A 
ATOM      3  C   UNL d   1     -40.825  15.833  19.323  0.00  0.00     0.011 A 
ATOM      4  O   UNL d   1     -40.318  14.261  19.229  0.00  0.00    -0.273 OA
ATOM      5  C   UNL d   1     -40.701  15.490  18.592  0.00  0.00     0.023 A 
ATOM      6  C   UNL d   1     -40.448  14.704  18.545  0.00  0.00     0.103 A 
ATOM      7  O   UNL d   1     -40.316  14.174  20.681  0.00  0.00    -0.259 OA
ATOM      8  C   UNL d   1     -40.826  15.918  17.908  0.00  0.00     0.002 A 
ATOM      9  C   UNL d   1     -40.319  14.346  17.813  0.00  0.00     0.025 A 
ATOM     10  C   UNL d   1     -40.702  15.575  17.182  0.00  0.00     0.000 A 
ATOM     11  C   UNL d   1     -40.449  14.789  17.135  0.00  0.00     0.002 A 
ENDROOT
BRANCH   1  12
ATOM     12  C   UNL d   1     -40.823  15.746  20.776  0.00  0.00     0.201 C 
ATOM     13  O   UNL d   1     -41.596  15.922  21.015  0.00  0.00    -0.286 OA
ATOM     14  C   UNL d   1     -40.197  15.908  21.276  0.00  0.00     0.045 C 
ENDBRANCH   1  12
TORSDOF 1
ENDMDL
