MODEL 1
REMARK VINA RESULT:      38.1      0.000      0.000
REMARK  4 active torsions:
REMARK  status: ('A' for Active; 'I' for Inactive)
REMARK    1  A    between atoms: S_5  and  C_3 
REMARK    2  A    between atoms: C_13  and  S_5 
REMARK    3  A    between atoms: C_23  and  N_7 
REMARK    4  A    between atoms: C_29  and  C_23 
ROOT
ATOM      1  C   UNL d   1      46.217 -18.032  43.087  0.00  0.00     0.155 A 
ATOM      2  C   UNL d   1      46.142 -17.427  42.549  0.00  0.00     0.092 A 
ATOM      3  C   UNL d   1      45.933 -16.512  43.600  0.00  0.00     0.124 A 
ATOM      4  N   UNL d   1      46.361 -18.797  42.828  0.00  0.00    -0.210 NA
ATOM      5  N   UNL d   1      46.351 -18.342  41.492  0.00  0.00    -0.258 N 
ATOM      6  N   UNL d   1      46.152 -17.882  43.879  0.00  0.00    -0.273 N 
ATOM      7  C   UNL d   1      46.427 -18.950  42.040  0.00  0.00     0.152 A 
ATOM      8  C   UNL d   1      46.009 -17.123  44.144  0.00  0.00     0.181 A 
ATOM      9  C   UNL d   1      46.208 -17.580  41.748  0.00  0.00     0.269 A 
ATOM     10  C   UNL d   1      46.000 -16.668  42.802  0.00  0.00     0.022 A 
ATOM     11  C   UNL d   1      46.570 -19.715  41.780  0.00  0.00     0.035 A 
ATOM     12  C   UNL d   1      46.420 -18.507  40.691  0.00  0.00     0.084 A 
ATOM     13  N   UNL d   1      45.943 -16.975  44.954  0.00  0.00    -0.128 N 
ATOM     14  O   UNL d   1      46.132 -16.965  41.194  0.00  0.00    -0.266 OA
ATOM     15  C   UNL d   1      46.562 -19.267  40.437  0.00  0.00     0.019 A 
ATOM     16  C   UNL d   1      46.638 -19.874  40.985  0.00  0.00     0.005 A 
ATOM     17  C   UNL d   1      46.647 -20.330  42.334  0.00  0.00     0.003 C 
ENDROOT
BRANCH   3  18
ATOM     18  S   UNL d   1      45.788 -15.744  43.862  0.00  0.00     0.213 S 
ATOM     19  O   UNL d   1      44.997 -15.940  44.033  0.00  0.00    -0.217 OA
ATOM     20  O   UNL d   1      46.569 -15.540  43.695  0.00  0.00    -0.217 OA
BRANCH  18  21
ATOM     21  C   UNL d   1      45.653 -14.967  44.124  0.00  0.00     0.088 A 
ATOM     22  C   UNL d   1      44.909 -14.747  44.405  0.00  0.00     0.014 A 
ATOM     23  C   UNL d   1      44.774 -13.969  44.667  0.00  0.00     0.030 A 
ATOM     24  C   UNL d   1      45.385 -13.414  44.646  0.00  0.00     0.140 A 
ATOM     25  C   UNL d   1      46.138 -13.642  44.360  0.00  0.00     0.030 A 
ATOM     26  F   UNL d   1      45.259 -12.639  44.904  0.00  0.00    -0.204 F 
ATOM     27  C   UNL d   1      46.270 -14.417  44.100  0.00  0.00     0.014 A 
ENDBRANCH  18  21
ENDBRANCH   3  18
BRANCH   6  28
ATOM     28  C   UNL d   1      46.229 -18.503  44.432  0.00  0.00     0.083 C 
BRANCH  28  29
ATOM     29  C   UNL d   1      45.651 -19.102  44.462  0.00  0.00     0.019 C 
ATOM     30  C   UNL d   1      45.778 -19.788  44.915  0.00  0.00     0.002 C 
ENDBRANCH  28  29
ENDBRANCH   6  28
TORSDOF 4
ENDMDL
