MODEL 1
REMARK VINA RESULT:      50.7      0.000      0.000
REMARK  6 active torsions:
REMARK  status: ('A' for Active; 'I' for Inactive)
REMARK    1  A    between atoms: S_9  and  C_4 
REMARK    2  A    between atoms: C_15  and  S_9 
REMARK    3  A    between atoms: C_11  and  C_15 
REMARK    4  A    between atoms: O_14  and  C_11 
REMARK    5  A    between atoms: C_17  and  O_14 
REMARK    6  A    between atoms: C_18  and  C_17 
ROOT
ATOM      1  C   UNL d   1      57.396  49.704  50.718  0.00  0.00     0.104 A 
ATOM      2  N   UNL d   1      58.495  49.705  51.627  0.00  0.00    -0.251 N 
ATOM      3  C   UNL d   1      57.674  49.704  51.482  0.00  0.00     0.274 A 
ATOM      4  C   UNL d   1      59.021  49.706  50.991  0.00  0.00     0.182 A 
ATOM      5  C   UNL d   1      57.922  49.705  50.082  0.00  0.00     0.095 A 
ATOM      6  N   UNL d   1      58.726  49.706  50.211  0.00  0.00    -0.222 NA
ATOM      7  S   UNL d   1      56.632  49.703  50.412  0.00  0.00    -0.081 SA
ATOM      8  C   UNL d   1      57.483  49.705  49.385  0.00  0.00     0.026 A 
ATOM      9  O   UNL d   1      57.148  49.703  52.118  0.00  0.00    -0.266 OA
ATOM     10  C   UNL d   1      56.691  49.704  49.586  0.00  0.00     0.031 A 
ATOM     11  C   UNL d   1      58.783  49.705  52.406  0.00  0.00     0.104 C 
ATOM     12  C   UNL d   1      56.064  49.703  49.049  0.00  0.00     0.007 C 
ENDROOT
BRANCH   4  13
ATOM     13  S   UNL d   1      59.844  49.707  51.124  0.00  0.00    -0.044 SA
BRANCH  13  14
ATOM     14  C   UNL d   1      60.340  49.293  50.611  0.00  0.00     0.107 C 
BRANCH  14  15
ATOM     15  C   UNL d   1      61.049  48.974  50.889  0.00  0.00     0.307 C 
ATOM     16  O   UNL d   1      61.637  49.473  51.185  0.00  0.00    -0.258 OA
BRANCH  15  17
ATOM     17  O   UNL d   1      61.170  48.159  50.872  0.00  0.00    -0.271 OA
BRANCH  17  18
ATOM     18  C   UNL d   1      61.408  47.792  50.172  0.00  0.00     0.126 C 
BRANCH  18  19
ATOM     19  C   UNL d   1      61.433  46.973  50.126  0.00  0.00     0.025 A 
ATOM     20  C   UNL d   1      61.695  46.606  49.435  0.00  0.00     0.002 A 
ATOM     21  C   UNL d   1      61.720  45.783  49.389  0.00  0.00     0.000 A 
ATOM     22  C   UNL d   1      61.483  45.326  50.034  0.00  0.00     0.000 A 
ATOM     23  C   UNL d   1      61.223  45.694  50.717  0.00  0.00     0.000 A 
ATOM     24  C   UNL d   1      61.198  46.517  50.763  0.00  0.00     0.002 A 
ENDBRANCH  18  19
ENDBRANCH  17  18
ENDBRANCH  15  17
ENDBRANCH  14  15
ENDBRANCH  13  14
ENDBRANCH   4  13
TORSDOF 6
ENDMDL
