MODEL 1
REMARK VINA RESULT:      33.9      0.000      0.000
REMARK  4 active torsions:
REMARK  status: ('A' for Active; 'I' for Inactive)
REMARK    1  A    between atoms: C_4  and  C_1 
REMARK       I    between atoms: N_9  and  C_4 
REMARK    2  A    between atoms: C_7  and  C_13 
REMARK    3  A    between atoms: C_12  and  N_9 
REMARK    4  A    between atoms: C_13  and  C_12 
ROOT
ATOM      1  C   UNL d   1     -50.328  26.367  33.638  0.00  0.00     0.302 C 
ATOM      2  O   UNL d   1     -49.875  25.724  33.442  0.00  0.00    -0.263 OA
ATOM      3  N   UNL d   1     -51.165  26.304  33.629  0.00  0.00    -0.205 NA
ENDROOT
BRANCH   3   4
ATOM      4  C   UNL d   1     -51.507  25.591  33.422  0.00  0.00     0.102 C 
BRANCH   4   5
ATOM      5  C   UNL d   1     -52.330  25.521  33.370  0.00  0.00     0.021 C 
BRANCH   5   6
ATOM      6  C   UNL d   1     -52.684  24.780  33.365  0.00  0.00     0.002 A 
ATOM      7  C   UNL d   1     -53.515  24.722  33.319  0.00  0.00     0.000 A 
ATOM      8  C   UNL d   1     -53.881  23.983  33.313  0.00  0.00     0.000 A 
ATOM      9  C   UNL d   1     -53.429  23.292  33.352  0.00  0.00     0.000 A 
ATOM     10  C   UNL d   1     -52.613  23.351  33.397  0.00  0.00     0.000 A 
ATOM     11  C   UNL d   1     -52.244  24.096  33.403  0.00  0.00     0.000 A 
ENDBRANCH   5   6
ENDBRANCH   4   5
ENDBRANCH   3   4
BRANCH   1  12
ATOM     12  C   UNL d   1     -49.979  27.084  33.846  0.00  0.00     0.158 A 
ATOM     13  O   UNL d   1     -49.335  27.224  34.347  0.00  0.00    -0.296 OA
ATOM     14  C   UNL d   1     -49.189  28.040  34.382  0.00  0.00     0.134 A 
ATOM     15 BR   UNL d   1     -48.591  28.408  34.824  0.00  0.00    -0.022 Br
ATOM     16  C   UNL d   1     -49.749  28.404  33.897  0.00  0.00     0.034 A 
ATOM     17  C   UNL d   1     -50.230  27.828  33.570  0.00  0.00     0.032 A 
ENDBRANCH   1  12
TORSDOF 4
ENDMDL
MODEL 2
REMARK VINA RESULT:      36.6      2.251      4.666
REMARK  4 active torsions:
REMARK  status: ('A' for Active; 'I' for Inactive)
REMARK    1  A    between atoms: C_4  and  C_1 
REMARK       I    between atoms: N_9  and  C_4 
REMARK    2  A    between atoms: C_7  and  C_13 
REMARK    3  A    between atoms: C_12  and  N_9 
REMARK    4  A    between atoms: C_13  and  C_12 
ROOT
ATOM      1  C   UNL d   1     -52.131  25.229  33.353  0.00  0.00     0.302 C 
ATOM      2  O   UNL d   1     -52.530  25.934  33.344  0.00  0.00    -0.263 OA
ATOM      3  N   UNL d   1     -51.292  25.226  33.333  0.00  0.00    -0.205 NA
ENDROOT
BRANCH   3   4
ATOM      4  C   UNL d   1     -50.893  25.938  33.306  0.00  0.00     0.102 C 
BRANCH   4   5
ATOM      5  C   UNL d   1     -50.603  26.282  34.001  0.00  0.00     0.021 C 
BRANCH   5   6
ATOM      6  C   UNL d   1     -50.172  26.980  33.970  0.00  0.00     0.002 A 
ATOM      7  C   UNL d   1     -50.567  27.702  33.833  0.00  0.00     0.000 A 
ATOM      8  C   UNL d   1     -50.146  28.409  33.799  0.00  0.00     0.000 A 
ATOM      9  C   UNL d   1     -49.325  28.411  33.901  0.00  0.00     0.000 A 
ATOM     10  C   UNL d   1     -48.938  27.702  34.036  0.00  0.00     0.000 A 
ATOM     11  C   UNL d   1     -49.364  26.988  34.070  0.00  0.00     0.000 A 
ENDBRANCH   5   6
ENDBRANCH   4   5
ENDBRANCH   3   4
BRANCH   1  12
ATOM     12  C   UNL d   1     -52.538  24.513  33.380  0.00  0.00     0.158 A 
ATOM     13  O   UNL d   1     -53.351  24.371  33.309  0.00  0.00    -0.296 OA
ATOM     14  C   UNL d   1     -53.492  23.557  33.374  0.00  0.00     0.134 A 
ATOM     15 BR   UNL d   1     -54.235  23.188  33.332  0.00  0.00    -0.022 Br
ATOM     16  C   UNL d   1     -52.759  23.194  33.487  0.00  0.00     0.034 A 
ATOM     17  C   UNL d   1     -52.178  23.770  33.491  0.00  0.00     0.032 A 
ENDBRANCH   1  12
TORSDOF 4
ENDMDL
