MODEL 1
REMARK VINA RESULT:      -6.0      0.000      0.000
REMARK  4 active torsions:
REMARK  status: ('A' for Active; 'I' for Inactive)
REMARK    1  A    between atoms: C_8  and  C_1 
REMARK    2  A    between atoms: N_5  and  C_2 
REMARK       I    between atoms: C_7  and  N_5 
REMARK    3  A    between atoms: C_10  and  C_7 
REMARK    4  A    between atoms: O_17  and  C_16 
ROOT
ATOM      1  N   UNL d   1     -42.238-122.405 -50.904  0.00  0.00    -0.165 NA
ATOM      2  C   UNL d   1     -41.886-122.949 -50.408  0.00  0.00     0.282 C 
ATOM      3  O   UNL d   1     -41.180-123.322 -50.626  0.00  0.00    -0.265 OA
ENDROOT
BRANCH   1   4
ATOM      4  C   UNL d   1     -41.894-122.220 -51.630  0.00  0.00     0.297 A 
ATOM      5  O   UNL d   1     -42.107-122.549 -52.357  0.00  0.00    -0.253 OA
ATOM      6  C   UNL d   1     -41.625-122.210 -52.939  0.00  0.00     0.212 A 
ATOM      7  N   UNL d   1     -41.123-121.679 -52.568  0.00  0.00    -0.119 NA
ATOM      8  N   UNL d   1     -41.289-121.685 -51.761  0.00  0.00    -0.101 NA
BRANCH   6   9
ATOM      9  C   UNL d   1     -41.653-122.384 -53.750  0.00  0.00     0.072 A 
ATOM     10  S   UNL d   1     -41.291-123.021 -54.120  0.00  0.00    -0.083 SA
ATOM     11  C   UNL d   1     -41.463-122.979 -54.925  0.00  0.00     0.035 A 
ATOM     12  C   UNL d   1     -41.936-122.309 -55.052  0.00  0.00     0.008 A 
ATOM     13  C   UNL d   1     -42.052-121.941 -54.320  0.00  0.00     0.011 A 
ENDBRANCH   6   9
ENDBRANCH   1   4
BRANCH   2  14
ATOM     14  C   UNL d   1     -42.233-123.134 -49.679  0.00  0.00     0.060 A 
ATOM     15  C   UNL d   1     -41.922-122.826 -48.978  0.00  0.00     0.029 A 
ATOM     16  C   UNL d   1     -42.268-123.012 -48.260  0.00  0.00     0.094 A 
ATOM     17  C   UNL d   1     -42.926-123.506 -48.236  0.00  0.00     0.024 A 
ATOM     18  C   UNL d   1     -43.240-123.817 -48.936  0.00  0.00     0.002 A 
ATOM     19  C   UNL d   1     -42.890-123.628 -49.654  0.00  0.00     0.005 A 
BRANCH  16  20
ATOM     20  O   UNL d   1     -41.957-122.701 -47.540  0.00  0.00    -0.328 OA
ATOM     21  C   UNL d   1     -41.977-123.148 -46.856  0.00  0.00     0.181 C 
ENDBRANCH  16  20
ENDBRANCH   2  14
TORSDOF 4
ENDMDL
MODEL 2
REMARK VINA RESULT:      -5.5      1.628      4.982
REMARK  4 active torsions:
REMARK  status: ('A' for Active; 'I' for Inactive)
REMARK    1  A    between atoms: C_8  and  C_1 
REMARK    2  A    between atoms: N_5  and  C_2 
REMARK       I    between atoms: C_7  and  N_5 
REMARK    3  A    between atoms: C_10  and  C_7 
REMARK    4  A    between atoms: O_17  and  C_16 
ROOT
ATOM      1  N   UNL d   1     -41.704-122.515 -52.019  0.00  0.00    -0.165 NA
ATOM      2  C   UNL d   1     -41.427-123.144 -52.459  0.00  0.00     0.282 C 
ATOM      3  O   UNL d   1     -41.123-123.817 -52.084  0.00  0.00    -0.265 OA
ENDROOT
BRANCH   1   4
ATOM      4  C   UNL d   1     -41.685-122.542 -51.195  0.00  0.00     0.297 A 
ATOM      5  O   UNL d   1     -42.230-122.937 -50.718  0.00  0.00    -0.253 OA
ATOM      6  C   UNL d   1     -42.006-122.822 -49.929  0.00  0.00     0.212 A 
ATOM      7  N   UNL d   1     -41.328-122.360 -49.927  0.00  0.00    -0.119 NA
ATOM      8  N   UNL d   1     -41.131-122.187 -50.708  0.00  0.00    -0.101 NA
BRANCH   6   9
ATOM      9  C   UNL d   1     -42.402-123.125 -49.266  0.00  0.00     0.072 A 
ATOM     10  S   UNL d   1     -42.168-123.042 -48.483  0.00  0.00    -0.083 SA
ATOM     11  C   UNL d   1     -42.721-123.427 -48.010  0.00  0.00     0.035 A 
ATOM     12  C   UNL d   1     -43.302-123.752 -48.505  0.00  0.00     0.008 A 
ATOM     13  C   UNL d   1     -43.101-123.562 -49.285  0.00  0.00     0.011 A 
ENDBRANCH   6   9
ENDBRANCH   1   4
BRANCH   2  14
ATOM     14  C   UNL d   1     -41.447-123.116 -53.286  0.00  0.00     0.060 A 
ATOM     15  C   UNL d   1     -41.696-122.431 -53.675  0.00  0.00     0.029 A 
ATOM     16  C   UNL d   1     -41.714-122.408 -54.493  0.00  0.00     0.094 A 
ATOM     17  C   UNL d   1     -41.484-123.067 -54.928  0.00  0.00     0.024 A 
ATOM     18  C   UNL d   1     -41.233-123.756 -54.542  0.00  0.00     0.002 A 
ATOM     19  C   UNL d   1     -41.217-123.774 -53.722  0.00  0.00     0.005 A 
BRANCH  16  20
ATOM     20  O   UNL d   1     -41.968-121.712 -54.898  0.00  0.00    -0.328 OA
ATOM     21  C   UNL d   1     -42.237-121.758 -55.668  0.00  0.00     0.181 C 
ENDBRANCH  16  20
ENDBRANCH   2  14
TORSDOF 4
ENDMDL
MODEL 3
REMARK VINA RESULT:      -5.0      0.977      1.190
REMARK  4 active torsions:
REMARK  status: ('A' for Active; 'I' for Inactive)
REMARK    1  A    between atoms: C_8  and  C_1 
REMARK    2  A    between atoms: N_5  and  C_2 
REMARK       I    between atoms: C_7  and  N_5 
REMARK    3  A    between atoms: C_10  and  C_7 
REMARK    4  A    between atoms: O_17  and  C_16 
ROOT
ATOM      1  N   UNL d   1     -41.780-122.949 -51.580  0.00  0.00    -0.165 NA
ATOM      2  C   UNL d   1     -41.592-122.606 -50.864  0.00  0.00     0.282 C 
ATOM      3  O   UNL d   1     -41.253-121.851 -50.835  0.00  0.00    -0.265 OA
ENDROOT
BRANCH   1   4
ATOM      4  C   UNL d   1     -41.635-122.546 -52.286  0.00  0.00     0.297 A 
ATOM      5  O   UNL d   1     -41.980-122.721 -53.014  0.00  0.00    -0.253 OA
ATOM      6  C   UNL d   1     -41.683-122.185 -53.571  0.00  0.00     0.212 A 
ATOM      7  N   UNL d   1     -41.160-121.688 -53.182  0.00  0.00    -0.119 NA
ATOM      8  N   UNL d   1     -41.130-121.911 -52.390  0.00  0.00    -0.101 NA
BRANCH   6   9
ATOM      9  C   UNL d   1     -41.884-122.164 -54.375  0.00  0.00     0.072 A 
ATOM     10  S   UNL d   1     -41.366-122.257 -55.006  0.00  0.00    -0.083 SA
ATOM     11  C   UNL d   1     -41.800-122.196 -55.703  0.00  0.00     0.035 A 
ATOM     12  C   UNL d   1     -42.594-122.063 -55.501  0.00  0.00     0.008 A 
ATOM     13  C   UNL d   1     -42.643-122.044 -54.675  0.00  0.00     0.011 A 
ENDBRANCH   6   9
ENDBRANCH   1   4
BRANCH   2  14
ATOM     14  C   UNL d   1     -41.738-123.011 -50.156  0.00  0.00     0.060 A 
ATOM     15  C   UNL d   1     -42.497-123.023 -49.831  0.00  0.00     0.029 A 
ATOM     16  C   UNL d   1     -42.637-123.425 -49.132  0.00  0.00     0.094 A 
ATOM     17  C   UNL d   1     -42.021-123.817 -48.753  0.00  0.00     0.024 A 
ATOM     18  C   UNL d   1     -41.258-123.807 -49.075  0.00  0.00     0.002 A 
ATOM     19  C   UNL d   1     -41.123-123.403 -49.777  0.00  0.00     0.005 A 
BRANCH  16  20
ATOM     20  O   UNL d   1     -43.410-123.442 -48.793  0.00  0.00    -0.328 OA
ATOM     21  C   UNL d   1     -43.527-123.763 -48.051  0.00  0.00     0.181 C 
ENDBRANCH  16  20
ENDBRANCH   2  14
TORSDOF 4
ENDMDL
MODEL 4
REMARK VINA RESULT:      -3.3      1.677      4.946
REMARK  4 active torsions:
REMARK  status: ('A' for Active; 'I' for Inactive)
REMARK    1  A    between atoms: C_8  and  C_1 
REMARK    2  A    between atoms: N_5  and  C_2 
REMARK       I    between atoms: C_7  and  N_5 
REMARK    3  A    between atoms: C_10  and  C_7 
REMARK    4  A    between atoms: O_17  and  C_16 
ROOT
ATOM      1  N   UNL d   1     -42.202-122.655 -51.443  0.00  0.00    -0.165 NA
ATOM      2  C   UNL d   1     -41.672-123.174 -51.784  0.00  0.00     0.282 C 
ATOM      3  O   UNL d   1     -41.288-123.745 -51.323  0.00  0.00    -0.265 OA
ENDROOT
BRANCH   1   4
ATOM      4  C   UNL d   1     -42.362-122.693 -50.635  0.00  0.00     0.297 A 
ATOM      5  O   UNL d   1     -41.836-122.957 -50.057  0.00  0.00    -0.253 OA
ATOM      6  C   UNL d   1     -42.217-122.904 -49.324  0.00  0.00     0.212 A 
ATOM      7  N   UNL d   1     -42.970-122.609 -49.456  0.00  0.00    -0.119 NA
ATOM      8  N   UNL d   1     -43.060-122.479 -50.265  0.00  0.00    -0.101 NA
BRANCH   6   9
ATOM      9  C   UNL d   1     -41.888-123.114 -48.592  0.00  0.00     0.072 A 
ATOM     10  S   UNL d   1     -41.269-122.731 -48.213  0.00  0.00    -0.083 SA
ATOM     11  C   UNL d   1     -41.123-123.124 -47.503  0.00  0.00     0.035 A 
ATOM     12  C   UNL d   1     -41.656-123.756 -47.445  0.00  0.00     0.008 A 
ATOM     13  C   UNL d   1     -42.131-123.748 -48.123  0.00  0.00     0.011 A 
ENDBRANCH   6   9
ENDBRANCH   1   4
BRANCH   2  14
ATOM     14  C   UNL d   1     -41.513-123.135 -52.596  0.00  0.00     0.060 A 
ATOM     15  C   UNL d   1     -41.568-122.416 -52.998  0.00  0.00     0.029 A 
ATOM     16  C   UNL d   1     -41.410-122.383 -53.800  0.00  0.00     0.094 A 
ATOM     17  C   UNL d   1     -41.195-123.065 -54.206  0.00  0.00     0.024 A 
ATOM     18  C   UNL d   1     -41.138-123.788 -53.806  0.00  0.00     0.002 A 
ATOM     19  C   UNL d   1     -41.298-123.817 -53.001  0.00  0.00     0.005 A 
BRANCH  16  20
ATOM     20  O   UNL d   1     -41.464-121.652 -54.219  0.00  0.00    -0.328 OA
ATOM     21  C   UNL d   1     -41.941-121.590 -54.880  0.00  0.00     0.181 C 
ENDBRANCH  16  20
ENDBRANCH   2  14
TORSDOF 4
ENDMDL
