MODEL 1
REMARK VINA RESULT:      -3.5      0.000      0.000
REMARK  8 active torsions:
REMARK  status: ('A' for Active; 'I' for Inactive)
REMARK       I    between atoms: N_3  and  C_1 
REMARK    1  A    between atoms: C_11  and  C_1 
REMARK    2  A    between atoms: C_7  and  N_3 
REMARK    3  A    between atoms: C_5  and  O_8 
REMARK    4  A    between atoms: C_12  and  C_7 
REMARK    5  A    between atoms: O_8  and  C_15 
REMARK    6  A    between atoms: C_9  and  C_12 
REMARK    7  A    between atoms: C_19  and  C_11 
REMARK    8  A    between atoms: C_15  and  C_19 
ROOT
ATOM      1  C   UNL d   1      33.103  19.535 -22.042  0.00  0.00     0.328 C 
ATOM      2  O   UNL d   1      33.240  18.942 -21.485  0.00  0.00    -0.251 OA
ATOM      3  N   UNL d   1      33.072  20.329 -21.802  0.00  0.00    -0.362 NA
ENDROOT
BRANCH   1   4
ATOM      4  C   UNL d   1      32.996  19.340 -22.836  0.00  0.00     0.078 C 
BRANCH   4   5
ATOM      5  C   UNL d   1      32.915  18.556 -23.061  0.00  0.00     0.033 C 
BRANCH   5   6
ATOM      6  C   UNL d   1      32.253  18.312 -23.485  0.00  0.00     0.123 C 
BRANCH   6   7
ATOM      7  O   UNL d   1      32.264  17.599 -23.898  0.00  0.00    -0.305 OA
BRANCH   7   8
ATOM      8  C   UNL d   1      31.559  17.246 -24.137  0.00  0.00     0.100 A 
ATOM      9  C   UNL d   1      31.252  16.599 -23.717  0.00  0.00     0.025 A 
ATOM     10  C   UNL d   1      30.544  16.250 -23.962  0.00  0.00     0.002 A 
ATOM     11  C   UNL d   1      30.242  15.609 -23.543  0.00  0.00     0.000 C 
ATOM     12  C   UNL d   1      30.141  16.539 -24.622  0.00  0.00     0.000 A 
ATOM     13  C   UNL d   1      30.441  17.179 -25.042  0.00  0.00     0.002 A 
ATOM     14  C   UNL d   1      31.152  17.537 -24.803  0.00  0.00     0.025 A 
ENDBRANCH   7   8
ENDBRANCH   6   7
ENDBRANCH   5   6
ENDBRANCH   4   5
ENDBRANCH   1   4
BRANCH   3  15
ATOM     15  C   UNL d   1      33.042  21.114 -21.563  0.00  0.00     0.165 C 
BRANCH  15  16
ATOM     16  C   UNL d   1      32.390  21.393 -21.141  0.00  0.00     0.035 C 
BRANCH  16  17
ATOM     17  C   UNL d   1      32.393  22.157 -20.845  0.00  0.00     0.003 A 
ATOM     18  C   UNL d   1      32.711  22.320 -20.095  0.00  0.00     0.000 A 
ATOM     19  C   UNL d   1      32.710  23.089 -19.804  0.00  0.00     0.000 A 
ATOM     20  C   UNL d   1      32.394  23.702 -20.256  0.00  0.00     0.000 A 
ATOM     21  C   UNL d   1      32.076  23.540 -21.006  0.00  0.00     0.000 A 
ATOM     22  C   UNL d   1      32.076  22.770 -21.297  0.00  0.00     0.000 A 
ENDBRANCH  16  17
ENDBRANCH  15  16
ENDBRANCH   3  15
TORSDOF 8
ENDMDL
MODEL 2
REMARK VINA RESULT:      -3.3      0.981      1.483
REMARK  8 active torsions:
REMARK  status: ('A' for Active; 'I' for Inactive)
REMARK       I    between atoms: N_3  and  C_1 
REMARK    1  A    between atoms: C_11  and  C_1 
REMARK    2  A    between atoms: C_7  and  N_3 
REMARK    3  A    between atoms: C_5  and  O_8 
REMARK    4  A    between atoms: C_12  and  C_7 
REMARK    5  A    between atoms: O_8  and  C_15 
REMARK    6  A    between atoms: C_9  and  C_12 
REMARK    7  A    between atoms: C_19  and  C_11 
REMARK    8  A    between atoms: C_15  and  C_19 
ROOT
ATOM      1  C   UNL d   1      32.914  18.551 -22.833  0.00  0.00     0.328 C 
ATOM      2  O   UNL d   1      33.241  17.903 -22.440  0.00  0.00    -0.251 OA
ATOM      3  N   UNL d   1      33.050  19.318 -22.548  0.00  0.00    -0.362 NA
ENDROOT
BRANCH   1   4
ATOM      4  C   UNL d   1      32.454  18.436 -23.507  0.00  0.00     0.078 C 
BRANCH   4   5
ATOM      5  C   UNL d   1      32.158  17.693 -23.683  0.00  0.00     0.033 C 
BRANCH   5   6
ATOM      6  C   UNL d   1      31.463  17.615 -24.118  0.00  0.00     0.123 C 
BRANCH   6   7
ATOM      7  O   UNL d   1      31.049  16.902 -24.117  0.00  0.00    -0.305 OA
BRANCH   7   8
ATOM      8  C   UNL d   1      30.243  16.889 -24.281  0.00  0.00     0.100 A 
ATOM      9  C   UNL d   1      29.749  16.335 -23.908  0.00  0.00     0.025 A 
ATOM     10  C   UNL d   1      28.940  16.327 -24.077  0.00  0.00     0.002 A 
ATOM     11  C   UNL d   1      28.454  15.776 -23.706  0.00  0.00     0.000 C 
ATOM     12  C   UNL d   1      28.619  16.866 -24.613  0.00  0.00     0.000 A 
ATOM     13  C   UNL d   1      29.104  17.418 -24.985  0.00  0.00     0.002 A 
ATOM     14  C   UNL d   1      29.918  17.433 -24.821  0.00  0.00     0.025 A 
ENDBRANCH   7   8
ENDBRANCH   6   7
ENDBRANCH   5   6
ENDBRANCH   4   5
ENDBRANCH   1   4
BRANCH   3  15
ATOM     15  C   UNL d   1      33.185  20.078 -22.265  0.00  0.00     0.165 C 
BRANCH  15  16
ATOM     16  C   UNL d   1      32.679  20.405 -21.702  0.00  0.00     0.035 C 
BRANCH  16  17
ATOM     17  C   UNL d   1      32.816  21.163 -21.422  0.00  0.00     0.003 A 
ATOM     18  C   UNL d   1      32.975  21.786 -21.947  0.00  0.00     0.000 A 
ATOM     19  C   UNL d   1      33.112  22.545 -21.659  0.00  0.00     0.000 A 
ATOM     20  C   UNL d   1      33.091  22.688 -20.847  0.00  0.00     0.000 A 
ATOM     21  C   UNL d   1      32.932  22.065 -20.321  0.00  0.00     0.000 A 
ATOM     22  C   UNL d   1      32.796  21.307 -20.610  0.00  0.00     0.000 A 
ENDBRANCH  16  17
ENDBRANCH  15  16
ENDBRANCH   3  15
TORSDOF 8
ENDMDL
MODEL 3
REMARK VINA RESULT:      -2.9      1.211      6.099
REMARK  8 active torsions:
REMARK  status: ('A' for Active; 'I' for Inactive)
REMARK       I    between atoms: N_3  and  C_1 
REMARK    1  A    between atoms: C_11  and  C_1 
REMARK    2  A    between atoms: C_7  and  N_3 
REMARK    3  A    between atoms: C_5  and  O_8 
REMARK    4  A    between atoms: C_12  and  C_7 
REMARK    5  A    between atoms: O_8  and  C_15 
REMARK    6  A    between atoms: C_9  and  C_12 
REMARK    7  A    between atoms: C_19  and  C_11 
REMARK    8  A    between atoms: C_15  and  C_19 
ROOT
ATOM      1  C   UNL d   1      32.570  17.948 -23.847  0.00  0.00     0.328 C 
ATOM      2  O   UNL d   1      33.240  17.970 -24.327  0.00  0.00    -0.251 OA
ATOM      3  N   UNL d   1      31.940  17.442 -24.039  0.00  0.00    -0.362 NA
ENDROOT
BRANCH   1   4
ATOM      4  C   UNL d   1      32.525  18.427 -23.178  0.00  0.00     0.078 C 
BRANCH   4   5
ATOM      5  C   UNL d   1      32.940  19.133 -23.147  0.00  0.00     0.033 C 
BRANCH   5   6
ATOM      6  C   UNL d   1      32.708  19.729 -22.628  0.00  0.00     0.123 C 
BRANCH   6   7
ATOM      7  O   UNL d   1      33.234  20.329 -22.423  0.00  0.00    -0.305 OA
BRANCH   7   8
ATOM      8  C   UNL d   1      32.987  20.954 -21.947  0.00  0.00     0.100 A 
ATOM      9  C   UNL d   1      33.220  21.731 -22.122  0.00  0.00     0.025 A 
ATOM     10  C   UNL d   1      32.968  22.353 -21.639  0.00  0.00     0.002 A 
ATOM     11  C   UNL d   1      33.202  23.123 -21.816  0.00  0.00     0.000 C 
ATOM     12  C   UNL d   1      32.487  22.208 -20.985  0.00  0.00     0.000 A 
ATOM     13  C   UNL d   1      32.253  21.439 -20.807  0.00  0.00     0.002 A 
ATOM     14  C   UNL d   1      32.501  20.807 -21.286  0.00  0.00     0.025 A 
ENDBRANCH   7   8
ENDBRANCH   6   7
ENDBRANCH   5   6
ENDBRANCH   4   5
ENDBRANCH   1   4
BRANCH   3  15
ATOM     15  C   UNL d   1      31.318  16.942 -24.230  0.00  0.00     0.165 C 
BRANCH  15  16
ATOM     16  C   UNL d   1      30.571  17.068 -23.904  0.00  0.00     0.035 C 
BRANCH  16  17
ATOM     17  C   UNL d   1      29.958  16.553 -24.077  0.00  0.00     0.003 A 
ATOM     18  C   UNL d   1      29.566  16.140 -23.472  0.00  0.00     0.000 A 
ATOM     19  C   UNL d   1      28.952  15.624 -23.654  0.00  0.00     0.000 A 
ATOM     20  C   UNL d   1      28.722  15.516 -24.439  0.00  0.00     0.000 A 
ATOM     21  C   UNL d   1      29.113  15.928 -25.045  0.00  0.00     0.000 A 
ATOM     22  C   UNL d   1      29.728  16.444 -24.862  0.00  0.00     0.000 A 
ENDBRANCH  16  17
ENDBRANCH  15  16
ENDBRANCH   3  15
TORSDOF 8
ENDMDL
MODEL 4
REMARK VINA RESULT:      -1.4      2.280      3.473
REMARK  8 active torsions:
REMARK  status: ('A' for Active; 'I' for Inactive)
REMARK       I    between atoms: N_3  and  C_1 
REMARK    1  A    between atoms: C_11  and  C_1 
REMARK    2  A    between atoms: C_7  and  N_3 
REMARK    3  A    between atoms: C_5  and  O_8 
REMARK    4  A    between atoms: C_12  and  C_7 
REMARK    5  A    between atoms: O_8  and  C_15 
REMARK    6  A    between atoms: C_9  and  C_12 
REMARK    7  A    between atoms: C_19  and  C_11 
REMARK    8  A    between atoms: C_15  and  C_19 
ROOT
ATOM      1  C   UNL d   1      32.705  16.227 -23.500  0.00  0.00     0.328 C 
ATOM      2  O   UNL d   1      33.241  15.717 -23.865  0.00  0.00    -0.251 OA
ATOM      3  N   UNL d   1      32.851  17.044 -23.491  0.00  0.00    -0.362 NA
ENDROOT
BRANCH   1   4
ATOM      4  C   UNL d   1      32.026  15.925 -23.143  0.00  0.00     0.078 C 
BRANCH   4   5
ATOM      5  C   UNL d   1      31.364  15.753 -23.594  0.00  0.00     0.033 C 
BRANCH   5   6
ATOM      6  C   UNL d   1      30.612  15.787 -23.259  0.00  0.00     0.123 C 
BRANCH   6   7
ATOM      7  O   UNL d   1      29.956  15.526 -23.684  0.00  0.00    -0.305 OA
BRANCH   7   8
ATOM      8  C   UNL d   1      29.233  15.912 -23.609  0.00  0.00     0.100 A 
ATOM      9  C   UNL d   1      29.124  16.665 -23.941  0.00  0.00     0.025 A 
ATOM     10  C   UNL d   1      28.395  17.047 -23.862  0.00  0.00     0.002 A 
ATOM     11  C   UNL d   1      28.291  17.794 -24.193  0.00  0.00     0.000 C 
ATOM     12  C   UNL d   1      27.775  16.686 -23.456  0.00  0.00     0.000 A 
ATOM     13  C   UNL d   1      27.877  15.939 -23.124  0.00  0.00     0.002 A 
ATOM     14  C   UNL d   1      28.606  15.547 -23.198  0.00  0.00     0.025 A 
ENDBRANCH   7   8
ENDBRANCH   6   7
ENDBRANCH   5   6
ENDBRANCH   4   5
ENDBRANCH   1   4
BRANCH   3  15
ATOM     15  C   UNL d   1      32.997  17.852 -23.484  0.00  0.00     0.165 C 
BRANCH  15  16
ATOM     16  C   UNL d   1      32.744  18.312 -22.847  0.00  0.00     0.035 C 
BRANCH  16  17
ATOM     17  C   UNL d   1      32.909  19.114 -22.833  0.00  0.00     0.003 A 
ATOM     18  C   UNL d   1      33.048  19.532 -23.537  0.00  0.00     0.000 A 
ATOM     19  C   UNL d   1      33.213  20.337 -23.515  0.00  0.00     0.000 A 
ATOM     20  C   UNL d   1      33.241  20.734 -22.792  0.00  0.00     0.000 A 
ATOM     21  C   UNL d   1      33.102  20.317 -22.087  0.00  0.00     0.000 A 
ATOM     22  C   UNL d   1      32.937  19.511 -22.110  0.00  0.00     0.000 A 
ENDBRANCH  16  17
ENDBRANCH  15  16
ENDBRANCH   3  15
TORSDOF 8
ENDMDL
MODEL 5
REMARK VINA RESULT:      -1.2      1.068      6.211
REMARK  8 active torsions:
REMARK  status: ('A' for Active; 'I' for Inactive)
REMARK       I    between atoms: N_3  and  C_1 
REMARK    1  A    between atoms: C_11  and  C_1 
REMARK    2  A    between atoms: C_7  and  N_3 
REMARK    3  A    between atoms: C_5  and  O_8 
REMARK    4  A    between atoms: C_12  and  C_7 
REMARK    5  A    between atoms: O_8  and  C_15 
REMARK    6  A    between atoms: C_9  and  C_12 
REMARK    7  A    between atoms: C_19  and  C_11 
REMARK    8  A    between atoms: C_15  and  C_19 
ROOT
ATOM      1  C   UNL d   1      33.129  19.492 -23.169  0.00  0.00     0.328 C 
ATOM      2  O   UNL d   1      33.241  19.896 -23.879  0.00  0.00    -0.251 OA
ATOM      3  N   UNL d   1      32.904  18.693 -23.179  0.00  0.00    -0.362 NA
ENDROOT
BRANCH   1   4
ATOM      4  C   UNL d   1      33.240  19.881 -22.451  0.00  0.00     0.078 C 
BRANCH   4   5
ATOM      5  C   UNL d   1      32.682  20.417 -22.181  0.00  0.00     0.033 C 
BRANCH   5   6
ATOM      6  C   UNL d   1      32.905  21.030 -21.677  0.00  0.00     0.123 C 
BRANCH   6   7
ATOM      7  O   UNL d   1      32.389  21.293 -21.091  0.00  0.00    -0.305 OA
BRANCH   7   8
ATOM      8  C   UNL d   1      32.465  22.052 -20.780  0.00  0.00     0.100 A 
ATOM      9  C   UNL d   1      32.812  22.166 -20.034  0.00  0.00     0.025 A 
ATOM     10  C   UNL d   1      32.886  22.930 -19.729  0.00  0.00     0.002 A 
ATOM     11  C   UNL d   1      33.230  23.039 -18.989  0.00  0.00     0.000 C 
ATOM     12  C   UNL d   1      32.617  23.581 -20.159  0.00  0.00     0.000 A 
ATOM     13  C   UNL d   1      32.273  23.474 -20.898  0.00  0.00     0.002 A 
ATOM     14  C   UNL d   1      32.194  22.709 -21.214  0.00  0.00     0.025 A 
ENDBRANCH   7   8
ENDBRANCH   6   7
ENDBRANCH   5   6
ENDBRANCH   4   5
ENDBRANCH   1   4
BRANCH   3  15
ATOM     15  C   UNL d   1      32.681  17.903 -23.189  0.00  0.00     0.165 C 
BRANCH  15  16
ATOM     16  C   UNL d   1      32.261  17.600 -23.832  0.00  0.00     0.035 C 
BRANCH  16  17
ATOM     17  C   UNL d   1      31.859  16.890 -23.758  0.00  0.00     0.003 A 
ATOM     18  C   UNL d   1      31.042  16.849 -23.900  0.00  0.00     0.000 A 
ATOM     19  C   UNL d   1      30.644  16.133 -23.824  0.00  0.00     0.000 A 
ATOM     20  C   UNL d   1      31.056  15.452 -23.606  0.00  0.00     0.000 A 
ATOM     21  C   UNL d   1      31.874  15.493 -23.464  0.00  0.00     0.000 A 
ATOM     22  C   UNL d   1      32.271  16.210 -23.540  0.00  0.00     0.000 A 
ENDBRANCH  16  17
ENDBRANCH  15  16
ENDBRANCH   3  15
TORSDOF 8
ENDMDL
