MODEL 1
REMARK VINA RESULT:      -8.7      0.000      0.000
REMARK  8 active torsions:
REMARK  status: ('A' for Active; 'I' for Inactive)
REMARK    1  A    between atoms: N_7  and  N_1 
REMARK    2  A    between atoms: S_9  and  C_2 
REMARK       I    between atoms: C_8  and  N_7 
REMARK    3  A    between atoms: C_19  and  C_8 
REMARK    4  A    between atoms: C_18  and  S_9 
REMARK    5  A    between atoms: C_10  and  C_18 
REMARK       I    between atoms: N_13  and  C_10 
REMARK    6  A    between atoms: C_12  and  C_14 
REMARK    7  A    between atoms: C_14  and  N_13 
REMARK    8  A    between atoms: C_22  and  C_19 
ROOT
ATOM      1  N   UNL d   1      52.902  33.438  53.261  0.00  0.00    -0.168 N 
ATOM      2  C   UNL d   1      52.281  33.955  53.226  0.00  0.00     0.199 A 
ATOM      3  C   UNL d   1      53.547  33.595  53.756  0.00  0.00     0.283 A 
ATOM      4  N   UNL d   1      52.279  34.657  53.688  0.00  0.00    -0.221 NA
ATOM      5  C   UNL d   1      53.550  34.293  54.219  0.00  0.00     0.076 A 
ATOM      6  C   UNL d   1      52.917  34.821  54.184  0.00  0.00     0.088 A 
ATOM      7  O   UNL d   1      54.182  33.071  53.796  0.00  0.00    -0.265 OA
ATOM      8  C   UNL d   1      54.199  34.445  54.713  0.00  0.00     0.006 A 
ATOM      9  C   UNL d   1      52.929  35.501  54.640  0.00  0.00     0.019 A 
ATOM     10  C   UNL d   1      54.198  35.135  55.168  0.00  0.00     0.000 A 
ATOM     11  C   UNL d   1      53.565  35.663  55.133  0.00  0.00     0.002 A 
ENDROOT
BRANCH   2  12
ATOM     12  S   UNL d   1      51.646  33.801  52.739  0.00  0.00    -0.043 SA
BRANCH  12  13
ATOM     13  C   UNL d   1      50.912  34.139  52.897  0.00  0.00     0.101 C 
BRANCH  13  14
ATOM     14  C   UNL d   1      50.387  34.279  52.286  0.00  0.00     0.286 C 
ATOM     15  N   UNL d   1      49.665  34.640  52.438  0.00  0.00    -0.206 NA
ATOM     16  O   UNL d   1      50.582  34.059  51.515  0.00  0.00    -0.265 OA
BRANCH  15  17
ATOM     17  C   UNL d   1      49.139  34.781  51.827  0.00  0.00     0.103 C 
BRANCH  17  18
ATOM     18  C   UNL d   1      48.460  35.220  51.962  0.00  0.00     0.030 A 
ATOM     19  C   UNL d   1      47.859  35.244  51.396  0.00  0.00     0.059 A 
ATOM     20 CL   UNL d   1      47.944  34.823  50.692  0.00  0.00    -0.082 Cl
ATOM     21  C   UNL d   1      47.179  35.683  51.531  0.00  0.00     0.011 A 
ATOM     22  C   UNL d   1      47.094  36.103  52.235  0.00  0.00     0.001 A 
ATOM     23  C   UNL d   1      47.697  36.079  52.801  0.00  0.00     0.000 A 
ATOM     24  C   UNL d   1      48.375  35.641  52.665  0.00  0.00     0.002 A 
ENDBRANCH  17  18
ENDBRANCH  15  17
ENDBRANCH  13  14
ENDBRANCH  12  13
ENDBRANCH   2  12
BRANCH   1  25
ATOM     25  N   UNL d   1      52.899  32.757  52.810  0.00  0.00    -0.119 NA
ATOM     26  C   UNL d   1      52.860  32.029  53.177  0.00  0.00     0.296 C 
ATOM     27  O   UNL d   1      52.822  31.971  53.999  0.00  0.00    -0.264 OA
BRANCH  26  28
ATOM     28  C   UNL d   1      52.857  31.340  52.718  0.00  0.00     0.064 C 
BRANCH  28  29
ATOM     29  C   UNL d   1      52.887  30.615  53.080  0.00  0.00     0.005 A 
ATOM     30  C   UNL d   1      52.184  30.215  53.244  0.00  0.00     0.000 A 
ATOM     31  C   UNL d   1      52.214  29.478  53.613  0.00  0.00     0.000 A 
ATOM     32  C   UNL d   1      52.930  29.149  53.814  0.00  0.00     0.000 A 
ATOM     33  C   UNL d   1      53.632  29.559  53.645  0.00  0.00     0.000 A 
ATOM     34  C   UNL d   1      53.602  30.286  53.281  0.00  0.00     0.000 A 
ENDBRANCH  28  29
ENDBRANCH  26  28
ENDBRANCH   1  25
TORSDOF 8
ENDMDL
MODEL 2
REMARK VINA RESULT:      -7.8      0.899      3.516
REMARK  8 active torsions:
REMARK  status: ('A' for Active; 'I' for Inactive)
REMARK    1  A    between atoms: N_7  and  N_1 
REMARK    2  A    between atoms: S_9  and  C_2 
REMARK       I    between atoms: C_8  and  N_7 
REMARK    3  A    between atoms: C_19  and  C_8 
REMARK    4  A    between atoms: C_18  and  S_9 
REMARK    5  A    between atoms: C_10  and  C_18 
REMARK       I    between atoms: N_13  and  C_10 
REMARK    6  A    between atoms: C_12  and  C_14 
REMARK    7  A    between atoms: C_14  and  N_13 
REMARK    8  A    between atoms: C_22  and  C_19 
ROOT
ATOM      1  N   UNL d   1      53.347  32.332  53.331  0.00  0.00    -0.168 N 
ATOM      2  C   UNL d   1      52.624  32.283  52.973  0.00  0.00     0.199 A 
ATOM      3  C   UNL d   1      53.726  31.646  53.599  0.00  0.00     0.283 A 
ATOM      4  N   UNL d   1      52.246  31.540  52.866  0.00  0.00    -0.221 NA
ATOM      5  C   UNL d   1      53.354  30.902  53.496  0.00  0.00     0.076 A 
ATOM      6  C   UNL d   1      52.616  30.852  53.130  0.00  0.00     0.088 A 
ATOM      7  O   UNL d   1      54.464  31.690  53.966  0.00  0.00    -0.265 OA
ATOM      8  C   UNL d   1      53.738  30.219  53.766  0.00  0.00     0.006 A 
ATOM      9  C   UNL d   1      52.260  30.122  53.033  0.00  0.00     0.019 A 
ATOM     10  C   UNL d   1      53.368  29.487  53.662  0.00  0.00     0.000 A 
ATOM     11  C   UNL d   1      52.630  29.437  53.296  0.00  0.00     0.002 A 
ENDROOT
BRANCH   2  12
ATOM     12  S   UNL d   1      52.251  32.957  52.709  0.00  0.00    -0.043 SA
BRANCH  12  13
ATOM     13  C   UNL d   1      51.437  32.958  52.583  0.00  0.00     0.101 C 
BRANCH  13  14
ATOM     14  C   UNL d   1      51.081  33.593  52.210  0.00  0.00     0.286 C 
ATOM     15  N   UNL d   1      50.388  33.913  52.513  0.00  0.00    -0.206 NA
ATOM     16  O   UNL d   1      51.418  33.913  51.529  0.00  0.00    -0.265 OA
BRANCH  15  17
ATOM     17  C   UNL d   1      50.032  34.549  52.141  0.00  0.00     0.103 C 
BRANCH  17  18
ATOM     18  C   UNL d   1      49.416  34.948  52.507  0.00  0.00     0.030 A 
ATOM     19  C   UNL d   1      48.722  35.116  52.093  0.00  0.00     0.059 A 
ATOM     20 CL   UNL d   1      48.649  34.880  51.306  0.00  0.00    -0.082 Cl
ATOM     21  C   UNL d   1      48.106  35.515  52.459  0.00  0.00     0.011 A 
ATOM     22  C   UNL d   1      48.180  35.751  53.245  0.00  0.00     0.001 A 
ATOM     23  C   UNL d   1      48.876  35.582  53.659  0.00  0.00     0.000 A 
ATOM     24  C   UNL d   1      49.489  35.184  53.293  0.00  0.00     0.002 A 
ENDBRANCH  17  18
ENDBRANCH  15  17
ENDBRANCH  13  14
ENDBRANCH  12  13
ENDBRANCH   2  12
BRANCH   1  25
ATOM     25  N   UNL d   1      53.711  33.056  53.433  0.00  0.00    -0.119 NA
ATOM     26  C   UNL d   1      53.769  33.378  54.180  0.00  0.00     0.296 C 
ATOM     27  O   UNL d   1      53.465  32.981  54.836  0.00  0.00    -0.264 OA
BRANCH  26  28
ATOM     28  C   UNL d   1      54.138  34.113  54.280  0.00  0.00     0.064 C 
BRANCH  28  29
ATOM     29  C   UNL d   1      53.696  34.758  54.496  0.00  0.00     0.005 A 
ATOM     30  C   UNL d   1      53.602  35.380  53.962  0.00  0.00     0.000 A 
ATOM     31  C   UNL d   1      53.153  36.037  54.181  0.00  0.00     0.000 A 
ATOM     32  C   UNL d   1      52.805  36.070  54.915  0.00  0.00     0.000 A 
ATOM     33  C   UNL d   1      52.905  35.439  55.445  0.00  0.00     0.000 A 
ATOM     34  C   UNL d   1      53.349  34.791  55.229  0.00  0.00     0.000 A 
ENDBRANCH  28  29
ENDBRANCH  26  28
ENDBRANCH   1  25
TORSDOF 8
ENDMDL
MODEL 3
REMARK VINA RESULT:      -6.2      1.948      5.337
REMARK  8 active torsions:
REMARK  status: ('A' for Active; 'I' for Inactive)
REMARK    1  A    between atoms: N_7  and  N_1 
REMARK    2  A    between atoms: S_9  and  C_2 
REMARK       I    between atoms: C_8  and  N_7 
REMARK    3  A    between atoms: C_19  and  C_8 
REMARK    4  A    between atoms: C_18  and  S_9 
REMARK    5  A    between atoms: C_10  and  C_18 
REMARK       I    between atoms: N_13  and  C_10 
REMARK    6  A    between atoms: C_12  and  C_14 
REMARK    7  A    between atoms: C_14  and  N_13 
REMARK    8  A    between atoms: C_22  and  C_19 
ROOT
ATOM      1  N   UNL d   1      51.406  33.980  53.497  0.00  0.00    -0.168 N 
ATOM      2  C   UNL d   1      51.489  33.394  52.946  0.00  0.00     0.199 A 
ATOM      3  C   UNL d   1      50.822  34.560  53.403  0.00  0.00     0.283 A 
ATOM      4  N   UNL d   1      50.987  33.363  52.272  0.00  0.00    -0.221 NA
ATOM      5  C   UNL d   1      50.319  34.534  52.733  0.00  0.00     0.076 A 
ATOM      6  C   UNL d   1      50.404  33.936  52.171  0.00  0.00     0.088 A 
ATOM      7  O   UNL d   1      50.733  35.160  53.962  0.00  0.00    -0.265 OA
ATOM      8  C   UNL d   1      49.736  35.117  52.644  0.00  0.00     0.006 A 
ATOM      9  C   UNL d   1      49.908  33.918  51.519  0.00  0.00     0.019 A 
ATOM     10  C   UNL d   1      49.242  35.088  51.982  0.00  0.00     0.000 A 
ATOM     11  C   UNL d   1      49.327  34.490  51.419  0.00  0.00     0.002 A 
ENDROOT
BRANCH   2  12
ATOM     12  S   UNL d   1      52.063  32.824  53.038  0.00  0.00    -0.043 SA
BRANCH  12  13
ATOM     13  C   UNL d   1      51.913  32.045  52.815  0.00  0.00     0.101 C 
BRANCH  13  14
ATOM     14  C   UNL d   1      52.517  31.495  52.819  0.00  0.00     0.286 C 
ATOM     15  N   UNL d   1      52.522  30.893  53.378  0.00  0.00    -0.206 NA
ATOM     16  O   UNL d   1      53.123  31.542  52.262  0.00  0.00    -0.265 OA
BRANCH  15  17
ATOM     17  C   UNL d   1      53.127  30.342  53.383  0.00  0.00     0.103 C 
BRANCH  17  18
ATOM     18  C   UNL d   1      53.211  29.828  54.017  0.00  0.00     0.030 A 
ATOM     19  C   UNL d   1      53.230  29.012  53.894  0.00  0.00     0.059 A 
ATOM     20 CL   UNL d   1      53.166  28.713  53.128  0.00  0.00    -0.082 Cl
ATOM     21  C   UNL d   1      53.314  28.499  54.528  0.00  0.00     0.011 A 
ATOM     22  C   UNL d   1      53.378  28.797  55.293  0.00  0.00     0.001 A 
ATOM     23  C   UNL d   1      53.358  29.615  55.416  0.00  0.00     0.000 A 
ATOM     24  C   UNL d   1      53.275  30.127  54.783  0.00  0.00     0.002 A 
ENDBRANCH  17  18
ENDBRANCH  15  17
ENDBRANCH  13  14
ENDBRANCH  12  13
ENDBRANCH   2  12
BRANCH   1  25
ATOM     25  N   UNL d   1      51.895  34.007  54.150  0.00  0.00    -0.119 NA
ATOM     26  C   UNL d   1      52.532  34.517  54.158  0.00  0.00     0.296 C 
ATOM     27  O   UNL d   1      52.688  35.007  53.514  0.00  0.00    -0.264 OA
BRANCH  26  28
ATOM     28  C   UNL d   1      53.026  34.542  54.822  0.00  0.00     0.064 C 
BRANCH  28  29
ATOM     29  C   UNL d   1      53.768  34.214  54.782  0.00  0.00     0.005 A 
ATOM     30  C   UNL d   1      53.981  33.630  55.325  0.00  0.00     0.000 A 
ATOM     31  C   UNL d   1      54.735  33.297  55.285  0.00  0.00     0.000 A 
ATOM     32  C   UNL d   1      55.262  33.542  54.717  0.00  0.00     0.000 A 
ATOM     33  C   UNL d   1      55.038  34.130  54.175  0.00  0.00     0.000 A 
ATOM     34  C   UNL d   1      54.294  34.459  54.215  0.00  0.00     0.000 A 
ENDBRANCH  28  29
ENDBRANCH  26  28
ENDBRANCH   1  25
TORSDOF 8
ENDMDL
MODEL 4
REMARK VINA RESULT:      -5.8      1.815      5.403
REMARK  8 active torsions:
REMARK  status: ('A' for Active; 'I' for Inactive)
REMARK    1  A    between atoms: N_7  and  N_1 
REMARK    2  A    between atoms: S_9  and  C_2 
REMARK       I    between atoms: C_8  and  N_7 
REMARK    3  A    between atoms: C_19  and  C_8 
REMARK    4  A    between atoms: C_18  and  S_9 
REMARK    5  A    between atoms: C_10  and  C_18 
REMARK       I    between atoms: N_13  and  C_10 
REMARK    6  A    between atoms: C_12  and  C_14 
REMARK    7  A    between atoms: C_14  and  N_13 
REMARK    8  A    between atoms: C_22  and  C_19 
ROOT
ATOM      1  N   UNL d   1      52.173  34.101  53.010  0.00  0.00    -0.168 N 
ATOM      2  C   UNL d   1      52.540  33.444  53.307  0.00  0.00     0.199 A 
ATOM      3  C   UNL d   1      52.283  34.838  53.370  0.00  0.00     0.283 A 
ATOM      4  N   UNL d   1      53.038  33.498  53.982  0.00  0.00    -0.221 NA
ATOM      5  C   UNL d   1      52.779  34.898  54.044  0.00  0.00     0.076 A 
ATOM      6  C   UNL d   1      53.154  34.228  54.347  0.00  0.00     0.088 A 
ATOM      7  O   UNL d   1      51.911  35.511  53.072  0.00  0.00    -0.265 OA
ATOM      8  C   UNL d   1      52.886  35.639  54.400  0.00  0.00     0.006 A 
ATOM      9  C   UNL d   1      53.636  34.296  55.005  0.00  0.00     0.019 A 
ATOM     10  C   UNL d   1      53.375  35.694  55.065  0.00  0.00     0.000 A 
ATOM     11  C   UNL d   1      53.750  35.024  55.367  0.00  0.00     0.002 A 
ENDROOT
BRANCH   2  12
ATOM     12  S   UNL d   1      52.432  32.719  52.953  0.00  0.00    -0.043 SA
BRANCH  12  13
ATOM     13  C   UNL d   1      53.051  32.177  52.922  0.00  0.00     0.101 C 
BRANCH  13  14
ATOM     14  C   UNL d   1      52.892  31.376  52.878  0.00  0.00     0.286 C 
ATOM     15  N   UNL d   1      53.124  30.876  53.486  0.00  0.00    -0.206 NA
ATOM     16  O   UNL d   1      52.497  31.069  52.221  0.00  0.00    -0.265 OA
BRANCH  15  17
ATOM     17  C   UNL d   1      52.965  30.074  53.443  0.00  0.00     0.103 C 
BRANCH  17  18
ATOM     18  C   UNL d   1      53.132  29.586  54.080  0.00  0.00     0.030 A 
ATOM     19  C   UNL d   1      53.142  28.766  53.987  0.00  0.00     0.059 A 
ATOM     20 CL   UNL d   1      52.983  28.437  53.248  0.00  0.00    -0.082 Cl
ATOM     21  C   UNL d   1      53.309  28.278  54.625  0.00  0.00     0.011 A 
ATOM     22  C   UNL d   1      53.468  28.607  55.363  0.00  0.00     0.001 A 
ATOM     23  C   UNL d   1      53.457  29.429  55.456  0.00  0.00     0.000 A 
ATOM     24  C   UNL d   1      53.290  29.915  54.819  0.00  0.00     0.002 A 
ENDBRANCH  17  18
ENDBRANCH  15  17
ENDBRANCH  13  14
ENDBRANCH  12  13
ENDBRANCH   2  12
BRANCH   1  25
ATOM     25  N   UNL d   1      51.690  34.044  52.354  0.00  0.00    -0.119 NA
ATOM     26  C   UNL d   1      50.879  34.029  52.448  0.00  0.00     0.296 C 
ATOM     27  O   UNL d   1      50.540  34.071  53.200  0.00  0.00    -0.264 OA
BRANCH  26  28
ATOM     28  C   UNL d   1      50.392  33.971  51.782  0.00  0.00     0.064 C 
BRANCH  28  29
ATOM     29  C   UNL d   1      49.684  34.365  51.767  0.00  0.00     0.005 A 
ATOM     30  C   UNL d   1      49.281  34.447  51.051  0.00  0.00     0.000 A 
ATOM     31  C   UNL d   1      48.560  34.848  51.036  0.00  0.00     0.000 A 
ATOM     32  C   UNL d   1      48.250  35.160  51.720  0.00  0.00     0.000 A 
ATOM     33  C   UNL d   1      48.662  35.073  52.435  0.00  0.00     0.000 A 
ATOM     34  C   UNL d   1      49.373  34.677  52.450  0.00  0.00     0.000 A 
ENDBRANCH  28  29
ENDBRANCH  26  28
ENDBRANCH   1  25
TORSDOF 8
ENDMDL
