MODEL 1
REMARK VINA RESULT:      22.6      0.000      0.000
REMARK  2 active torsions:
REMARK  status: ('A' for Active; 'I' for Inactive)
REMARK    1  A    between atoms: N_10  and  C_1 
REMARK       I    between atoms: C_12  and  N_10 
REMARK    2  A    between atoms: C_17  and  C_12 
ROOT
ATOM      1  C   UNL d   1     -51.345  26.413  33.306  0.00  0.00     0.197 A 
ATOM      2  C   UNL d   1     -51.934  25.225  33.306  0.00  0.00     0.057 A 
ATOM      3  C   UNL d   1     -52.436  24.600  33.306  0.00  0.00     0.056 A 
ATOM      4  N   UNL d   1     -50.751  25.873  33.306  0.00  0.00    -0.221 NA
ATOM      5  S   UNL d   1     -52.097  26.048  33.306  0.00  0.00    -0.046 SA
ATOM      6  N   UNL d   1     -52.770  23.317  33.306  0.00  0.00    -0.238 NA
ATOM      7  S   UNL d   1     -53.246  24.539  33.306  0.00  0.00    -0.066 SA
ATOM      8  C   UNL d   1     -51.118  25.119  33.306  0.00  0.00     0.090 A 
ATOM      9  C   UNL d   1     -52.144  23.823  33.306  0.00  0.00     0.088 A 
ATOM     10  C   UNL d   1     -53.458  23.704  33.306  0.00  0.00     0.111 A 
ATOM     11  C   UNL d   1     -50.811  24.354  33.306  0.00  0.00     0.021 A 
ATOM     12  C   UNL d   1     -51.333  23.690  33.306  0.00  0.00     0.021 A 
ATOM     13  C   UNL d   1     -54.227  23.368  33.306  0.00  0.00     0.028 C 
ENDROOT
BRANCH   1  14
ATOM     14  N   UNL d   1     -51.234  27.262  33.306  0.00  0.00    -0.183 NA
ATOM     15  C   UNL d   1     -50.472  27.557  33.344  0.00  0.00     0.281 C 
ATOM     16  O   UNL d   1     -49.843  26.977  33.382  0.00  0.00    -0.265 OA
BRANCH  15  17
ATOM     17  C   UNL d   1     -50.370  28.338  33.344  0.00  0.00     0.063 C 
ATOM     18  C   UNL d   1     -49.569  28.703  33.717  0.00  0.00     0.005 C 
ENDBRANCH  15  17
ENDBRANCH   1  14
TORSDOF 2
ENDMDL
