MODEL 1
REMARK VINA RESULT:      73.0      0.000      0.000
REMARK  6 active torsions:
REMARK  status: ('A' for Active; 'I' for Inactive)
REMARK    1  A    between atoms: C_10  and  N_1 
REMARK    2  A    between atoms: S_8  and  C_6 
REMARK    3  A    between atoms: C_13  and  S_8 
REMARK    4  A    between atoms: C_11  and  C_13 
REMARK    5  A    between atoms: O_18  and  C_11 
REMARK    6  A    between atoms: C_23  and  O_18 
ROOT
ATOM      1  N   UNL d   1      61.039  46.070  50.532  0.00  0.00    -0.193 N 
ATOM      2  N   UNL d   1      60.479  46.141  51.124  0.00  0.00    -0.058 NA
ATOM      3  C   UNL d   1      61.297  46.825  50.340  0.00  0.00     0.188 A 
ATOM      4  C   UNL d   1      60.887  47.357  50.820  0.00  0.00     0.164 A 
ATOM      5  N   UNL d   1      60.384  46.920  51.301  0.00  0.00    -0.125 NA
ATOM      6  C   UNL d   1      61.023  48.157  50.759  0.00  0.00     0.135 A 
ATOM      7  N   UNL d   1      61.842  47.095  49.799  0.00  0.00    -0.203 NA
ATOM      8  N   UNL d   1      61.576  48.438  50.211  0.00  0.00    -0.216 NA
ATOM      9  C   UNL d   1      61.985  47.906  49.731  0.00  0.00     0.201 A 
ENDROOT
BRANCH   6  10
ATOM     10  S   UNL d   1      60.614  48.689  51.240  0.00  0.00    -0.061 SA
BRANCH  10  11
ATOM     11  C   UNL d   1      60.220  49.322  50.912  0.00  0.00     0.094 C 
ATOM     12  C   UNL d   1      60.539  49.700  50.258  0.00  0.00     0.013 C 
BRANCH  11  13
ATOM     13  C   UNL d   1      59.507  49.575  51.240  0.00  0.00     0.306 C 
ATOM     14  O   UNL d   1      59.439  49.703  52.047  0.00  0.00    -0.258 OA
BRANCH  13  15
ATOM     15  O   UNL d   1      58.856  49.700  50.745  0.00  0.00    -0.271 OA
BRANCH  15  16
ATOM     16  C   UNL d   1      58.093  49.569  51.028  0.00  0.00     0.126 C 
ATOM     17  C   UNL d   1      57.440  49.698  50.535  0.00  0.00     0.029 C 
ENDBRANCH  15  16
ENDBRANCH  13  15
ENDBRANCH  11  13
ENDBRANCH  10  11
ENDBRANCH   6  10
BRANCH   1  18
ATOM     18  C   UNL d   1      61.272  45.355  50.218  0.00  0.00     0.086 A 
ATOM     19  C   UNL d   1      61.517  45.310  49.430  0.00  0.00     0.022 A 
ATOM     20  C   UNL d   1      61.754  44.588  49.108  0.00  0.00     0.031 A 
ATOM     21  C   UNL d   1      61.746  43.911  49.565  0.00  0.00     0.140 A 
ATOM     22  C   UNL d   1      61.501  43.955  50.352  0.00  0.00     0.031 A 
ATOM     23  F   UNL d   1      61.996  43.184  49.202  0.00  0.00    -0.204 F 
ATOM     24  C   UNL d   1      61.264  44.668  50.682  0.00  0.00     0.022 A 
ENDBRANCH   1  18
TORSDOF 6
ENDMDL
MODEL 2
REMARK VINA RESULT:      73.4      0.662      1.245
REMARK  6 active torsions:
REMARK  status: ('A' for Active; 'I' for Inactive)
REMARK    1  A    between atoms: C_10  and  N_1 
REMARK    2  A    between atoms: S_8  and  C_6 
REMARK    3  A    between atoms: C_13  and  S_8 
REMARK    4  A    between atoms: C_11  and  C_13 
REMARK    5  A    between atoms: O_18  and  C_11 
REMARK    6  A    between atoms: C_23  and  O_18 
ROOT
ATOM      1  N   UNL d   1      61.533  46.301  49.851  0.00  0.00    -0.193 N 
ATOM      2  N   UNL d   1      61.728  46.898  49.329  0.00  0.00    -0.058 NA
ATOM      3  C   UNL d   1      61.236  46.651  50.532  0.00  0.00     0.188 A 
ATOM      4  C   UNL d   1      61.253  47.468  50.418  0.00  0.00     0.164 A 
ATOM      5  N   UNL d   1      61.560  47.608  49.669  0.00  0.00    -0.125 NA
ATOM      6  C   UNL d   1      60.991  47.971  51.002  0.00  0.00     0.135 A 
ATOM      7  N   UNL d   1      60.956  46.338  51.229  0.00  0.00    -0.203 NA
ATOM      8  N   UNL d   1      60.706  47.659  51.713  0.00  0.00    -0.216 NA
ATOM      9  C   UNL d   1      60.688  46.842  51.827  0.00  0.00     0.201 A 
ENDROOT
BRANCH   6  10
ATOM     10  S   UNL d   1      61.008  48.788  50.888  0.00  0.00    -0.061 SA
BRANCH  10  11
ATOM     11  C   UNL d   1      60.385  49.252  51.133  0.00  0.00     0.094 C 
ATOM     12  C   UNL d   1      60.294  49.415  51.931  0.00  0.00     0.013 C 
BRANCH  11  13
ATOM     13  C   UNL d   1      59.854  49.551  50.577  0.00  0.00     0.306 C 
ATOM     14  O   UNL d   1      60.093  49.705  49.808  0.00  0.00    -0.258 OA
BRANCH  13  15
ATOM     15  O   UNL d   1      59.071  49.695  50.804  0.00  0.00    -0.271 OA
BRANCH  15  16
ATOM     16  C   UNL d   1      58.464  49.632  50.248  0.00  0.00     0.126 C 
ATOM     17  C   UNL d   1      57.690  49.479  50.497  0.00  0.00     0.029 C 
ENDBRANCH  15  16
ENDBRANCH  13  15
ENDBRANCH  11  13
ENDBRANCH  10  11
ENDBRANCH   6  10
BRANCH   1  18
ATOM     18  C   UNL d   1      61.631  45.509  49.684  0.00  0.00     0.086 A 
ATOM     19  C   UNL d   1      62.034  45.278  49.001  0.00  0.00     0.022 A 
ATOM     20  C   UNL d   1      62.137  44.477  48.828  0.00  0.00     0.031 A 
ATOM     21  C   UNL d   1      61.840  43.906  49.331  0.00  0.00     0.140 A 
ATOM     22  C   UNL d   1      61.437  44.137  50.015  0.00  0.00     0.031 A 
ATOM     23  F   UNL d   1      61.963  43.091  49.124  0.00  0.00    -0.204 F 
ATOM     24  C   UNL d   1      61.330  44.930  50.195  0.00  0.00     0.022 A 
ENDBRANCH   1  18
TORSDOF 6
ENDMDL
