MODEL 1
REMARK VINA RESULT:      -6.1      0.000      0.000
REMARK  3 active torsions:
REMARK  status: ('A' for Active; 'I' for Inactive)
REMARK    1  A    between atoms: C_6  and  C_1 
REMARK    2  A    between atoms: C_7  and  C_5 
REMARK    3  A    between atoms: C_15  and  C_14 
ROOT
ATOM      1  C   UNL d   1      58.041  -0.205  30.141  0.00  0.00     0.169 A 
ATOM      2  C   UNL d   1      57.833   0.419  30.571  0.00  0.00     0.048 A 
ATOM      3  N   UNL d   1      57.291  -0.999  30.935  0.00  0.00    -0.148 NA
ATOM      4  N   UNL d   1      57.768  -0.923  30.324  0.00  0.00    -0.142 NA
ATOM      5  C   UNL d   1      57.080  -0.374  31.369  0.00  0.00     0.105 A 
ENDROOT
BRANCH   5   6
ATOM      6  C   UNL d   1      56.604  -0.266  32.024  0.00  0.00     0.019 A 
ATOM      7  C   UNL d   1      56.420   0.506  32.272  0.00  0.00     0.002 A 
ATOM      8  C   UNL d   1      55.944   0.620  32.927  0.00  0.00     0.000 A 
ATOM      9  C   UNL d   1      55.646  -0.026  33.344  0.00  0.00     0.000 A 
ATOM     10  C   UNL d   1      55.831  -0.798  33.096  0.00  0.00     0.000 A 
ATOM     11  C   UNL d   1      56.311  -0.910  32.434  0.00  0.00     0.002 A 
BRANCH   9  12
ATOM     12  C   UNL d   1      55.153   0.093  34.023  0.00  0.00     0.000 C 
ATOM     13  C   UNL d   1      54.550   0.682  34.009  0.00  0.00     0.000 C 
ENDBRANCH   9  12
ENDBRANCH   5   6
BRANCH   1  14
ATOM     14  C   UNL d   1      58.521  -0.107  29.532  0.00  0.00     0.231 C 
ATOM     15  O   UNL d   1      59.301  -0.068  29.652  0.00  0.00    -0.643 OA
ATOM     16  O   UNL d   1      58.230  -0.047  28.801  0.00  0.00    -0.643 OA
ENDBRANCH   1  14
TORSDOF 3
ENDMDL
