MODEL 1
REMARK VINA RESULT:      32.1      0.000      0.000
REMARK  5 active torsions:
REMARK  status: ('A' for Active; 'I' for Inactive)
REMARK    1  A    between atoms: C_9  and  C_1 
REMARK    2  A    between atoms: C_6  and  C_4 
REMARK    3  A    between atoms: C_5  and  C_6 
REMARK    4  A    between atoms: C_8  and  C_5 
REMARK    5  A    between atoms: C_11  and  C_8 
ROOT
ATOM      1  C   UNL d   1      13.583  12.188  -2.291  0.00  0.00     0.100 A 
ATOM      2  O   UNL d   1      13.705  12.976  -2.584  0.00  0.00    -0.307 OA
ATOM      3  C   UNL d   1      13.202  11.780  -2.831  0.00  0.00     0.027 A 
ATOM      4  C   UNL d   1      13.358  12.986  -3.344  0.00  0.00     0.100 A 
ATOM      5  C   UNL d   1      13.055  12.246  -3.481  0.00  0.00     0.027 A 
ENDROOT
BRANCH   4   6
ATOM      6  C   UNL d   1      13.294  13.585  -3.907  0.00  0.00     0.028 C 
BRANCH   6   7
ATOM      7  C   UNL d   1      13.860  14.161  -3.949  0.00  0.00     0.044 C 
BRANCH   7   8
ATOM      8  C   UNL d   1      13.689  14.879  -4.317  0.00  0.00     0.196 C 
ATOM      9  O   UNL d   1      13.009  14.930  -4.809  0.00  0.00    -0.287 OA
BRANCH   8  10
ATOM     10  C   UNL d   1      14.175  15.523  -4.199  0.00  0.00     0.039 A 
ATOM     11  C   UNL d   1      14.517  15.929  -4.840  0.00  0.00     0.003 A 
ATOM     12  C   UNL d   1      15.006  16.577  -4.720  0.00  0.00     0.000 A 
ATOM     13  C   UNL d   1      15.163  16.832  -3.945  0.00  0.00     0.000 A 
ATOM     14  C   UNL d   1      14.824  16.429  -3.306  0.00  0.00     0.000 A 
ATOM     15  C   UNL d   1      14.341  15.789  -3.439  0.00  0.00     0.003 A 
ENDBRANCH   8  10
ENDBRANCH   7   8
ENDBRANCH   6   7
ENDBRANCH   4   6
BRANCH   1  16
ATOM     16  C   UNL d   1      13.888  12.053  -1.534  0.00  0.00     0.023 A 
ATOM     17  C   UNL d   1      14.709  11.919  -1.435  0.00  0.00     0.002 A 
ATOM     18  C   UNL d   1      15.009  11.784  -0.673  0.00  0.00     0.000 A 
ATOM     19  C   UNL d   1      14.514  11.781  -0.034  0.00  0.00     0.000 A 
ATOM     20  C   UNL d   1      13.689  11.914  -0.129  0.00  0.00     0.000 A 
ATOM     21  C   UNL d   1      13.389  12.050  -0.891  0.00  0.00     0.002 A 
ENDBRANCH   1  16
TORSDOF 5
ENDMDL
MODEL 2
REMARK VINA RESULT:      35.0      1.764      2.976
REMARK  5 active torsions:
REMARK  status: ('A' for Active; 'I' for Inactive)
REMARK    1  A    between atoms: C_9  and  C_1 
REMARK    2  A    between atoms: C_6  and  C_4 
REMARK    3  A    between atoms: C_5  and  C_6 
REMARK    4  A    between atoms: C_8  and  C_5 
REMARK    5  A    between atoms: C_11  and  C_8 
ROOT
ATOM      1  C   UNL d   1      14.655  12.502  -1.234  0.00  0.00     0.100 A 
ATOM      2  O   UNL d   1      14.622  13.333  -1.059  0.00  0.00    -0.307 OA
ATOM      3  C   UNL d   1      15.166  12.168  -0.753  0.00  0.00     0.027 A 
ATOM      4  C   UNL d   1      15.161  13.449  -0.433  0.00  0.00     0.100 A 
ATOM      5  C   UNL d   1      15.487  12.726  -0.256  0.00  0.00     0.027 A 
ENDROOT
BRANCH   4   6
ATOM      6  C   UNL d   1      15.380  14.127  -0.019  0.00  0.00     0.028 C 
BRANCH   6   7
ATOM      7  C   UNL d   1      15.540  14.811  -0.421  0.00  0.00     0.044 C 
BRANCH   7   8
ATOM      8  C   UNL d   1      14.940  15.360  -0.553  0.00  0.00     0.196 C 
ATOM      9  O   UNL d   1      14.272  15.362  -0.042  0.00  0.00    -0.287 OA
BRANCH   8  10
ATOM     10  C   UNL d   1      15.002  15.889  -1.170  0.00  0.00     0.039 A 
ATOM     11  C   UNL d   1      15.081  16.707  -1.032  0.00  0.00     0.003 A 
ATOM     12  C   UNL d   1      15.143  17.239  -1.655  0.00  0.00     0.000 A 
ATOM     13  C   UNL d   1      15.126  16.956  -2.436  0.00  0.00     0.000 A 
ATOM     14  C   UNL d   1      15.047  16.143  -2.574  0.00  0.00     0.000 A 
ATOM     15  C   UNL d   1      14.987  15.628  -1.949  0.00  0.00     0.003 A 
ENDBRANCH   8  10
ENDBRANCH   7   8
ENDBRANCH   6   7
ENDBRANCH   4   6
BRANCH   1  16
ATOM     16  C   UNL d   1      14.156  12.260  -1.847  0.00  0.00     0.023 A 
ATOM     17  C   UNL d   1      14.448  12.227  -2.632  0.00  0.00     0.002 A 
ATOM     18  C   UNL d   1      13.943  11.984  -3.244  0.00  0.00     0.000 A 
ATOM     19  C   UNL d   1      13.177  11.781  -3.084  0.00  0.00     0.000 A 
ATOM     20  C   UNL d   1      12.879  11.812  -2.298  0.00  0.00     0.000 A 
ATOM     21  C   UNL d   1      13.384  12.055  -1.686  0.00  0.00     0.002 A 
ENDBRANCH   1  16
TORSDOF 5
ENDMDL
