MODEL 1
REMARK VINA RESULT:      23.5      0.000      0.000
REMARK  6 active torsions:
REMARK  status: ('A' for Active; 'I' for Inactive)
REMARK    1  A    between atoms: N_3  and  C_1 
REMARK    2  A    between atoms: C_4  and  C_2 
REMARK       I    between atoms: C_6  and  N_3 
REMARK    3  A    between atoms: C_11  and  C_6 
REMARK    4  A    between atoms: C_13  and  C_11 
REMARK    5  A    between atoms: O_19  and  C_14 
REMARK    6  A    between atoms: C_20  and  O_19 
ROOT
ATOM      1  N   UNL d   1      14.333  13.090  -0.961  0.00  0.00    -0.201 NA
ATOM      2  C   UNL d   1      14.244  12.334  -1.277  0.00  0.00     0.280 C 
ATOM      3  O   UNL d   1      14.869  11.784  -1.224  0.00  0.00    -0.265 OA
ENDROOT
BRANCH   2   4
ATOM      4  C   UNL d   1      13.536  12.118  -1.647  0.00  0.00     0.062 C 
BRANCH   4   5
ATOM      5  C   UNL d   1      13.462  12.190  -2.473  0.00  0.00     0.005 A 
ATOM      6  C   UNL d   1      13.992  12.660  -2.896  0.00  0.00     0.002 A 
ATOM      7  C   UNL d   1      13.916  12.728  -3.715  0.00  0.00     0.025 A 
ATOM      8  C   UNL d   1      13.302  12.320  -4.116  0.00  0.00     0.100 A 
ATOM      9  C   UNL d   1      12.779  11.854  -3.688  0.00  0.00     0.025 A 
ATOM     10  C   UNL d   1      12.848  11.782  -2.874  0.00  0.00     0.002 A 
BRANCH   8  11
ATOM     11  O   UNL d   1      13.236  12.398  -4.942  0.00  0.00    -0.305 OA
BRANCH  11  12
ATOM     12  C   UNL d   1      13.825  12.123  -5.444  0.00  0.00     0.123 C 
ATOM     13  C   UNL d   1      13.673  11.994  -6.240  0.00  0.00     0.029 C 
ENDBRANCH  11  12
ENDBRANCH   8  11
ENDBRANCH   4   5
ENDBRANCH   2   4
BRANCH   1  14
ATOM     14  C   UNL d   1      15.047  13.301  -0.590  0.00  0.00     0.119 A 
ATOM     15  C   UNL d   1      15.259  14.068  -0.375  0.00  0.00     0.084 A 
ATOM     16  C   UNL d   1      16.005  14.034  -0.025  0.00  0.00     0.014 A 
ATOM     17  C   UNL d   1      16.259  13.237  -0.024  0.00  0.00     0.037 A 
ATOM     18  S   UNL d   1      15.655  12.797  -0.377  0.00  0.00    -0.067 SA
BRANCH  15  19
ATOM     19  C   UNL d   1      14.813  14.763  -0.483  0.00  0.00     0.299 C 
ATOM     20  O   UNL d   1      14.163  14.924  -0.014  0.00  0.00    -0.264 OA
ATOM     21  N   UNL d   1      15.038  15.296  -1.078  0.00  0.00    -0.102 N 
ENDBRANCH  15  19
ENDBRANCH   1  14
TORSDOF 6
ENDMDL
