MODEL 1
REMARK VINA RESULT:      -3.5      0.000      0.000
REMARK  2 active torsions:
REMARK  status: ('A' for Active; 'I' for Inactive)
REMARK    1  A    between atoms: C_4  and  C_1 
REMARK    2  A    between atoms: C_8  and  C_4 
ROOT
ATOM      1  C   UNL d   1      31.074  16.536 -24.015  0.00  0.00     0.139 A 
ATOM      2  O   UNL d   1      30.922  15.988 -23.411  0.00  0.00    -0.304 OA
ATOM      3  C   UNL d   1      30.375  16.794 -24.327  0.00  0.00     0.030 A 
ATOM      4  C   UNL d   1      30.098  15.915 -23.361  0.00  0.00     0.100 A 
ATOM      5  C   UNL d   1      29.761  16.411 -23.925  0.00  0.00     0.025 A 
ATOM      6  C   UNL d   1      29.617  15.453 -22.864  0.00  0.00     0.025 A 
ATOM      7  C   UNL d   1      28.935  16.458 -24.008  0.00  0.00     0.002 A 
ATOM      8  C   UNL d   1      28.798  15.501 -22.948  0.00  0.00     0.002 A 
ATOM      9  C   UNL d   1      28.461  15.997 -23.512  0.00  0.00     0.000 A 
ENDROOT
BRANCH   1  10
ATOM     10  C   UNL d   1      31.842  16.781 -24.259  0.00  0.00     0.218 C 
ATOM     11  O   UNL d   1      32.188  16.465 -24.945  0.00  0.00    -0.284 OA
BRANCH  10  12
ATOM     12  C   UNL d   1      32.266  17.339 -23.822  0.00  0.00     0.041 A 
ATOM     13  C   UNL d   1      32.810  17.069 -23.260  0.00  0.00     0.003 A 
ATOM     14  C   UNL d   1      33.239  17.628 -22.819  0.00  0.00     0.000 A 
ATOM     15  C   UNL d   1      33.125  18.433 -22.940  0.00  0.00     0.000 A 
ATOM     16  C   UNL d   1      32.579  18.696 -23.504  0.00  0.00     0.000 A 
ATOM     17  C   UNL d   1      32.151  18.144 -23.943  0.00  0.00     0.003 A 
ENDBRANCH  10  12
ENDBRANCH   1  10
TORSDOF 2
ENDMDL
MODEL 2
REMARK VINA RESULT:      -3.5      0.649      3.464
REMARK  2 active torsions:
REMARK  status: ('A' for Active; 'I' for Inactive)
REMARK    1  A    between atoms: C_4  and  C_1 
REMARK    2  A    between atoms: C_8  and  C_4 
ROOT
ATOM      1  C   UNL d   1      31.454  16.689 -24.010  0.00  0.00     0.139 A 
ATOM      2  O   UNL d   1      31.940  16.746 -23.340  0.00  0.00    -0.304 OA
ATOM      3  C   UNL d   1      31.555  17.343 -24.472  0.00  0.00     0.030 A 
ATOM      4  C   UNL d   1      32.348  17.466 -23.405  0.00  0.00     0.100 A 
ATOM      5  C   UNL d   1      32.111  17.833 -24.103  0.00  0.00     0.025 A 
ATOM      6  C   UNL d   1      32.908  17.826 -22.908  0.00  0.00     0.025 A 
ATOM      7  C   UNL d   1      32.427  18.571 -24.321  0.00  0.00     0.002 A 
ATOM      8  C   UNL d   1      33.220  18.558 -23.127  0.00  0.00     0.002 A 
ATOM      9  C   UNL d   1      32.983  18.925 -23.824  0.00  0.00     0.000 A 
ENDROOT
BRANCH   1  10
ATOM     10  C   UNL d   1      30.939  16.044 -24.174  0.00  0.00     0.218 C 
ATOM     11  O   UNL d   1      31.161  15.453 -24.715  0.00  0.00    -0.284 OA
BRANCH  10  12
ATOM     12  C   UNL d   1      30.204  15.985 -23.803  0.00  0.00     0.041 A 
ATOM     13  C   UNL d   1      30.142  15.515 -23.124  0.00  0.00     0.003 A 
ATOM     14  C   UNL d   1      29.403  15.453 -22.748  0.00  0.00     0.000 A 
ATOM     15  C   UNL d   1      28.748  15.850 -23.044  0.00  0.00     0.000 A 
ATOM     16  C   UNL d   1      28.818  16.319 -23.724  0.00  0.00     0.000 A 
ATOM     17  C   UNL d   1      29.549  16.382 -24.100  0.00  0.00     0.003 A 
ENDBRANCH  10  12
ENDBRANCH   1  10
TORSDOF 2
ENDMDL
MODEL 3
REMARK VINA RESULT:      -2.9      0.976      3.703
REMARK  2 active torsions:
REMARK  status: ('A' for Active; 'I' for Inactive)
REMARK    1  A    between atoms: C_4  and  C_1 
REMARK    2  A    between atoms: C_8  and  C_4 
ROOT
ATOM      1  C   UNL d   1      32.523  17.566 -23.712  0.00  0.00     0.139 A 
ATOM      2  O   UNL d   1      32.650  17.723 -22.907  0.00  0.00    -0.304 OA
ATOM      3  C   UNL d   1      32.648  18.239 -24.141  0.00  0.00     0.030 A 
ATOM      4  C   UNL d   1      32.860  18.523 -22.853  0.00  0.00     0.100 A 
ATOM      5  C   UNL d   1      32.859  18.841 -23.613  0.00  0.00     0.025 A 
ATOM      6  C   UNL d   1      33.052  18.997 -22.198  0.00  0.00     0.025 A 
ATOM      7  C   UNL d   1      33.050  19.641 -23.737  0.00  0.00     0.002 A 
ATOM      8  C   UNL d   1      33.241  19.790 -22.324  0.00  0.00     0.002 A 
ATOM      9  C   UNL d   1      33.240  20.108 -23.083  0.00  0.00     0.000 A 
ENDROOT
BRANCH   1  10
ATOM     10  C   UNL d   1      32.298  16.818 -24.025  0.00  0.00     0.218 C 
ATOM     11  O   UNL d   1      32.864  16.318 -24.374  0.00  0.00    -0.284 OA
BRANCH  10  12
ATOM     12  C   UNL d   1      31.513  16.564 -23.992  0.00  0.00     0.041 A 
ATOM     13  C   UNL d   1      30.994  16.808 -24.590  0.00  0.00     0.003 A 
ATOM     14  C   UNL d   1      30.203  16.554 -24.560  0.00  0.00     0.000 A 
ATOM     15  C   UNL d   1      29.941  16.071 -23.949  0.00  0.00     0.000 A 
ATOM     16  C   UNL d   1      30.466  15.832 -23.354  0.00  0.00     0.000 A 
ATOM     17  C   UNL d   1      31.252  16.081 -23.381  0.00  0.00     0.003 A 
ENDBRANCH  10  12
ENDBRANCH   1  10
TORSDOF 2
ENDMDL
MODEL 4
REMARK VINA RESULT:      -2.2      1.031      3.719
REMARK  2 active torsions:
REMARK  status: ('A' for Active; 'I' for Inactive)
REMARK    1  A    between atoms: C_4  and  C_1 
REMARK    2  A    between atoms: C_8  and  C_4 
ROOT
ATOM      1  C   UNL d   1      31.000  16.326 -23.762  0.00  0.00     0.139 A 
ATOM      2  O   UNL d   1      31.150  17.140 -23.718  0.00  0.00    -0.304 OA
ATOM      3  C   UNL d   1      31.583  15.966 -24.189  0.00  0.00     0.030 A 
ATOM      4  C   UNL d   1      31.853  17.273 -24.137  0.00  0.00     0.100 A 
ATOM      5  C   UNL d   1      32.120  16.550 -24.427  0.00  0.00     0.025 A 
ATOM      6  C   UNL d   1      32.280  17.971 -24.286  0.00  0.00     0.025 A 
ATOM      7  C   UNL d   1      32.820  16.506 -24.874  0.00  0.00     0.002 A 
ATOM      8  C   UNL d   1      32.974  17.924 -24.729  0.00  0.00     0.002 A 
ATOM      9  C   UNL d   1      33.240  17.202 -25.019  0.00  0.00     0.000 A 
ENDROOT
BRANCH   1  10
ATOM     10  C   UNL d   1      30.338  15.941 -23.412  0.00  0.00     0.218 C 
ATOM     11  O   UNL d   1      30.433  15.470 -22.733  0.00  0.00    -0.284 OA
BRANCH  10  12
ATOM     12  C   UNL d   1      29.582  16.021 -23.734  0.00  0.00     0.041 A 
ATOM     13  C   UNL d   1      29.049  16.538 -23.367  0.00  0.00     0.003 A 
ATOM     14  C   UNL d   1      28.287  16.622 -23.689  0.00  0.00     0.000 A 
ATOM     15  C   UNL d   1      28.068  16.200 -24.360  0.00  0.00     0.000 A 
ATOM     16  C   UNL d   1      28.607  15.685 -24.722  0.00  0.00     0.000 A 
ATOM     17  C   UNL d   1      29.363  15.599 -24.405  0.00  0.00     0.003 A 
ENDBRANCH  10  12
ENDBRANCH   1  10
TORSDOF 2
ENDMDL
MODEL 5
REMARK VINA RESULT:      -1.3      3.054      5.146
REMARK  2 active torsions:
REMARK  status: ('A' for Active; 'I' for Inactive)
REMARK    1  A    between atoms: C_4  and  C_1 
REMARK    2  A    between atoms: C_8  and  C_4 
ROOT
ATOM      1  C   UNL d   1      32.893  20.225 -21.933  0.00  0.00     0.139 A 
ATOM      2  O   UNL d   1      32.415  20.527 -21.327  0.00  0.00    -0.304 OA
ATOM      3  C   UNL d   1      33.241  20.835 -22.332  0.00  0.00     0.030 A 
ATOM      4  C   UNL d   1      32.479  21.353 -21.365  0.00  0.00     0.100 A 
ATOM      5  C   UNL d   1      32.988  21.543 -21.984  0.00  0.00     0.025 A 
ATOM      6  C   UNL d   1      32.132  21.953 -20.906  0.00  0.00     0.025 A 
ATOM      7  C   UNL d   1      33.162  22.337 -22.160  0.00  0.00     0.002 A 
ATOM      8  C   UNL d   1      32.307  22.739 -21.082  0.00  0.00     0.002 A 
ATOM      9  C   UNL d   1      32.815  22.929 -21.701  0.00  0.00     0.000 A 
ENDROOT
BRANCH   1  10
ATOM     10  C   UNL d   1      32.995  19.406 -22.100  0.00  0.00     0.218 C 
ATOM     11  O   UNL d   1      33.241  18.881 -21.504  0.00  0.00    -0.284 OA
BRANCH  10  12
ATOM     12  C   UNL d   1      32.854  19.108 -22.857  0.00  0.00     0.041 A 
ATOM     13  C   UNL d   1      32.341  18.462 -22.937  0.00  0.00     0.003 A 
ATOM     14  C   UNL d   1      32.197  18.160 -23.698  0.00  0.00     0.000 A 
ATOM     15  C   UNL d   1      32.556  18.495 -24.357  0.00  0.00     0.000 A 
ATOM     16  C   UNL d   1      33.067  19.141 -24.268  0.00  0.00     0.000 A 
ATOM     17  C   UNL d   1      33.213  19.444 -23.516  0.00  0.00     0.003 A 
ENDBRANCH  10  12
ENDBRANCH   1  10
TORSDOF 2
ENDMDL
MODEL 6
REMARK VINA RESULT:      -1.1      5.668      6.849
REMARK  2 active torsions:
REMARK  status: ('A' for Active; 'I' for Inactive)
REMARK    1  A    between atoms: C_4  and  C_1 
REMARK    2  A    between atoms: C_8  and  C_4 
ROOT
ATOM      1  C   UNL d   1      32.533  22.177 -21.918  0.00  0.00     0.139 A 
ATOM      2  O   UNL d   1      32.393  22.914 -22.271  0.00  0.00    -0.304 OA
ATOM      3  C   UNL d   1      32.863  21.677 -22.459  0.00  0.00     0.030 A 
ATOM      4  C   UNL d   1      32.650  22.851 -23.057  0.00  0.00     0.100 A 
ATOM      5  C   UNL d   1      32.940  22.090 -23.173  0.00  0.00     0.025 A 
ATOM      6  C   UNL d   1      32.653  23.403 -23.679  0.00  0.00     0.025 A 
ATOM      7  C   UNL d   1      33.240  21.859 -23.913  0.00  0.00     0.002 A 
ATOM      8  C   UNL d   1      32.952  23.171 -24.413  0.00  0.00     0.002 A 
ATOM      9  C   UNL d   1      33.241  22.409 -24.528  0.00  0.00     0.000 A 
ENDROOT
BRANCH   1  10
ATOM     10  C   UNL d   1      32.355  21.988 -21.117  0.00  0.00     0.218 C 
ATOM     11  O   UNL d   1      32.075  21.232 -20.913  0.00  0.00    -0.284 OA
BRANCH  10  12
ATOM     12  C   UNL d   1      32.454  22.548 -20.518  0.00  0.00     0.041 A 
ATOM     13  C   UNL d   1      33.138  22.512 -20.053  0.00  0.00     0.003 A 
ATOM     14  C   UNL d   1      33.241  23.074 -19.449  0.00  0.00     0.000 A 
ATOM     15  C   UNL d   1      32.674  23.654 -19.317  0.00  0.00     0.000 A 
ATOM     16  C   UNL d   1      31.992  23.685 -19.787  0.00  0.00     0.000 A 
ATOM     17  C   UNL d   1      31.887  23.129 -20.386  0.00  0.00     0.003 A 
ENDBRANCH  10  12
ENDBRANCH   1  10
TORSDOF 2
ENDMDL
MODEL 7
REMARK VINA RESULT:      -0.6      1.484      2.064
REMARK  2 active torsions:
REMARK  status: ('A' for Active; 'I' for Inactive)
REMARK    1  A    between atoms: C_4  and  C_1 
REMARK    2  A    between atoms: C_8  and  C_4 
ROOT
ATOM      1  C   UNL d   1      29.212  17.315 -24.314  0.00  0.00     0.139 A 
ATOM      2  O   UNL d   1      29.096  16.509 -24.471  0.00  0.00    -0.304 OA
ATOM      3  C   UNL d   1      28.676  17.562 -23.763  0.00  0.00     0.030 A 
ATOM      4  C   UNL d   1      28.464  16.264 -23.993  0.00  0.00     0.100 A 
ATOM      5  C   UNL d   1      28.205  16.913 -23.557  0.00  0.00     0.025 A 
ATOM      6  C   UNL d   1      28.096  15.524 -23.907  0.00  0.00     0.025 A 
ATOM      7  C   UNL d   1      27.572  16.838 -23.023  0.00  0.00     0.002 A 
ATOM      8  C   UNL d   1      27.468  15.453 -23.377  0.00  0.00     0.002 A 
ATOM      9  C   UNL d   1      27.210  16.101 -22.940  0.00  0.00     0.000 A 
ENDROOT
BRANCH   1  10
ATOM     10  C   UNL d   1      29.800  17.795 -24.678  0.00  0.00     0.218 C 
ATOM     11  O   UNL d   1      29.587  18.481 -25.097  0.00  0.00    -0.284 OA
BRANCH  10  12
ATOM     12  C   UNL d   1      30.599  17.595 -24.628  0.00  0.00     0.041 A 
ATOM     13  C   UNL d   1      31.084  18.030 -24.117  0.00  0.00     0.003 A 
ATOM     14  C   UNL d   1      31.890  17.831 -24.064  0.00  0.00     0.000 A 
ATOM     15  C   UNL d   1      32.198  17.214 -24.511  0.00  0.00     0.000 A 
ATOM     16  C   UNL d   1      31.707  16.783 -25.020  0.00  0.00     0.000 A 
ATOM     17  C   UNL d   1      30.908  16.977 -25.075  0.00  0.00     0.003 A 
ENDBRANCH  10  12
ENDBRANCH   1  10
TORSDOF 2
ENDMDL
