MODEL 1
REMARK VINA RESULT:       4.9      0.000      0.000
REMARK  6 active torsions:
REMARK  status: ('A' for Active; 'I' for Inactive)
REMARK       I    between atoms: C_6  and  N_1 
REMARK    1  A    between atoms: C_7  and  C_3 
REMARK    2  A    between atoms: C_14  and  C_4 
REMARK    3  A    between atoms: C_20  and  C_6 
REMARK    4  A    between atoms: C_11  and  C_22 
REMARK    5  A    between atoms: C_21  and  C_20 
REMARK    6  A    between atoms: C_22  and  C_21 
ROOT
ATOM      1  N   UNL d   1     -41.679-121.566 -51.399  0.00  0.00    -0.195 N 
ATOM      2  N   UNL d   1     -41.815-121.755 -50.591  0.00  0.00    -0.163 NA
ATOM      3  C   UNL d   1     -41.870-122.220 -51.843  0.00  0.00     0.088 A 
ATOM      4  C   UNL d   1     -42.092-122.535 -50.563  0.00  0.00     0.103 A 
ATOM      5  C   UNL d   1     -42.121-122.812 -51.354  0.00  0.00     0.040 A 
ATOM      6  C   UNL d   1     -41.386-120.801 -51.672  0.00  0.00     0.280 C 
ATOM      7  O   UNL d   1     -41.222-120.198 -51.117  0.00  0.00    -0.265 OA
ENDROOT
BRANCH   3   8
ATOM      8  C   UNL d   1     -41.816-122.268 -52.667  0.00  0.00     0.019 A 
ATOM      9  C   UNL d   1     -42.374-121.939 -53.139  0.00  0.00     0.022 A 
ATOM     10  C   UNL d   1     -42.320-121.988 -53.963  0.00  0.00     0.099 A 
ATOM     11  N   UNL d   1     -42.885-121.654 -54.406  0.00  0.00    -0.241 NA
ATOM     12  C   UNL d   1     -41.681-122.382 -54.312  0.00  0.00     0.099 A 
ATOM     13  C   UNL d   1     -42.828-121.704 -55.259  0.00  0.00     0.120 A 
ATOM     14  C   UNL d   1     -42.211-122.085 -55.612  0.00  0.00     0.120 A 
ATOM     15  N   UNL d   1     -41.629-122.429 -55.107  0.00  0.00    -0.241 NA
ATOM     16  C   UNL d   1     -41.123-122.711 -53.811  0.00  0.00     0.021 A 
ATOM     17  C   UNL d   1     -41.176-122.663 -53.017  0.00  0.00     0.003 A 
ENDBRANCH   3   8
BRANCH   6  18
ATOM     18  C   UNL d   1     -41.279-120.695 -52.472  0.00  0.00     0.063 C 
BRANCH  18  19
ATOM     19  C   UNL d   1     -41.374-119.932 -52.796  0.00  0.00     0.011 C 
BRANCH  19  20
ATOM     20  C   UNL d   1     -41.124-119.292 -52.346  0.00  0.00     0.070 C 
BRANCH  20  21
ATOM     21  C   UNL d   1     -41.199-118.520 -52.614  0.00  0.00     0.211 C 
ATOM     22  O   UNL d   1     -41.349-118.386 -53.419  0.00  0.00    -0.644 OA
ATOM     23  O   UNL d   1     -41.129-117.880 -52.104  0.00  0.00    -0.644 OA
ENDBRANCH  20  21
ENDBRANCH  19  20
ENDBRANCH  18  19
ENDBRANCH   6  18
BRANCH   4  24
ATOM     24  C   UNL d   1     -42.302-122.960 -49.862  0.00  0.00     0.019 A 
ATOM     25  C   UNL d   1     -41.773-123.032 -49.263  0.00  0.00     0.002 A 
ATOM     26  C   UNL d   1     -41.964-123.444 -48.574  0.00  0.00     0.000 A 
ATOM     27  C   UNL d   1     -42.705-123.782 -48.505  0.00  0.00     0.000 A 
ATOM     28  C   UNL d   1     -43.248-123.707 -49.123  0.00  0.00     0.000 A 
ATOM     29  C   UNL d   1     -43.057-123.295 -49.812  0.00  0.00     0.002 A 
ENDBRANCH   4  24
TORSDOF 6
ENDMDL
