MODEL 1
REMARK VINA RESULT:      -9.5      0.000      0.000
REMARK  3 active torsions:
REMARK  status: ('A' for Active; 'I' for Inactive)
REMARK    1  A    between atoms: C_2  and  C_1 
REMARK       I    between atoms: N_7  and  C_2 
REMARK    2  A    between atoms: C_9  and  N_7 
REMARK    3  A    between atoms: O_16  and  C_10 
ROOT
ATOM      1  C   UNL d   1      52.880  31.971  52.953  0.00  0.00     0.280 C 
ATOM      2  N   UNL d   1      53.453  31.691  53.475  0.00  0.00    -0.208 NA
ATOM      3  O   UNL d   1      52.477  31.435  52.463  0.00  0.00    -0.265 OA
ENDROOT
BRANCH   1   4
ATOM      4  C   UNL d   1      52.707  32.776  52.914  0.00  0.00     0.065 A 
ATOM      5  C   UNL d   1      51.971  33.121  53.038  0.00  0.00     0.011 A 
ATOM      6  C   UNL d   1      52.059  33.933  52.944  0.00  0.00     0.030 A 
ATOM      7  C   UNL d   1      51.230  32.803  53.224  0.00  0.00     0.001 A 
ATOM      8  C   UNL d   1      51.405  34.435  53.035  0.00  0.00     0.006 A 
ATOM      9  S   UNL d   1      52.844  34.089  52.763  0.00  0.00    -0.086 SA
ATOM     10  C   UNL d   1      50.676  34.123  53.218  0.00  0.00     0.001 A 
ATOM     11  C   UNL d   1      50.584  33.306  53.313  0.00  0.00     0.000 A 
ATOM     12  C   UNL d   1      53.239  33.364  52.747  0.00  0.00     0.040 A 
ENDBRANCH   1   4
BRANCH   2  13
ATOM     13  C   UNL d   1      53.854  32.226  53.963  0.00  0.00     0.085 A 
ATOM     14  C   UNL d   1      53.603  32.338  54.737  0.00  0.00     0.021 A 
ATOM     15  C   UNL d   1      54.005  32.876  55.231  0.00  0.00     0.026 A 
ATOM     16  C   UNL d   1      54.655  33.296  54.944  0.00  0.00     0.094 A 
ATOM     17  C   UNL d   1      54.902  33.178  54.164  0.00  0.00     0.026 A 
ATOM     18  C   UNL d   1      54.504  32.646  53.676  0.00  0.00     0.021 A 
BRANCH  16  19
ATOM     19  O   UNL d   1      55.047  33.830  55.450  0.00  0.00    -0.328 OA
ATOM     20  C   UNL d   1      55.738  34.209  55.204  0.00  0.00     0.181 C 
ENDBRANCH  16  19
ENDBRANCH   2  13
TORSDOF 3
ENDMDL
MODEL 2
REMARK VINA RESULT:      -8.8      1.737      3.129
REMARK  3 active torsions:
REMARK  status: ('A' for Active; 'I' for Inactive)
REMARK    1  A    between atoms: C_2  and  C_1 
REMARK       I    between atoms: N_7  and  C_2 
REMARK    2  A    between atoms: C_9  and  N_7 
REMARK    3  A    between atoms: O_16  and  C_10 
ROOT
ATOM      1  C   UNL d   1      52.699  32.519  52.763  0.00  0.00     0.280 C 
ATOM      2  N   UNL d   1      52.303  31.805  52.650  0.00  0.00    -0.208 NA
ATOM      3  O   UNL d   1      52.412  33.208  52.399  0.00  0.00    -0.265 OA
ENDROOT
BRANCH   1   4
ATOM      4  C   UNL d   1      53.375  32.551  53.234  0.00  0.00     0.065 A 
ATOM      5  C   UNL d   1      53.483  33.026  53.896  0.00  0.00     0.011 A 
ATOM      6  C   UNL d   1      54.237  32.876  54.187  0.00  0.00     0.030 A 
ATOM      7  C   UNL d   1      52.995  33.578  54.274  0.00  0.00     0.001 A 
ATOM      8  C   UNL d   1      54.510  33.277  54.861  0.00  0.00     0.006 A 
ATOM      9  S   UNL d   1      54.592  32.312  53.709  0.00  0.00    -0.086 SA
ATOM     10  C   UNL d   1      54.030  33.819  55.233  0.00  0.00     0.001 A 
ATOM     11  C   UNL d   1      53.271  33.972  54.942  0.00  0.00     0.000 A 
ATOM     12  C   UNL d   1      54.049  32.116  53.119  0.00  0.00     0.040 A 
ENDBRANCH   1   4
BRANCH   2  13
ATOM     13  C   UNL d   1      52.589  31.119  53.013  0.00  0.00     0.085 A 
ATOM     14  C   UNL d   1      53.182  30.683  52.648  0.00  0.00     0.021 A 
ATOM     15  C   UNL d   1      53.473  29.991  53.011  0.00  0.00     0.026 A 
ATOM     16  C   UNL d   1      53.167  29.743  53.736  0.00  0.00     0.094 A 
ATOM     17  C   UNL d   1      52.570  30.187  54.097  0.00  0.00     0.026 A 
ATOM     18  C   UNL d   1      52.282  30.871  53.738  0.00  0.00     0.021 A 
BRANCH  16  19
ATOM     19  O   UNL d   1      53.468  29.049  54.087  0.00  0.00    -0.328 OA
ATOM     20  C   UNL d   1      53.310  28.878  54.879  0.00  0.00     0.181 C 
ENDBRANCH  16  19
ENDBRANCH   2  13
TORSDOF 3
ENDMDL
MODEL 3
REMARK VINA RESULT:      -8.8      1.228      3.336
REMARK  3 active torsions:
REMARK  status: ('A' for Active; 'I' for Inactive)
REMARK    1  A    between atoms: C_2  and  C_1 
REMARK       I    between atoms: N_7  and  C_2 
REMARK    2  A    between atoms: C_9  and  N_7 
REMARK    3  A    between atoms: O_16  and  C_10 
ROOT
ATOM      1  C   UNL d   1      53.045  32.311  52.918  0.00  0.00     0.280 C 
ATOM      2  N   UNL d   1      52.275  32.284  52.628  0.00  0.00    -0.208 NA
ATOM      3  O   UNL d   1      53.551  31.663  52.796  0.00  0.00    -0.265 OA
ENDROOT
BRANCH   1   4
ATOM      4  C   UNL d   1      53.314  32.974  53.328  0.00  0.00     0.065 A 
ATOM      5  C   UNL d   1      53.649  32.977  54.079  0.00  0.00     0.011 A 
ATOM      6  C   UNL d   1      53.833  33.757  54.264  0.00  0.00     0.030 A 
ATOM      7  C   UNL d   1      53.810  32.373  54.622  0.00  0.00     0.001 A 
ATOM      8  C   UNL d   1      54.182  33.940  54.994  0.00  0.00     0.006 A 
ATOM      9  S   UNL d   1      53.615  34.232  53.631  0.00  0.00    -0.086 SA
ATOM     10  C   UNL d   1      54.341  33.346  55.528  0.00  0.00     0.001 A 
ATOM     11  C   UNL d   1      54.156  32.560  55.345  0.00  0.00     0.000 A 
ATOM     12  C   UNL d   1      53.293  33.736  53.054  0.00  0.00     0.040 A 
ENDBRANCH   1   4
BRANCH   2  13
ATOM     13  C   UNL d   1      51.771  32.929  52.750  0.00  0.00     0.085 A 
ATOM     14  C   UNL d   1      51.246  32.921  53.382  0.00  0.00     0.021 A 
ATOM     15  C   UNL d   1      50.737  33.570  53.508  0.00  0.00     0.026 A 
ATOM     16  C   UNL d   1      50.760  34.219  53.000  0.00  0.00     0.094 A 
ATOM     17  C   UNL d   1      51.292  34.221  52.366  0.00  0.00     0.026 A 
ATOM     18  C   UNL d   1      51.794  33.579  52.242  0.00  0.00     0.021 A 
BRANCH  16  19
ATOM     19  O   UNL d   1      50.246  34.861  53.139  0.00  0.00    -0.328 OA
ATOM     20  C   UNL d   1      49.505  34.889  52.776  0.00  0.00     0.181 C 
ENDBRANCH  16  19
ENDBRANCH   2  13
TORSDOF 3
ENDMDL
MODEL 4
REMARK VINA RESULT:      -8.5      1.488      2.180
REMARK  3 active torsions:
REMARK  status: ('A' for Active; 'I' for Inactive)
REMARK    1  A    between atoms: C_2  and  C_1 
REMARK       I    between atoms: N_7  and  C_2 
REMARK    2  A    between atoms: C_9  and  N_7 
REMARK    3  A    between atoms: O_16  and  C_10 
ROOT
ATOM      1  C   UNL d   1      53.018  35.029  54.262  0.00  0.00     0.280 C 
ATOM      2  N   UNL d   1      53.508  34.555  54.725  0.00  0.00    -0.208 NA
ATOM      3  O   UNL d   1      52.824  35.793  54.522  0.00  0.00    -0.265 OA
ENDROOT
BRANCH   1   4
ATOM      4  C   UNL d   1      52.722  34.749  53.545  0.00  0.00     0.065 A 
ATOM      5  C   UNL d   1      51.930  34.626  53.363  0.00  0.00     0.011 A 
ATOM      6  C   UNL d   1      51.895  34.345  52.591  0.00  0.00     0.030 A 
ATOM      7  C   UNL d   1      51.233  34.732  53.797  0.00  0.00     0.001 A 
ATOM      8  C   UNL d   1      51.161  34.167  52.246  0.00  0.00     0.006 A 
ATOM      9  S   UNL d   1      52.660  34.295  52.298  0.00  0.00    -0.086 SA
ATOM     10  C   UNL d   1      50.476  34.271  52.673  0.00  0.00     0.001 A 
ATOM     11  C   UNL d   1      50.508  34.554  53.450  0.00  0.00     0.000 A 
ATOM     12  C   UNL d   1      53.167  34.548  52.899  0.00  0.00     0.040 A 
ENDBRANCH   1   4
BRANCH   2  13
ATOM     13  C   UNL d   1      53.701  33.794  54.465  0.00  0.00     0.085 A 
ATOM     14  C   UNL d   1      53.269  33.149  54.737  0.00  0.00     0.021 A 
ATOM     15  C   UNL d   1      53.461  32.381  54.476  0.00  0.00     0.026 A 
ATOM     16  C   UNL d   1      54.083  32.266  53.948  0.00  0.00     0.094 A 
ATOM     17  C   UNL d   1      54.514  32.919  53.678  0.00  0.00     0.026 A 
ATOM     18  C   UNL d   1      54.324  33.679  53.936  0.00  0.00     0.021 A 
BRANCH  16  19
ATOM     19  O   UNL d   1      54.264  31.491  53.696  0.00  0.00    -0.328 OA
ATOM     20  C   UNL d   1      53.668  30.925  53.623  0.00  0.00     0.181 C 
ENDBRANCH  16  19
ENDBRANCH   2  13
TORSDOF 3
ENDMDL
MODEL 5
REMARK VINA RESULT:      -8.5      1.489      3.326
REMARK  3 active torsions:
REMARK  status: ('A' for Active; 'I' for Inactive)
REMARK    1  A    between atoms: C_2  and  C_1 
REMARK       I    between atoms: N_7  and  C_2 
REMARK    2  A    between atoms: C_9  and  N_7 
REMARK    3  A    between atoms: O_16  and  C_10 
ROOT
ATOM      1  C   UNL d   1      53.871  33.054  54.916  0.00  0.00     0.280 C 
ATOM      2  N   UNL d   1      53.367  33.705  54.951  0.00  0.00    -0.208 NA
ATOM      3  O   UNL d   1      54.304  32.835  55.590  0.00  0.00    -0.265 OA
ENDROOT
BRANCH   1   4
ATOM      4  C   UNL d   1      53.947  32.622  54.217  0.00  0.00     0.065 A 
ATOM      5  C   UNL d   1      53.740  31.834  54.110  0.00  0.00     0.011 A 
ATOM      6  C   UNL d   1      53.912  31.638  53.330  0.00  0.00     0.030 A 
ATOM      7  C   UNL d   1      53.418  31.266  54.619  0.00  0.00     0.001 A 
ATOM      8  C   UNL d   1      53.762  30.870  53.052  0.00  0.00     0.006 A 
ATOM      9  S   UNL d   1      54.222  32.300  52.958  0.00  0.00    -0.086 SA
ATOM     10  C   UNL d   1      53.445  30.312  53.552  0.00  0.00     0.001 A 
ATOM     11  C   UNL d   1      53.271  30.507  54.337  0.00  0.00     0.000 A 
ATOM     12  C   UNL d   1      54.240  32.907  53.518  0.00  0.00     0.040 A 
ENDBRANCH   1   4
BRANCH   2  13
ATOM     13  C   UNL d   1      52.937  33.923  54.279  0.00  0.00     0.085 A 
ATOM     14  C   UNL d   1      53.271  34.435  53.730  0.00  0.00     0.021 A 
ATOM     15  C   UNL d   1      52.839  34.657  53.052  0.00  0.00     0.026 A 
ATOM     16  C   UNL d   1      52.078  34.364  52.931  0.00  0.00     0.094 A 
ATOM     17  C   UNL d   1      51.748  33.849  53.488  0.00  0.00     0.026 A 
ATOM     18  C   UNL d   1      52.175  33.630  54.158  0.00  0.00     0.021 A 
BRANCH  16  19
ATOM     19  O   UNL d   1      51.659  34.594  52.248  0.00  0.00    -0.328 OA
ATOM     20  C   UNL d   1      50.953  34.218  52.043  0.00  0.00     0.181 C 
ENDBRANCH  16  19
ENDBRANCH   2  13
TORSDOF 3
ENDMDL
