MODEL 1
REMARK VINA RESULT:      -8.5      0.000      0.000
REMARK  4 active torsions:
REMARK  status: ('A' for Active; 'I' for Inactive)
REMARK    1  A    between atoms: C_12  and  C_2 
REMARK       I    between atoms: C_3  and  N_8 
REMARK    2  A    between atoms: C_5  and  C_3 
REMARK    3  A    between atoms: C_9  and  C_4 
REMARK    4  A    between atoms: N_8  and  C_13 
ROOT
ATOM      1  C   UNL d   1     -47.282  12.875  23.111  0.00  0.00     0.018 A 
ATOM      2  C   UNL d   1     -48.161  14.228  22.774  0.00  0.00     0.085 A 
ATOM      3  C   UNL d   1     -47.185  13.262  22.390  0.00  0.00     0.003 A 
ATOM      4  C   UNL d   1     -47.823  13.162  23.673  0.00  0.00     0.003 A 
ATOM      5  C   UNL d   1     -48.264  13.846  23.497  0.00  0.00     0.019 A 
ATOM      6  C   UNL d   1     -47.620  13.934  22.221  0.00  0.00     0.019 A 
ENDROOT
BRANCH   1   7
ATOM      7  C   UNL d   1     -46.838  12.190  23.282  0.00  0.00     0.088 A 
ATOM      8  N   UNL d   1     -46.035  12.088  23.156  0.00  0.00    -0.239 NA
ATOM      9  C   UNL d   1     -45.828  11.334  23.402  0.00  0.00     0.111 A 
ATOM     10  S   UNL d   1     -46.510  10.963  23.685  0.00  0.00    -0.066 SA
ATOM     11  C   UNL d   1     -47.130  11.493  23.609  0.00  0.00     0.056 A 
BRANCH   9  12
ATOM     12  C   UNL d   1     -45.070  11.000  23.374  0.00  0.00     0.024 A 
ATOM     13  C   UNL d   1     -44.938  10.252  23.696  0.00  0.00     0.002 A 
ATOM     14  C   UNL d   1     -44.172   9.920  23.665  0.00  0.00     0.000 A 
ATOM     15  C   UNL d   1     -43.554  10.339  23.315  0.00  0.00     0.000 A 
ATOM     16  C   UNL d   1     -43.689  11.095  22.989  0.00  0.00     0.000 A 
ATOM     17  C   UNL d   1     -44.444  11.422  23.020  0.00  0.00     0.002 A 
ENDBRANCH   9  12
ENDBRANCH   1   7
BRANCH   2  18
ATOM     18  N   UNL d   1     -48.602  14.910  22.601  0.00  0.00    -0.208 NA
ATOM     19  C   UNL d   1     -49.346  14.843  22.253  0.00  0.00     0.280 C 
ATOM     20  O   UNL d   1     -49.788  15.524  22.080  0.00  0.00    -0.265 OA
BRANCH  19  21
ATOM     21  C   UNL d   1     -49.662  14.091  22.073  0.00  0.00     0.069 A 
ATOM     22  C   UNL d   1     -50.285  13.803  22.517  0.00  0.00     0.062 A 
ATOM     23 CL   UNL d   1     -50.602  14.245  23.137  0.00  0.00    -0.082 Cl
ATOM     24  C   UNL d   1     -50.597  13.063  22.340  0.00  0.00     0.012 A 
ATOM     25  C   UNL d   1     -50.286  12.619  21.724  0.00  0.00     0.001 A 
ATOM     26  C   UNL d   1     -49.661  12.915  21.284  0.00  0.00     0.000 A 
ATOM     27  C   UNL d   1     -49.344  13.657  21.456  0.00  0.00     0.006 A 
ENDBRANCH  19  21
ENDBRANCH   2  18
TORSDOF 4
ENDMDL
MODEL 2
REMARK VINA RESULT:      -7.7      1.272      1.749
REMARK  4 active torsions:
REMARK  status: ('A' for Active; 'I' for Inactive)
REMARK    1  A    between atoms: C_12  and  C_2 
REMARK       I    between atoms: C_3  and  N_8 
REMARK    2  A    between atoms: C_5  and  C_3 
REMARK    3  A    between atoms: C_9  and  C_4 
REMARK    4  A    between atoms: N_8  and  C_13 
ROOT
ATOM      1  C   UNL d   1     -47.524  13.707  22.496  0.00  0.00     0.018 A 
ATOM      2  C   UNL d   1     -48.900  14.595  22.305  0.00  0.00     0.085 A 
ATOM      3  C   UNL d   1     -47.805  14.173  23.114  0.00  0.00     0.003 A 
ATOM      4  C   UNL d   1     -47.931  13.680  21.771  0.00  0.00     0.003 A 
ATOM      5  C   UNL d   1     -48.625  14.130  21.680  0.00  0.00     0.019 A 
ATOM      6  C   UNL d   1     -48.488  14.615  23.021  0.00  0.00     0.019 A 
ENDROOT
BRANCH   1   7
ATOM      7  C   UNL d   1     -46.828  13.258  22.592  0.00  0.00     0.088 A 
ATOM      8  N   UNL d   1     -46.131  13.348  22.171  0.00  0.00    -0.239 NA
ATOM      9  C   UNL d   1     -45.592  12.793  22.443  0.00  0.00     0.111 A 
ATOM     10  S   UNL d   1     -45.958  12.354  23.040  0.00  0.00    -0.066 SA
ATOM     11  C   UNL d   1     -46.719  12.643  23.128  0.00  0.00     0.056 A 
BRANCH   9  12
ATOM     12  C   UNL d   1     -44.816  12.689  22.171  0.00  0.00     0.024 A 
ATOM     13  C   UNL d   1     -44.348  12.085  22.482  0.00  0.00     0.002 A 
ATOM     14  C   UNL d   1     -43.567  11.984  22.204  0.00  0.00     0.000 A 
ATOM     15  C   UNL d   1     -43.267  12.486  21.622  0.00  0.00     0.000 A 
ATOM     16  C   UNL d   1     -43.742  13.097  21.308  0.00  0.00     0.000 A 
ATOM     17  C   UNL d   1     -44.511  13.196  21.582  0.00  0.00     0.002 A 
ENDBRANCH   9  12
ENDBRANCH   1   7
BRANCH   2  18
ATOM     18  N   UNL d   1     -49.593  15.043  22.211  0.00  0.00    -0.208 NA
ATOM     19  C   UNL d   1     -50.326  14.712  22.392  0.00  0.00     0.280 C 
ATOM     20  O   UNL d   1     -51.020  15.159  22.299  0.00  0.00    -0.265 OA
BRANCH  19  21
ATOM     21  C   UNL d   1     -50.378  13.927  22.670  0.00  0.00     0.069 A 
ATOM     22  C   UNL d   1     -50.675  13.347  22.176  0.00  0.00     0.062 A 
ATOM     23 CL   UNL d   1     -50.923  13.531  21.411  0.00  0.00    -0.082 Cl
ATOM     24  C   UNL d   1     -50.727  12.573  22.449  0.00  0.00     0.012 A 
ATOM     25  C   UNL d   1     -50.482  12.384  23.208  0.00  0.00     0.001 A 
ATOM     26  C   UNL d   1     -50.185  12.971  23.698  0.00  0.00     0.000 A 
ATOM     27  C   UNL d   1     -50.131  13.749  23.430  0.00  0.00     0.006 A 
ENDBRANCH  19  21
ENDBRANCH   2  18
TORSDOF 4
ENDMDL
MODEL 3
REMARK VINA RESULT:      -7.1      8.480      9.314
REMARK  4 active torsions:
REMARK  status: ('A' for Active; 'I' for Inactive)
REMARK    1  A    between atoms: C_12  and  C_2 
REMARK       I    between atoms: C_3  and  N_8 
REMARK    2  A    between atoms: C_5  and  C_3 
REMARK    3  A    between atoms: C_9  and  C_4 
REMARK    4  A    between atoms: N_8  and  C_13 
ROOT
ATOM      1  C   UNL d   1     -40.242  15.194  19.938  0.00  0.00     0.018 A 
ATOM      2  C   UNL d   1     -40.837  15.130  18.402  0.00  0.00     0.085 A 
ATOM      3  C   UNL d   1     -40.511  14.480  19.628  0.00  0.00     0.003 A 
ATOM      4  C   UNL d   1     -40.267  15.888  19.480  0.00  0.00     0.003 A 
ATOM      5  C   UNL d   1     -40.569  15.850  18.705  0.00  0.00     0.019 A 
ATOM      6  C   UNL d   1     -40.807  14.446  18.865  0.00  0.00     0.019 A 
ENDROOT
BRANCH   1   7
ATOM      7  C   UNL d   1     -39.941  15.227  20.715  0.00  0.00     0.088 A 
ATOM      8  N   UNL d   1     -39.542  14.628  21.106  0.00  0.00    -0.239 NA
ATOM      9  C   UNL d   1     -39.346  14.895  21.856  0.00  0.00     0.111 A 
ATOM     10  S   UNL d   1     -39.627  15.669  21.932  0.00  0.00    -0.066 SA
ATOM     11  C   UNL d   1     -39.993  15.869  21.227  0.00  0.00     0.056 A 
BRANCH   9  12
ATOM     12  C   UNL d   1     -38.938  14.468  22.438  0.00  0.00     0.024 A 
ATOM     13  C   UNL d   1     -39.014  13.647  22.475  0.00  0.00     0.002 A 
ATOM     14  C   UNL d   1     -38.601  13.222  23.064  0.00  0.00     0.000 A 
ATOM     15  C   UNL d   1     -38.121  13.622  23.603  0.00  0.00     0.000 A 
ATOM     16  C   UNL d   1     -38.047  14.453  23.564  0.00  0.00     0.000 A 
ATOM     17  C   UNL d   1     -38.453  14.871  22.985  0.00  0.00     0.002 A 
ENDBRANCH   9  12
ENDBRANCH   1   7
BRANCH   2  18
ATOM     18  N   UNL d   1     -41.137  15.096  17.629  0.00  0.00    -0.208 NA
ATOM     19  C   UNL d   1     -40.643  14.883  17.003  0.00  0.00     0.280 C 
ATOM     20  O   UNL d   1     -40.942  14.848  16.229  0.00  0.00    -0.265 OA
BRANCH  19  21
ATOM     21  C   UNL d   1     -39.840  14.702  17.142  0.00  0.00     0.069 A 
ATOM     22  C   UNL d   1     -39.264  15.224  16.888  0.00  0.00     0.062 A 
ATOM     23 CL   UNL d   1     -39.468  15.922  16.499  0.00  0.00    -0.082 Cl
ATOM     24  C   UNL d   1     -38.472  15.047  17.024  0.00  0.00     0.012 A 
ATOM     25  C   UNL d   1     -38.263  14.354  17.411  0.00  0.00     0.001 A 
ATOM     26  C   UNL d   1     -38.847  13.837  17.662  0.00  0.00     0.000 A 
ATOM     27  C   UNL d   1     -39.642  14.009  17.528  0.00  0.00     0.006 A 
ENDBRANCH  19  21
ENDBRANCH   2  18
TORSDOF 4
ENDMDL
MODEL 4
REMARK VINA RESULT:      -5.7      8.369     10.317
REMARK  4 active torsions:
REMARK  status: ('A' for Active; 'I' for Inactive)
REMARK    1  A    between atoms: C_12  and  C_2 
REMARK       I    between atoms: C_3  and  N_8 
REMARK    2  A    between atoms: C_5  and  C_3 
REMARK    3  A    between atoms: C_9  and  C_4 
REMARK    4  A    between atoms: N_8  and  C_13 
ROOT
ATOM      1  C   UNL d   1     -38.329  15.129  19.020  0.00  0.00     0.018 A 
ATOM      2  C   UNL d   1     -38.396  14.975  20.660  0.00  0.00     0.085 A 
ATOM      3  C   UNL d   1     -38.373  14.382  19.364  0.00  0.00     0.003 A 
ATOM      4  C   UNL d   1     -38.318  15.811  19.496  0.00  0.00     0.003 A 
ATOM      5  C   UNL d   1     -38.352  15.727  20.323  0.00  0.00     0.019 A 
ATOM      6  C   UNL d   1     -38.407  14.303  20.178  0.00  0.00     0.019 A 
ENDROOT
BRANCH   1   7
ATOM      7  C   UNL d   1     -38.295  15.208  18.191  0.00  0.00     0.088 A 
ATOM      8  N   UNL d   1     -38.197  14.601  17.650  0.00  0.00    -0.239 NA
ATOM      9  C   UNL d   1     -38.195  14.924  16.896  0.00  0.00     0.111 A 
ATOM     10  S   UNL d   1     -38.293  15.741  16.969  0.00  0.00    -0.066 SA
ATOM     11  C   UNL d   1     -38.354  15.912  17.768  0.00  0.00     0.056 A 
BRANCH   9  12
ATOM     12  C   UNL d   1     -38.110  14.508  16.184  0.00  0.00     0.024 A 
ATOM     13  C   UNL d   1     -38.084  14.918  15.468  0.00  0.00     0.002 A 
ATOM     14  C   UNL d   1     -37.998  14.493  14.754  0.00  0.00     0.000 A 
ATOM     15  C   UNL d   1     -37.940  13.670  14.766  0.00  0.00     0.000 A 
ATOM     16  C   UNL d   1     -37.966  13.257  15.491  0.00  0.00     0.000 A 
ATOM     17  C   UNL d   1     -38.051  13.676  16.194  0.00  0.00     0.002 A 
ENDBRANCH   9  12
ENDBRANCH   1   7
BRANCH   2  18
ATOM     18  N   UNL d   1     -38.430  14.895  21.485  0.00  0.00    -0.208 NA
ATOM     19  C   UNL d   1     -39.158  14.915  21.873  0.00  0.00     0.280 C 
ATOM     20  O   UNL d   1     -39.193  14.834  22.698  0.00  0.00    -0.265 OA
BRANCH  19  21
ATOM     21  C   UNL d   1     -39.864  15.016  21.439  0.00  0.00     0.069 A 
ATOM     22  C   UNL d   1     -40.393  14.394  21.386  0.00  0.00     0.062 A 
ATOM     23 CL   UNL d   1     -40.235  13.673  21.755  0.00  0.00    -0.082 Cl
ATOM     24  C   UNL d   1     -41.089  14.493  20.959  0.00  0.00     0.012 A 
ATOM     25  C   UNL d   1     -41.251  15.207  20.591  0.00  0.00     0.001 A 
ATOM     26  C   UNL d   1     -40.716  15.826  20.649  0.00  0.00     0.000 A 
ATOM     27  C   UNL d   1     -40.016  15.733  21.075  0.00  0.00     0.006 A 
ENDBRANCH  19  21
ENDBRANCH   2  18
TORSDOF 4
ENDMDL
