MODEL 1
REMARK VINA RESULT:      88.7      0.000      0.000
REMARK  5 active torsions:
REMARK  status: ('A' for Active; 'I' for Inactive)
REMARK    1  A    between atoms: O_5  and  C_1 
REMARK    2  A    between atoms: C_10  and  C_2 
REMARK    3  A    between atoms: C_3  and  O_5 
REMARK    4  A    between atoms: C_6  and  C_3 
REMARK    5  A    between atoms: N_11  and  C_10 
ROOT
ATOM      1  C   UNL d   1     -48.198  30.097  34.943  0.00  0.00     0.122 A 
ATOM      2  C   UNL d   1     -47.997  30.807  34.573  0.00  0.00     0.043 A 
ATOM      3  C   UNL d   1     -47.875  29.911  35.679  0.00  0.00     0.105 A 
ATOM      4  C   UNL d   1     -47.354  30.433  36.045  0.00  0.00     0.030 A 
ATOM      5  C   UNL d   1     -47.159  31.137  35.671  0.00  0.00     0.059 A 
ATOM      6  C   UNL d   1     -47.475  31.329  34.939  0.00  0.00     0.015 A 
ATOM      7  N   UNL d   1     -48.077  29.206  36.042  0.00  0.00    -0.242 NA
ATOM      8 CL   UNL d   1     -46.628  31.650  36.061  0.00  0.00    -0.082 Cl
ATOM      9  C   UNL d   1     -47.038  30.246  36.770  0.00  0.00     0.004 A 
ATOM     10  C   UNL d   1     -47.754  29.020  36.778  0.00  0.00     0.099 A 
ATOM     11  C   UNL d   1     -47.232  29.543  37.144  0.00  0.00     0.021 A 
ENDROOT
BRANCH   1  12
ATOM     12  O   UNL d   1     -48.670  29.616  34.620  0.00  0.00    -0.271 OA
BRANCH  12  13
ATOM     13  C   UNL d   1     -48.691  28.733  34.235  0.00  0.00     0.302 C 
ATOM     14  O   UNL d   1     -47.806  28.258  34.248  0.00  0.00    -0.259 OA
BRANCH  13  15
ATOM     15  C   UNL d   1     -49.386  28.415  33.928  0.00  0.00     0.091 A 
ATOM     16  C   UNL d   1     -49.500  27.592  33.928  0.00  0.00     0.145 A 
ATOM     17  F   UNL d   1     -48.920  27.014  34.238  0.00  0.00    -0.204 F 
ATOM     18  C   UNL d   1     -50.206  27.274  33.616  0.00  0.00     0.030 A 
ATOM     19  C   UNL d   1     -50.796  27.776  33.306  0.00  0.00     0.002 A 
ATOM     20  C   UNL d   1     -50.678  28.597  33.308  0.00  0.00     0.000 A 
ATOM     21  C   UNL d   1     -49.973  28.915  33.620  0.00  0.00     0.008 A 
ENDBRANCH  13  15
ENDBRANCH  12  13
ENDBRANCH   1  12
BRANCH   2  22
ATOM     22  C   UNL d   1     -48.245  31.177  33.780  0.00  0.00     0.082 C 
BRANCH  22  23
ATOM     23  N   UNL d   1     -48.170  31.988  33.672  0.00  0.00    -0.299 N 
ATOM     24  C   UNL d   1     -47.437  32.309  33.510  0.00  0.00     0.107 A 
ATOM     25  C   UNL d   1     -47.347  33.124  33.399  0.00  0.00     0.142 A 
ATOM     26  O   UNL d   1     -48.004  33.605  33.454  0.00  0.00    -0.300 OA
ATOM     27  C   UNL d   1     -48.749  33.282  33.619  0.00  0.00     0.142 A 
ATOM     28  C   UNL d   1     -48.821  32.473  33.726  0.00  0.00     0.107 A 
ENDBRANCH  22  23
ENDBRANCH   2  22
TORSDOF 5
ENDMDL
MODEL 2
REMARK VINA RESULT:      90.6      4.923      7.295
REMARK  5 active torsions:
REMARK  status: ('A' for Active; 'I' for Inactive)
REMARK    1  A    between atoms: O_5  and  C_1 
REMARK    2  A    between atoms: C_10  and  C_2 
REMARK    3  A    between atoms: C_3  and  O_5 
REMARK    4  A    between atoms: C_6  and  C_3 
REMARK    5  A    between atoms: N_11  and  C_10 
ROOT
ATOM      1  C   UNL d   1     -52.343  25.046  34.780  0.00  0.00     0.122 A 
ATOM      2  C   UNL d   1     -52.463  25.234  35.575  0.00  0.00     0.043 A 
ATOM      3  C   UNL d   1     -52.763  24.425  34.437  0.00  0.00     0.105 A 
ATOM      4  C   UNL d   1     -53.302  23.993  34.887  0.00  0.00     0.030 A 
ATOM      5  C   UNL d   1     -53.415  24.186  35.676  0.00  0.00     0.059 A 
ATOM      6  C   UNL d   1     -53.001  24.802  36.024  0.00  0.00     0.015 A 
ATOM      7  N   UNL d   1     -52.642  24.241  33.649  0.00  0.00    -0.242 NA
ATOM      8 CL   UNL d   1     -53.966  23.734  36.111  0.00  0.00    -0.082 Cl
ATOM      9  C   UNL d   1     -53.714  23.382  34.544  0.00  0.00     0.004 A 
ATOM     10  C   UNL d   1     -53.063  23.620  33.306  0.00  0.00     0.099 A 
ATOM     11  C   UNL d   1     -53.601  23.188  33.756  0.00  0.00     0.021 A 
ENDROOT
BRANCH   1  12
ATOM     12  O   UNL d   1     -51.857  25.431  34.364  0.00  0.00    -0.271 OA
BRANCH  12  13
ATOM     13  C   UNL d   1     -51.798  26.236  33.836  0.00  0.00     0.302 C 
ATOM     14  O   UNL d   1     -52.685  26.594  33.533  0.00  0.00    -0.259 OA
BRANCH  13  15
ATOM     15  C   UNL d   1     -51.071  26.580  33.660  0.00  0.00     0.091 A 
ATOM     16  C   UNL d   1     -51.023  27.400  33.528  0.00  0.00     0.145 A 
ATOM     17  F   UNL d   1     -51.707  27.945  33.560  0.00  0.00    -0.204 F 
ATOM     18  C   UNL d   1     -50.285  27.746  33.351  0.00  0.00     0.030 A 
ATOM     19  C   UNL d   1     -49.596  27.276  33.306  0.00  0.00     0.002 A 
ATOM     20  C   UNL d   1     -49.648  26.458  33.439  0.00  0.00     0.000 A 
ATOM     21  C   UNL d   1     -50.386  26.113  33.616  0.00  0.00     0.008 A 
ENDBRANCH  13  15
ENDBRANCH  12  13
ENDBRANCH   1  12
BRANCH   2  22
ATOM     22  C   UNL d   1     -52.101  25.869  36.117  0.00  0.00     0.082 C 
BRANCH  22  23
ATOM     23  N   UNL d   1     -52.226  25.828  36.927  0.00  0.00    -0.299 N 
ATOM     24  C   UNL d   1     -52.889  26.178  37.252  0.00  0.00     0.107 A 
ATOM     25  C   UNL d   1     -53.028  26.144  38.067  0.00  0.00     0.142 A 
ATOM     26  O   UNL d   1     -52.493  25.756  38.544  0.00  0.00    -0.300 OA
ATOM     27  C   UNL d   1     -51.819  25.400  38.217  0.00  0.00     0.142 A 
ATOM     28  C   UNL d   1     -51.696  25.443  37.408  0.00  0.00     0.107 A 
ENDBRANCH  22  23
ENDBRANCH   2  22
TORSDOF 5
ENDMDL
MODEL 3
REMARK VINA RESULT:      91.1      1.772      4.088
REMARK  5 active torsions:
REMARK  status: ('A' for Active; 'I' for Inactive)
REMARK    1  A    between atoms: O_5  and  C_1 
REMARK    2  A    between atoms: C_10  and  C_2 
REMARK    3  A    between atoms: C_3  and  O_5 
REMARK    4  A    between atoms: C_6  and  C_3 
REMARK    5  A    between atoms: N_11  and  C_10 
ROOT
ATOM      1  C   UNL d   1     -48.280  29.914  34.601  0.00  0.00     0.122 A 
ATOM      2  C   UNL d   1     -48.761  29.297  34.338  0.00  0.00     0.043 A 
ATOM      3  C   UNL d   1     -47.887  29.849  35.323  0.00  0.00     0.105 A 
ATOM      4  C   UNL d   1     -47.975  29.170  35.782  0.00  0.00     0.030 A 
ATOM      5  C   UNL d   1     -48.456  28.562  35.514  0.00  0.00     0.059 A 
ATOM      6  C   UNL d   1     -48.849  28.618  34.797  0.00  0.00     0.015 A 
ATOM      7  N   UNL d   1     -47.411  30.462  35.581  0.00  0.00    -0.242 NA
ATOM      8 CL   UNL d   1     -48.530  27.884  35.995  0.00  0.00    -0.082 Cl
ATOM      9  C   UNL d   1     -47.586  29.111  36.493  0.00  0.00     0.004 A 
ATOM     10  C   UNL d   1     -47.018  30.398  36.303  0.00  0.00     0.099 A 
ATOM     11  C   UNL d   1     -47.106  29.719  36.762  0.00  0.00     0.021 A 
ENDROOT
BRANCH   1  12
ATOM     12  O   UNL d   1     -48.193  30.533  34.193  0.00  0.00    -0.271 OA
BRANCH  12  13
ATOM     13  C   UNL d   1     -48.608  31.389  34.035  0.00  0.00     0.302 C 
ATOM     14  O   UNL d   1     -49.604  31.392  34.162  0.00  0.00    -0.259 OA
BRANCH  13  15
ATOM     15  C   UNL d   1     -48.163  32.047  33.816  0.00  0.00     0.091 A 
ATOM     16  C   UNL d   1     -48.490  32.809  33.882  0.00  0.00     0.145 A 
ATOM     17  F   UNL d   1     -49.298  32.974  34.177  0.00  0.00    -0.204 F 
ATOM     18  C   UNL d   1     -48.037  33.472  33.660  0.00  0.00     0.030 A 
ATOM     19  C   UNL d   1     -47.259  33.377  33.371  0.00  0.00     0.002 A 
ATOM     20  C   UNL d   1     -46.937  32.615  33.306  0.00  0.00     0.000 A 
ATOM     21  C   UNL d   1     -47.390  31.952  33.529  0.00  0.00     0.008 A 
ENDBRANCH  13  15
ENDBRANCH  12  13
ENDBRANCH   1  12
BRANCH   2  22
ATOM     22  C   UNL d   1     -49.263  29.188  33.587  0.00  0.00     0.082 C 
BRANCH  22  23
ATOM     23  N   UNL d   1     -49.705  28.503  33.493  0.00  0.00    -0.299 N 
ATOM     24  C   UNL d   1     -49.327  27.781  33.435  0.00  0.00     0.107 A 
ATOM     25  C   UNL d   1     -49.760  27.083  33.340  0.00  0.00     0.142 A 
ATOM     26  O   UNL d   1     -50.574  27.124  33.306  0.00  0.00    -0.300 OA
ATOM     27  C   UNL d   1     -50.961  27.855  33.365  0.00  0.00     0.142 A 
ATOM     28  C   UNL d   1     -50.517  28.537  33.459  0.00  0.00     0.107 A 
ENDBRANCH  22  23
ENDBRANCH   2  22
TORSDOF 5
ENDMDL
