MODEL 1
REMARK VINA RESULT:      20.2      0.000      0.000
REMARK  1 active torsions:
REMARK  status: ('A' for Active; 'I' for Inactive)
REMARK    1  A    between atoms: N_3  and  C_2 
ROOT
ATOM      1  N   UNL d   1     -57.494 -98.807 -43.821  0.00  0.00    -0.228 NA
ATOM      2  C   UNL d   1     -57.167 -98.825 -44.581  0.00  0.00     0.148 A 
ATOM      3  C   UNL d   1     -58.319 -98.790 -43.729  0.00  0.00     0.083 A 
ATOM      4  C   UNL d   1     -57.661 -98.825 -45.242  0.00  0.00     0.037 A 
ATOM      5  C   UNL d   1     -58.806 -98.790 -44.394  0.00  0.00     0.018 A 
ATOM      6  C   UNL d   1     -58.479 -98.808 -45.155  0.00  0.00     0.005 A 
ATOM      7  C   UNL d   1     -58.647 -98.772 -42.972  0.00  0.00     0.019 A 
ATOM      8  C   UNL d   1     -59.624 -98.773 -44.308  0.00  0.00     0.002 A 
ATOM      9  C   UNL d   1     -59.467 -98.755 -42.884  0.00  0.00     0.002 A 
ATOM     10  C   UNL d   1     -59.956 -98.756 -43.553  0.00  0.00     0.000 A 
ENDROOT
BRANCH   2  11
ATOM     11  N   UNL d   1     -56.346 -98.842 -44.671  0.00  0.00    -0.286 N 
ATOM     12  C   UNL d   1     -55.861 -98.945 -44.011  0.00  0.00     0.102 A 
ATOM     13  C   UNL d   1     -55.045 -98.962 -44.102  0.00  0.00     0.118 A 
ATOM     14  N   UNL d   1     -54.711 -98.877 -44.850  0.00  0.00    -0.239 NA
ATOM     15  C   UNL d   1     -55.195 -98.774 -45.510  0.00  0.00     0.118 A 
ATOM     16  C   UNL d   1     -56.016 -98.757 -45.420  0.00  0.00     0.102 A 
ENDBRANCH   2  11
TORSDOF 1
ENDMDL
