MODEL 1
REMARK VINA RESULT:      -3.4      0.000      0.000
REMARK  2 active torsions:
REMARK  status: ('A' for Active; 'I' for Inactive)
REMARK    1  A    between atoms: C_9  and  C_2 
REMARK    2  A    between atoms: C_12  and  C_7 
ROOT
ATOM      1  N   UNL d   1      31.940  16.596 -24.370  0.00  0.00    -0.186 N 
ATOM      2  C   UNL d   1      32.677  16.957 -24.240  0.00  0.00     0.187 A 
ATOM      3  N   UNL d   1      31.192  16.778 -24.095  0.00  0.00    -0.162 NA
ATOM      4  C   UNL d   1      32.059  15.950 -24.872  0.00  0.00     0.217 A 
ATOM      5  N   UNL d   1      33.241  16.531 -24.662  0.00  0.00    -0.127 NA
ATOM      6  N   UNL d   1      32.859  15.909 -25.052  0.00  0.00    -0.120 NA
ATOM      7  C   UNL d   1      30.541  16.316 -24.316  0.00  0.00     0.108 A 
ATOM      8  S   UNL d   1      31.416  15.485 -25.097  0.00  0.00    -0.045 SA
ATOM      9  C   UNL d   1      30.654  15.668 -24.819  0.00  0.00     0.059 A 
ENDROOT
BRANCH   2  10
ATOM     10  C   UNL d   1      32.812  17.627 -23.767  0.00  0.00     0.038 A 
ATOM     11  C   UNL d   1      32.863  18.372 -24.121  0.00  0.00     0.003 A 
ATOM     12  C   UNL d   1      32.994  19.035 -23.662  0.00  0.00     0.000 A 
ATOM     13  C   UNL d   1      33.044  19.771 -24.017  0.00  0.00     0.000 C 
ATOM     14  C   UNL d   1      33.075  18.948 -22.846  0.00  0.00     0.000 A 
ATOM     15  C   UNL d   1      33.025  18.207 -22.492  0.00  0.00     0.000 A 
ATOM     16  C   UNL d   1      32.892  17.546 -22.958  0.00  0.00     0.003 A 
ENDBRANCH   2  10
BRANCH   7  17
ATOM     17  C   UNL d   1      29.786  16.496 -24.041  0.00  0.00     0.020 A 
ATOM     18  C   UNL d   1      29.367  17.128 -24.370  0.00  0.00     0.002 A 
ATOM     19  C   UNL d   1      28.610  17.302 -24.089  0.00  0.00     0.000 A 
ATOM     20  C   UNL d   1      28.274  16.855 -23.490  0.00  0.00     0.000 A 
ATOM     21  C   UNL d   1      28.695  16.221 -23.161  0.00  0.00     0.000 A 
ATOM     22  C   UNL d   1      29.457  16.040 -23.439  0.00  0.00     0.002 A 
ENDBRANCH   7  17
TORSDOF 2
ENDMDL
MODEL 2
REMARK VINA RESULT:      -1.7      0.911      3.698
REMARK  2 active torsions:
REMARK  status: ('A' for Active; 'I' for Inactive)
REMARK    1  A    between atoms: C_9  and  C_2 
REMARK    2  A    between atoms: C_12  and  C_7 
ROOT
ATOM      1  N   UNL d   1      31.481  17.107 -24.307  0.00  0.00    -0.186 N 
ATOM      2  C   UNL d   1      30.742  16.913 -24.633  0.00  0.00     0.187 A 
ATOM      3  N   UNL d   1      31.720  17.733 -23.838  0.00  0.00    -0.162 NA
ATOM      4  C   UNL d   1      32.021  16.524 -24.538  0.00  0.00     0.217 A 
ATOM      5  N   UNL d   1      30.833  16.215 -25.059  0.00  0.00    -0.127 NA
ATOM      6  N   UNL d   1      31.622  15.975 -25.001  0.00  0.00    -0.120 NA
ATOM      7  C   UNL d   1      32.507  17.791 -23.588  0.00  0.00     0.108 A 
ATOM      8  S   UNL d   1      32.806  16.575 -24.293  0.00  0.00    -0.045 SA
ATOM      9  C   UNL d   1      33.051  17.210 -23.816  0.00  0.00     0.059 A 
ENDROOT
BRANCH   2  10
ATOM     10  C   UNL d   1      30.042  17.352 -24.539  0.00  0.00     0.038 A 
ATOM     11  C   UNL d   1      29.426  17.045 -24.082  0.00  0.00     0.003 A 
ATOM     12  C   UNL d   1      28.736  17.470 -23.985  0.00  0.00     0.000 A 
ATOM     13  C   UNL d   1      28.129  17.161 -23.531  0.00  0.00     0.000 C 
ATOM     14  C   UNL d   1      28.665  18.207 -24.350  0.00  0.00     0.000 A 
ATOM     15  C   UNL d   1      29.277  18.514 -24.805  0.00  0.00     0.000 A 
ATOM     16  C   UNL d   1      29.967  18.082 -24.897  0.00  0.00     0.003 A 
ENDBRANCH   2  10
BRANCH   7  17
ATOM     17  C   UNL d   1      32.751  18.420 -23.115  0.00  0.00     0.020 A 
ATOM     18  C   UNL d   1      32.946  19.146 -23.461  0.00  0.00     0.002 A 
ATOM     19  C   UNL d   1      33.190  19.771 -22.981  0.00  0.00     0.000 A 
ATOM     20  C   UNL d   1      33.240  19.678 -22.168  0.00  0.00     0.000 A 
ATOM     21  C   UNL d   1      33.045  18.951 -21.822  0.00  0.00     0.000 A 
ATOM     22  C   UNL d   1      32.799  18.317 -22.299  0.00  0.00     0.002 A 
ENDBRANCH   7  17
TORSDOF 2
ENDMDL
