MODEL 1
REMARK VINA RESULT:      17.3      0.000      0.000
REMARK  2 active torsions:
REMARK  status: ('A' for Active; 'I' for Inactive)
REMARK    1  A    between atoms: C_6  and  C_1 
REMARK    2  A    between atoms: C_7  and  C_5 
ROOT
ATOM      1  C   UNL d   1     -53.069  24.396  33.531  0.00  0.00     0.169 A 
ATOM      2  C   UNL d   1     -53.129  25.146  33.592  0.00  0.00     0.048 A 
ATOM      3  N   UNL d   1     -51.772  24.513  33.359  0.00  0.00    -0.148 NA
ATOM      4  N   UNL d   1     -52.392  24.073  33.414  0.00  0.00    -0.142 NA
ATOM      5  C   UNL d   1     -51.832  25.264  33.420  0.00  0.00     0.105 A 
ENDROOT
BRANCH   5   6
ATOM      6  C   UNL d   1     -51.306  25.896  33.392  0.00  0.00     0.019 A 
ATOM      7  C   UNL d   1     -51.588  26.675  33.357  0.00  0.00     0.002 A 
ATOM      8  C   UNL d   1     -51.058  27.312  33.328  0.00  0.00     0.000 A 
ATOM      9  C   UNL d   1     -50.241  27.170  33.334  0.00  0.00     0.000 A 
ATOM     10  C   UNL d   1     -49.957  26.383  33.370  0.00  0.00     0.000 A 
ATOM     11  C   UNL d   1     -49.714  27.794  33.306  0.00  0.00     0.000 C 
ATOM     12  C   UNL d   1     -50.493  25.754  33.398  0.00  0.00     0.002 A 
ENDBRANCH   5   6
BRANCH   1  13
ATOM     13  C   UNL d   1     -53.691  23.955  33.586  0.00  0.00     0.231 C 
ATOM     14  O   UNL d   1     -54.354  24.198  33.318  0.00  0.00    -0.643 OA
ATOM     15  O   UNL d   1     -53.636  23.272  33.913  0.00  0.00    -0.643 OA
ENDBRANCH   1  13
TORSDOF 2
ENDMDL
