MODEL 1
REMARK VINA RESULT:       2.8      0.000      0.000
REMARK  2 active torsions:
REMARK  status: ('A' for Active; 'I' for Inactive)
REMARK    1  A    between atoms: C_2  and  P_1 
REMARK    2  A    between atoms: C_7  and  C_2 
ROOT
ATOM      1  C   UNL d   1     -52.453  24.395  33.318  0.00  0.00     0.194 C 
ATOM      2  N   UNL d   1     -52.528  25.224  33.306  0.00  0.00    -0.138 N 
ENDROOT
BRANCH   1   3
ATOM      3  P   UNL d   1     -53.148  23.933  33.320  0.00  0.00     0.317 P 
ATOM      4  O   UNL d   1     -53.830  23.488  33.322  0.00  0.00    -0.635 OA
ATOM      5  O   UNL d   1     -53.598  24.647  33.315  0.00  0.00    -0.635 OA
ATOM      6  O   UNL d   1     -52.700  23.229  33.325  0.00  0.00    -0.635 OA
ENDBRANCH   1   3
BRANCH   1   7
ATOM      7  C   UNL d   1     -51.707  24.041  33.327  0.00  0.00     0.029 C 
ATOM      8  C   UNL d   1     -51.640  23.226  33.323  0.00  0.00     0.002 C 
ATOM      9  C   UNL d   1     -51.033  24.517  33.341  0.00  0.00     0.002 C 
ENDBRANCH   1   7
TORSDOF 2
ENDMDL
MODEL 2
REMARK VINA RESULT:       3.3      1.966      2.315
REMARK  2 active torsions:
REMARK  status: ('A' for Active; 'I' for Inactive)
REMARK    1  A    between atoms: C_2  and  P_1 
REMARK    2  A    between atoms: C_7  and  C_2 
ROOT
ATOM      1  C   UNL d   1     -51.168  24.235  33.328  0.00  0.00     0.194 C 
ATOM      2  N   UNL d   1     -50.550  23.679  33.328  0.00  0.00    -0.138 N 
ENDROOT
BRANCH   1   3
ATOM      3  P   UNL d   1     -50.974  25.047  33.320  0.00  0.00     0.317 P 
ATOM      4  O   UNL d   1     -50.778  25.837  33.313  0.00  0.00    -0.635 OA
ATOM      5  O   UNL d   1     -50.159  24.830  33.318  0.00  0.00    -0.635 OA
ATOM      6  O   UNL d   1     -51.782  25.258  33.323  0.00  0.00    -0.635 OA
ENDBRANCH   1   3
BRANCH   1   7
ATOM      7  C   UNL d   1     -51.957  23.987  33.334  0.00  0.00     0.029 C 
ATOM      8  C   UNL d   1     -52.135  23.190  33.366  0.00  0.00     0.002 C 
ATOM      9  C   UNL d   1     -52.558  24.551  33.307  0.00  0.00     0.002 C 
ENDBRANCH   1   7
TORSDOF 2
ENDMDL
