MODEL 1
REMARK VINA RESULT:      -9.5      0.000      0.000
REMARK  8 active torsions:
REMARK  status: ('A' for Active; 'I' for Inactive)
REMARK    1  A    between atoms: C_11  and  N_1 
REMARK    2  A    between atoms: S_7  and  C_2 
REMARK    3  A    between atoms: C_18  and  S_7 
REMARK    4  A    between atoms: C_8  and  C_10 
REMARK       I    between atoms: N_14  and  C_8 
REMARK    5  A    between atoms: C_13  and  C_11 
REMARK    6  A    between atoms: C_25  and  N_14 
REMARK    7  A    between atoms: C_19  and  C_18 
REMARK    8  A    between atoms: C_26  and  C_25 
ROOT
ATOM      1  N   UNL d   1      53.092  32.590  53.409  0.00  0.00    -0.253 N 
ATOM      2  C   UNL d   1      52.686  33.266  53.473  0.00  0.00     0.182 A 
ATOM      3  C   UNL d   1      53.790  32.468  53.840  0.00  0.00     0.268 A 
ATOM      4  N   UNL d   1      52.945  33.875  53.972  0.00  0.00    -0.222 NA
ATOM      5  C   UNL d   1      54.057  33.051  54.331  0.00  0.00     0.074 A 
ATOM      6  C   UNL d   1      53.626  33.769  54.399  0.00  0.00     0.088 A 
ATOM      7  O   UNL d   1      54.210  31.769  53.773  0.00  0.00    -0.267 OA
ATOM      8  C   UNL d   1      54.742  32.952  54.764  0.00  0.00     0.006 A 
ATOM      9  C   UNL d   1      53.896  34.359  54.897  0.00  0.00     0.019 A 
ATOM     10  C   UNL d   1      54.997  33.559  55.260  0.00  0.00     0.000 A 
ATOM     11  C   UNL d   1      54.591  34.235  55.324  0.00  0.00     0.002 A 
ENDROOT
BRANCH   2  12
ATOM     12  S   UNL d   1      51.988  33.369  53.033  0.00  0.00    -0.049 SA
BRANCH  12  13
ATOM     13  C   UNL d   1      51.687  34.135  52.923  0.00  0.00     0.038 C 
BRANCH  13  14
ATOM     14  C   UNL d   1      50.965  34.264  52.547  0.00  0.00     0.007 A 
ATOM     15  C   UNL d   1      50.289  34.429  53.017  0.00  0.00     0.001 A 
ATOM     16  C   UNL d   1      49.573  34.558  52.663  0.00  0.00     0.005 A 
ATOM     17  C   UNL d   1      49.504  34.527  51.837  0.00  0.00     0.058 A 
ATOM     18  C   UNL d   1      50.167  34.366  51.387  0.00  0.00     0.005 A 
ATOM     19  C   UNL d   1      50.888  34.237  51.754  0.00  0.00     0.001 A 
BRANCH  17  20
ATOM     20  C   UNL d   1      48.771  34.657  51.445  0.00  0.00     0.279 C 
ATOM     21  O   UNL d   1      48.577  34.201  50.766  0.00  0.00    -0.265 OA
ATOM     22  N   UNL d   1      48.243  35.230  51.723  0.00  0.00    -0.203 NA
BRANCH  22  23
ATOM     23  C   UNL d   1      47.500  35.359  51.322  0.00  0.00     0.148 C 
BRANCH  23  24
ATOM     24  C   UNL d   1      46.970  35.908  51.594  0.00  0.00     0.255 C 
ATOM     25  O   UNL d   1      46.172  35.826  51.438  0.00  0.00    -0.281 OA
ENDBRANCH  23  24
ENDBRANCH  22  23
ENDBRANCH  17  20
ENDBRANCH  13  14
ENDBRANCH  12  13
ENDBRANCH   2  12
BRANCH   1  26
ATOM     26  C   UNL d   1      52.818  31.988  52.902  0.00  0.00     0.085 C 
BRANCH  26  27
ATOM     27  C   UNL d   1      52.688  31.227  53.221  0.00  0.00     0.019 C 
ATOM     28  C   UNL d   1      52.535  30.583  52.722  0.00  0.00     0.002 C 
ENDBRANCH  26  27
ENDBRANCH   1  26
TORSDOF 8
ENDMDL
MODEL 2
REMARK VINA RESULT:      -8.6      1.182      2.286
REMARK  8 active torsions:
REMARK  status: ('A' for Active; 'I' for Inactive)
REMARK    1  A    between atoms: C_11  and  N_1 
REMARK    2  A    between atoms: S_7  and  C_2 
REMARK    3  A    between atoms: C_18  and  S_7 
REMARK    4  A    between atoms: C_8  and  C_10 
REMARK       I    between atoms: N_14  and  C_8 
REMARK    5  A    between atoms: C_13  and  C_11 
REMARK    6  A    between atoms: C_25  and  N_14 
REMARK    7  A    between atoms: C_19  and  C_18 
REMARK    8  A    between atoms: C_26  and  C_25 
ROOT
ATOM      1  N   UNL d   1      52.693  33.872  53.389  0.00  0.00    -0.253 N 
ATOM      2  C   UNL d   1      52.005  33.597  53.114  0.00  0.00     0.182 A 
ATOM      3  C   UNL d   1      53.329  33.361  53.538  0.00  0.00     0.268 A 
ATOM      4  N   UNL d   1      51.895  32.789  52.966  0.00  0.00    -0.222 NA
ATOM      5  C   UNL d   1      53.240  32.570  53.400  0.00  0.00     0.074 A 
ATOM      6  C   UNL d   1      52.509  32.278  53.107  0.00  0.00     0.088 A 
ATOM      7  O   UNL d   1      54.041  33.646  53.823  0.00  0.00    -0.267 OA
ATOM      8  C   UNL d   1      53.852  32.050  53.540  0.00  0.00     0.006 A 
ATOM      9  C   UNL d   1      52.418  31.477  52.967  0.00  0.00     0.019 A 
ATOM     10  C   UNL d   1      53.741  31.246  53.391  0.00  0.00     0.000 A 
ATOM     11  C   UNL d   1      53.052  30.971  53.116  0.00  0.00     0.002 A 
ENDROOT
BRANCH   2  12
ATOM     12  S   UNL d   1      51.379  34.126  52.970  0.00  0.00    -0.049 SA
BRANCH  12  13
ATOM     13  C   UNL d   1      50.723  33.869  52.531  0.00  0.00     0.038 C 
BRANCH  13  14
ATOM     14  C   UNL d   1      50.049  34.337  52.450  0.00  0.00     0.007 A 
ATOM     15  C   UNL d   1      49.699  34.410  51.691  0.00  0.00     0.001 A 
ATOM     16  C   UNL d   1      49.037  34.867  51.593  0.00  0.00     0.005 A 
ATOM     17  C   UNL d   1      48.704  35.262  52.242  0.00  0.00     0.058 A 
ATOM     18  C   UNL d   1      49.052  35.185  52.978  0.00  0.00     0.005 A 
ATOM     19  C   UNL d   1      49.721  34.721  53.066  0.00  0.00     0.001 A 
BRANCH  17  20
ATOM     20  C   UNL d   1      48.017  35.742  52.167  0.00  0.00     0.279 C 
ATOM     21  O   UNL d   1      48.012  36.513  52.501  0.00  0.00    -0.265 OA
ATOM     22  N   UNL d   1      47.349  35.459  51.769  0.00  0.00    -0.203 NA
BRANCH  22  23
ATOM     23  C   UNL d   1      46.654  35.949  51.695  0.00  0.00     0.148 C 
BRANCH  23  24
ATOM     24  C   UNL d   1      45.955  35.641  51.427  0.00  0.00     0.255 C 
ATOM     25  O   UNL d   1      45.484  36.070  50.915  0.00  0.00    -0.281 OA
ENDBRANCH  23  24
ENDBRANCH  22  23
ENDBRANCH  17  20
ENDBRANCH  13  14
ENDBRANCH  12  13
ENDBRANCH   2  12
BRANCH   1  26
ATOM     26  C   UNL d   1      52.787  34.688  53.533  0.00  0.00     0.085 C 
BRANCH  26  27
ATOM     27  C   UNL d   1      52.983  34.937  54.305  0.00  0.00     0.019 C 
ATOM     28  C   UNL d   1      53.056  35.744  54.480  0.00  0.00     0.002 C 
ENDBRANCH  26  27
ENDBRANCH   1  26
TORSDOF 8
ENDMDL
MODEL 3
REMARK VINA RESULT:      -6.5      1.549      6.475
REMARK  8 active torsions:
REMARK  status: ('A' for Active; 'I' for Inactive)
REMARK    1  A    between atoms: C_11  and  N_1 
REMARK    2  A    between atoms: S_7  and  C_2 
REMARK    3  A    between atoms: C_18  and  S_7 
REMARK    4  A    between atoms: C_8  and  C_10 
REMARK       I    between atoms: N_14  and  C_8 
REMARK    5  A    between atoms: C_13  and  C_11 
REMARK    6  A    between atoms: C_25  and  N_14 
REMARK    7  A    between atoms: C_19  and  C_18 
REMARK    8  A    between atoms: C_26  and  C_25 
ROOT
ATOM      1  N   UNL d   1      47.917  35.933  53.089  0.00  0.00    -0.253 N 
ATOM      2  C   UNL d   1      48.346  35.445  52.638  0.00  0.00     0.182 A 
ATOM      3  C   UNL d   1      47.174  36.205  52.840  0.00  0.00     0.268 A 
ATOM      4  N   UNL d   1      48.067  35.189  51.901  0.00  0.00    -0.222 NA
ATOM      5  C   UNL d   1      46.887  35.965  52.123  0.00  0.00     0.074 A 
ATOM      6  C   UNL d   1      47.343  35.447  51.644  0.00  0.00     0.088 A 
ATOM      7  O   UNL d   1      46.730  36.709  53.306  0.00  0.00    -0.267 OA
ATOM      8  C   UNL d   1      46.159  36.220  51.859  0.00  0.00     0.006 A 
ATOM      9  C   UNL d   1      47.052  35.204  50.919  0.00  0.00     0.019 A 
ATOM     10  C   UNL d   1      45.884  35.963  51.124  0.00  0.00     0.000 A 
ATOM     11  C   UNL d   1      46.313  35.475  50.673  0.00  0.00     0.002 A 
ENDROOT
BRANCH   2  12
ATOM     12  S   UNL d   1      49.088  35.184  52.906  0.00  0.00    -0.049 SA
BRANCH  12  13
ATOM     13  C   UNL d   1      49.586  34.771  52.385  0.00  0.00     0.038 C 
BRANCH  13  14
ATOM     14  C   UNL d   1      50.275  34.403  52.649  0.00  0.00     0.007 A 
ATOM     15  C   UNL d   1      51.008  34.797  52.543  0.00  0.00     0.001 A 
ATOM     16  C   UNL d   1      51.694  34.450  52.797  0.00  0.00     0.005 A 
ATOM     17  C   UNL d   1      51.674  33.705  53.161  0.00  0.00     0.058 A 
ATOM     18  C   UNL d   1      50.956  33.328  53.261  0.00  0.00     0.005 A 
ATOM     19  C   UNL d   1      50.267  33.688  53.001  0.00  0.00     0.001 A 
BRANCH  17  20
ATOM     20  C   UNL d   1      52.373  33.322  53.433  0.00  0.00     0.279 C 
ATOM     21  O   UNL d   1      52.713  32.706  52.975  0.00  0.00    -0.265 OA
ATOM     22  N   UNL d   1      52.724  33.549  54.147  0.00  0.00    -0.203 NA
BRANCH  22  23
ATOM     23  C   UNL d   1      53.432  33.159  54.420  0.00  0.00     0.148 C 
BRANCH  23  24
ATOM     24  C   UNL d   1      53.873  33.470  55.024  0.00  0.00     0.255 C 
ATOM     25  O   UNL d   1      54.530  33.074  55.304  0.00  0.00    -0.281 OA
ENDBRANCH  23  24
ENDBRANCH  22  23
ENDBRANCH  17  20
ENDBRANCH  13  14
ENDBRANCH  12  13
ENDBRANCH   2  12
BRANCH   1  26
ATOM     26  C   UNL d   1      48.211  36.182  53.828  0.00  0.00     0.085 C 
BRANCH  26  27
ATOM     27  C   UNL d   1      47.666  36.389  54.426  0.00  0.00     0.019 C 
ATOM     28  C   UNL d   1      47.931  36.709  55.143  0.00  0.00     0.002 C 
ENDBRANCH  26  27
ENDBRANCH   1  26
TORSDOF 8
ENDMDL
