MODEL 1
REMARK VINA RESULT:     -10.8      0.000      0.000
REMARK  2 active torsions:
REMARK  status: ('A' for Active; 'I' for Inactive)
REMARK       I    between atoms: C_6  and  N_1 
REMARK    1  A    between atoms: C_7  and  C_3 
REMARK    2  A    between atoms: C_8  and  C_4 
ROOT
ATOM      1  N   UNL d   1      52.903  32.454  53.359  0.00  0.00    -0.195 N 
ATOM      2  N   UNL d   1      52.173  32.575  53.024  0.00  0.00    -0.163 NA
ATOM      3  C   UNL d   1      52.009  33.382  53.082  0.00  0.00     0.106 A 
ATOM      4  C   UNL d   1      53.192  33.180  53.624  0.00  0.00     0.088 A 
ATOM      5  C   UNL d   1      52.636  33.747  53.449  0.00  0.00     0.040 A 
ATOM      6  C   UNL d   1      53.312  31.708  53.432  0.00  0.00     0.281 C 
ATOM      7  O   UNL d   1      54.032  31.668  53.775  0.00  0.00    -0.265 OA
ATOM      8  C   UNL d   1      52.942  31.032  53.136  0.00  0.00     0.068 C 
ENDROOT
BRANCH   3   9
ATOM      9  C   UNL d   1      51.324  33.755  52.812  0.00  0.00     0.058 A 
ATOM     10  C   UNL d   1      51.306  34.089  52.058  0.00  0.00     0.197 A 
ATOM     11  O   UNL d   1      51.973  34.039  51.600  0.00  0.00    -0.286 OA
ATOM     12  C   UNL d   1      50.622  34.449  51.815  0.00  0.00     0.042 A 
ATOM     13  C   UNL d   1      49.980  34.491  52.269  0.00  0.00     0.003 A 
ATOM     14  C   UNL d   1      49.998  34.157  53.023  0.00  0.00     0.000 A 
ATOM     15  C   UNL d   1      50.658  33.792  53.297  0.00  0.00     0.005 A 
ENDBRANCH   3   9
BRANCH   4  16
ATOM     16  C   UNL d   1      53.922  33.301  54.000  0.00  0.00     0.018 A 
ATOM     17  C   UNL d   1      53.969  33.567  54.772  0.00  0.00     0.002 A 
ATOM     18  C   UNL d   1      53.256  33.711  55.166  0.00  0.00     0.000 C 
ATOM     19  C   UNL d   1      54.668  33.686  55.143  0.00  0.00     0.000 A 
ATOM     20  C   UNL d   1      55.380  33.541  54.749  0.00  0.00     0.000 A 
ATOM     21  C   UNL d   1      55.376  33.270  53.964  0.00  0.00     0.000 A 
ATOM     22  C   UNL d   1      54.637  33.157  53.610  0.00  0.00     0.002 A 
ENDBRANCH   4  16
TORSDOF 2
ENDMDL
MODEL 2
REMARK VINA RESULT:     -10.0      0.914      3.783
REMARK  2 active torsions:
REMARK  status: ('A' for Active; 'I' for Inactive)
REMARK       I    between atoms: C_6  and  N_1 
REMARK    1  A    between atoms: C_7  and  C_3 
REMARK    2  A    between atoms: C_8  and  C_4 
ROOT
ATOM      1  N   UNL d   1      52.818  32.501  53.296  0.00  0.00    -0.195 N 
ATOM      2  N   UNL d   1      53.538  32.459  53.670  0.00  0.00    -0.163 NA
ATOM      3  C   UNL d   1      53.680  33.200  54.007  0.00  0.00     0.106 A 
ATOM      4  C   UNL d   1      52.514  33.261  53.398  0.00  0.00     0.088 A 
ATOM      5  C   UNL d   1      53.051  33.686  53.837  0.00  0.00     0.040 A 
ATOM      6  C   UNL d   1      52.431  31.873  52.866  0.00  0.00     0.281 C 
ATOM      7  O   UNL d   1      51.719  31.990  52.522  0.00  0.00    -0.265 OA
ATOM      8  C   UNL d   1      52.813  31.143  52.817  0.00  0.00     0.068 C 
ENDROOT
BRANCH   3   9
ATOM      9  C   UNL d   1      54.349  33.409  54.442  0.00  0.00     0.058 A 
ATOM     10  C   UNL d   1      54.324  33.405  55.266  0.00  0.00     0.197 A 
ATOM     11  O   UNL d   1      53.630  33.191  55.627  0.00  0.00    -0.286 OA
ATOM     12  C   UNL d   1      54.993  33.615  55.671  0.00  0.00     0.042 A 
ATOM     13  C   UNL d   1      55.662  33.821  55.310  0.00  0.00     0.003 A 
ATOM     14  C   UNL d   1      55.687  33.825  54.485  0.00  0.00     0.000 A 
ATOM     15  C   UNL d   1      55.044  33.623  54.051  0.00  0.00     0.005 A 
ENDBRANCH   3   9
BRANCH   4  16
ATOM     16  C   UNL d   1      51.789  33.535  53.102  0.00  0.00     0.018 A 
ATOM     17  C   UNL d   1      51.752  34.106  52.516  0.00  0.00     0.002 A 
ATOM     18  C   UNL d   1      52.470  34.401  52.230  0.00  0.00     0.000 C 
ATOM     19  C   UNL d   1      51.057  34.377  52.225  0.00  0.00     0.000 A 
ATOM     20  C   UNL d   1      50.341  34.082  52.512  0.00  0.00     0.000 A 
ATOM     21  C   UNL d   1      50.335  33.501  53.106  0.00  0.00     0.000 A 
ATOM     22  C   UNL d   1      51.069  33.243  53.385  0.00  0.00     0.002 A 
ENDBRANCH   4  16
TORSDOF 2
ENDMDL
MODEL 3
REMARK VINA RESULT:      -9.8      1.361      3.086
REMARK  2 active torsions:
REMARK  status: ('A' for Active; 'I' for Inactive)
REMARK       I    between atoms: C_6  and  N_1 
REMARK    1  A    between atoms: C_7  and  C_3 
REMARK    2  A    between atoms: C_8  and  C_4 
ROOT
ATOM      1  N   UNL d   1      53.055  32.767  53.930  0.00  0.00    -0.195 N 
ATOM      2  N   UNL d   1      52.696  32.094  53.649  0.00  0.00    -0.163 NA
ATOM      3  C   UNL d   1      53.225  31.470  53.762  0.00  0.00     0.106 A 
ATOM      4  C   UNL d   1      53.801  32.564  54.216  0.00  0.00     0.088 A 
ATOM      5  C   UNL d   1      53.899  31.764  54.109  0.00  0.00     0.040 A 
ATOM      6  C   UNL d   1      52.725  33.555  53.933  0.00  0.00     0.281 C 
ATOM      7  O   UNL d   1      53.141  34.170  54.228  0.00  0.00    -0.265 OA
ATOM      8  C   UNL d   1      51.967  33.660  53.624  0.00  0.00     0.068 C 
ENDROOT
BRANCH   3   9
ATOM      9  C   UNL d   1      53.091  30.683  53.558  0.00  0.00     0.058 A 
ATOM     10  C   UNL d   1      52.899  30.485  52.780  0.00  0.00     0.197 A 
ATOM     11  O   UNL d   1      52.848  31.082  52.234  0.00  0.00    -0.286 OA
ATOM     12  C   UNL d   1      52.772  29.704  52.604  0.00  0.00     0.042 A 
ATOM     13  C   UNL d   1      52.824  29.132  53.142  0.00  0.00     0.003 A 
ATOM     14  C   UNL d   1      53.016  29.330  53.920  0.00  0.00     0.000 A 
ATOM     15  C   UNL d   1      53.149  30.093  54.131  0.00  0.00     0.005 A 
ENDBRANCH   3   9
BRANCH   4  16
ATOM     16  C   UNL d   1      54.348  33.090  54.551  0.00  0.00     0.018 A 
ATOM     17  C   UNL d   1      55.027  33.317  54.153  0.00  0.00     0.002 A 
ATOM     18  C   UNL d   1      55.146  32.998  53.399  0.00  0.00     0.000 C 
ATOM     19  C   UNL d   1      55.560  33.823  54.468  0.00  0.00     0.000 A 
ATOM     20  C   UNL d   1      55.440  34.140  55.222  0.00  0.00     0.000 A 
ATOM     21  C   UNL d   1      54.764  33.936  55.659  0.00  0.00     0.000 A 
ATOM     22  C   UNL d   1      54.233  33.410  55.305  0.00  0.00     0.002 A 
ENDBRANCH   4  16
TORSDOF 2
ENDMDL
MODEL 4
REMARK VINA RESULT:      -9.3      1.027      2.473
REMARK  2 active torsions:
REMARK  status: ('A' for Active; 'I' for Inactive)
REMARK       I    between atoms: C_6  and  N_1 
REMARK    1  A    between atoms: C_7  and  C_3 
REMARK    2  A    between atoms: C_8  and  C_4 
ROOT
ATOM      1  N   UNL d   1      53.381  32.511  53.518  0.00  0.00    -0.195 N 
ATOM      2  N   UNL d   1      53.001  33.192  53.293  0.00  0.00    -0.163 NA
ATOM      3  C   UNL d   1      52.241  32.979  53.051  0.00  0.00     0.106 A 
ATOM      4  C   UNL d   1      52.863  31.877  53.418  0.00  0.00     0.088 A 
ATOM      5  C   UNL d   1      52.163  32.173  53.130  0.00  0.00     0.040 A 
ATOM      6  C   UNL d   1      54.181  32.448  53.811  0.00  0.00     0.281 C 
ATOM      7  O   UNL d   1      54.488  31.738  54.013  0.00  0.00    -0.265 OA
ATOM      8  C   UNL d   1      54.626  33.140  53.877  0.00  0.00     0.068 C 
ENDROOT
BRANCH   3   9
ATOM      9  C   UNL d   1      51.660  33.496  52.776  0.00  0.00     0.058 A 
ATOM     10  C   UNL d   1      50.997  33.656  53.240  0.00  0.00     0.197 A 
ATOM     11  O   UNL d   1      50.938  33.294  53.962  0.00  0.00    -0.286 OA
ATOM     12  C   UNL d   1      50.441  34.168  52.948  0.00  0.00     0.042 A 
ATOM     13  C   UNL d   1      50.509  34.515  52.245  0.00  0.00     0.003 A 
ATOM     14  C   UNL d   1      51.172  34.354  51.781  0.00  0.00     0.000 A 
ATOM     15  C   UNL d   1      51.744  33.853  52.037  0.00  0.00     0.005 A 
ENDBRANCH   3   9
BRANCH   4  16
ATOM     16  C   UNL d   1      53.034  31.082  53.584  0.00  0.00     0.018 A 
ATOM     17  C   UNL d   1      53.061  30.516  52.993  0.00  0.00     0.002 A 
ATOM     18  C   UNL d   1      52.910  30.769  52.220  0.00  0.00     0.000 C 
ATOM     19  C   UNL d   1      53.225  29.747  53.144  0.00  0.00     0.000 A 
ATOM     20  C   UNL d   1      53.376  29.496  53.916  0.00  0.00     0.000 A 
ATOM     21  C   UNL d   1      53.359  30.040  54.544  0.00  0.00     0.000 A 
ATOM     22  C   UNL d   1      53.186  30.826  54.355  0.00  0.00     0.002 A 
ENDBRANCH   4  16
TORSDOF 2
ENDMDL
MODEL 5
REMARK VINA RESULT:      -9.2      1.117      3.701
REMARK  2 active torsions:
REMARK  status: ('A' for Active; 'I' for Inactive)
REMARK       I    between atoms: C_6  and  N_1 
REMARK    1  A    between atoms: C_7  and  C_3 
REMARK    2  A    between atoms: C_8  and  C_4 
ROOT
ATOM      1  N   UNL d   1      53.109  32.946  53.571  0.00  0.00    -0.195 N 
ATOM      2  N   UNL d   1      53.444  32.234  53.776  0.00  0.00    -0.163 NA
ATOM      3  C   UNL d   1      52.944  31.640  53.493  0.00  0.00     0.106 A 
ATOM      4  C   UNL d   1      52.407  32.797  53.165  0.00  0.00     0.088 A 
ATOM      5  C   UNL d   1      52.312  31.991  53.121  0.00  0.00     0.040 A 
ATOM      6  C   UNL d   1      53.422  33.722  53.742  0.00  0.00     0.281 C 
ATOM      7  O   UNL d   1      53.034  34.380  53.507  0.00  0.00    -0.265 OA
ATOM      8  C   UNL d   1      54.135  33.771  54.155  0.00  0.00     0.068 C 
ENDROOT
BRANCH   3   9
ATOM      9  C   UNL d   1      53.067  30.829  53.576  0.00  0.00     0.058 A 
ATOM     10  C   UNL d   1      53.114  30.348  52.908  0.00  0.00     0.197 A 
ATOM     11  O   UNL d   1      53.037  30.695  52.180  0.00  0.00    -0.286 OA
ATOM     12  C   UNL d   1      53.235  29.554  53.015  0.00  0.00     0.042 A 
ATOM     13  C   UNL d   1      53.308  29.227  53.728  0.00  0.00     0.003 A 
ATOM     14  C   UNL d   1      53.261  29.708  54.396  0.00  0.00     0.000 A 
ATOM     15  C   UNL d   1      53.142  30.499  54.329  0.00  0.00     0.005 A 
ENDBRANCH   3   9
BRANCH   4  16
ATOM     16  C   UNL d   1      51.895  33.374  52.859  0.00  0.00     0.018 A 
ATOM     17  C   UNL d   1      51.139  33.479  53.155  0.00  0.00     0.002 A 
ATOM     18  C   UNL d   1      50.904  32.983  53.775  0.00  0.00     0.000 C 
ATOM     19  C   UNL d   1      50.638  34.032  52.866  0.00  0.00     0.000 A 
ATOM     20  C   UNL d   1      50.874  34.526  52.247  0.00  0.00     0.000 A 
ATOM     21  C   UNL d   1      51.633  34.453  51.919  0.00  0.00     0.000 A 
ATOM     22  C   UNL d   1      52.126  33.871  52.240  0.00  0.00     0.002 A 
ENDBRANCH   4  16
TORSDOF 2
ENDMDL
MODEL 6
REMARK VINA RESULT:      -9.0      1.450      2.145
REMARK  2 active torsions:
REMARK  status: ('A' for Active; 'I' for Inactive)
REMARK       I    between atoms: C_6  and  N_1 
REMARK    1  A    between atoms: C_7  and  C_3 
REMARK    2  A    between atoms: C_8  and  C_4 
ROOT
ATOM      1  N   UNL d   1      52.736  34.723  53.926  0.00  0.00    -0.195 N 
ATOM      2  N   UNL d   1      52.107  34.969  53.475  0.00  0.00    -0.163 NA
ATOM      3  C   UNL d   1      51.792  34.298  53.111  0.00  0.00     0.106 A 
ATOM      4  C   UNL d   1      52.812  33.906  53.845  0.00  0.00     0.088 A 
ATOM      5  C   UNL d   1      52.227  33.652  53.341  0.00  0.00     0.040 A 
ATOM      6  C   UNL d   1      53.240  35.216  54.408  0.00  0.00     0.281 C 
ATOM      7  O   UNL d   1      53.843  34.900  54.827  0.00  0.00    -0.265 OA
ATOM      8  C   UNL d   1      53.086  36.027  54.427  0.00  0.00     0.068 C 
ENDROOT
BRANCH   3   9
ATOM      9  C   UNL d   1      51.144  34.288  52.600  0.00  0.00     0.058 A 
ATOM     10  C   UNL d   1      50.380  34.224  52.903  0.00  0.00     0.197 A 
ATOM     11  O   UNL d   1      50.290  34.172  53.707  0.00  0.00    -0.286 OA
ATOM     12  C   UNL d   1      49.760  34.216  52.382  0.00  0.00     0.042 A 
ATOM     13  C   UNL d   1      49.859  34.267  51.602  0.00  0.00     0.003 A 
ATOM     14  C   UNL d   1      50.624  34.331  51.299  0.00  0.00     0.000 A 
ATOM     15  C   UNL d   1      51.262  34.343  51.785  0.00  0.00     0.005 A 
ENDBRANCH   3   9
BRANCH   4  16
ATOM     16  C   UNL d   1      53.387  33.435  54.215  0.00  0.00     0.018 A 
ATOM     17  C   UNL d   1      53.944  33.019  53.784  0.00  0.00     0.002 A 
ATOM     18  C   UNL d   1      53.912  33.086  52.960  0.00  0.00     0.000 C 
ATOM     19  C   UNL d   1      54.502  32.562  54.132  0.00  0.00     0.000 A 
ATOM     20  C   UNL d   1      54.533  32.496  54.955  0.00  0.00     0.000 A 
ATOM     21  C   UNL d   1      53.985  32.903  55.429  0.00  0.00     0.000 A 
ATOM     22  C   UNL d   1      53.422  33.365  55.038  0.00  0.00     0.002 A 
ENDBRANCH   4  16
TORSDOF 2
ENDMDL
MODEL 7
REMARK VINA RESULT:      -8.9      1.358      3.768
REMARK  2 active torsions:
REMARK  status: ('A' for Active; 'I' for Inactive)
REMARK       I    between atoms: C_6  and  N_1 
REMARK    1  A    between atoms: C_7  and  C_3 
REMARK    2  A    between atoms: C_8  and  C_4 
ROOT
ATOM      1  N   UNL d   1      52.858  32.217  53.509  0.00  0.00    -0.195 N 
ATOM      2  N   UNL d   1      53.220  32.874  53.820  0.00  0.00    -0.163 NA
ATOM      3  C   UNL d   1      53.929  32.624  54.161  0.00  0.00     0.106 A 
ATOM      4  C   UNL d   1      53.337  31.562  53.654  0.00  0.00     0.088 A 
ATOM      5  C   UNL d   1      53.996  31.820  54.056  0.00  0.00     0.040 A 
ATOM      6  C   UNL d   1      52.109  32.195  53.100  0.00  0.00     0.281 C 
ATOM      7  O   UNL d   1      51.815  31.507  52.820  0.00  0.00    -0.265 OA
ATOM      8  C   UNL d   1      51.699  32.905  53.002  0.00  0.00     0.068 C 
ENDROOT
BRANCH   3   9
ATOM      9  C   UNL d   1      54.477  33.108  54.542  0.00  0.00     0.058 A 
ATOM     10  C   UNL d   1      55.138  33.385  54.134  0.00  0.00     0.197 A 
ATOM     11  O   UNL d   1      55.228  33.169  53.358  0.00  0.00    -0.286 OA
ATOM     12  C   UNL d   1      55.662  33.859  54.530  0.00  0.00     0.042 A 
ATOM     13  C   UNL d   1      55.565  34.063  55.284  0.00  0.00     0.003 A 
ATOM     14  C   UNL d   1      54.904  33.786  55.693  0.00  0.00     0.000 A 
ATOM     15  C   UNL d   1      54.364  33.314  55.333  0.00  0.00     0.005 A 
ENDBRANCH   3   9
BRANCH   4  16
ATOM     16  C   UNL d   1      53.170  30.782  53.427  0.00  0.00     0.018 A 
ATOM     17  C   UNL d   1      53.103  30.179  53.976  0.00  0.00     0.002 A 
ATOM     18  C   UNL d   1      53.210  30.379  54.772  0.00  0.00     0.000 C 
ATOM     19  C   UNL d   1      52.942  29.423  53.766  0.00  0.00     0.000 A 
ATOM     20  C   UNL d   1      52.836  29.224  52.972  0.00  0.00     0.000 A 
ATOM     21  C   UNL d   1      52.895  29.807  52.383  0.00  0.00     0.000 A 
ATOM     22  C   UNL d   1      53.062  30.577  52.633  0.00  0.00     0.002 A 
ENDBRANCH   4  16
TORSDOF 2
ENDMDL
