MODEL 1
REMARK VINA RESULT:      -7.1      0.000      0.000
REMARK  3 active torsions:
REMARK  status: ('A' for Active; 'I' for Inactive)
REMARK    1  A    between atoms: N_2  and  C_1 
REMARK       I    between atoms: C_4  and  N_2 
REMARK    2  A    between atoms: C_8  and  C_4 
REMARK    3  A    between atoms: C_10  and  C_5 
ROOT
ATOM      1  C   UNL d   1     -47.520  13.952  23.089  0.00  0.00     0.197 A 
ATOM      2  N   UNL d   1     -48.291  13.960  23.347  0.00  0.00    -0.221 NA
ATOM      3  C   UNL d   1     -48.641  14.647  22.968  0.00  0.00     0.090 A 
ATOM      4  S   UNL d   1     -47.363  14.585  22.576  0.00  0.00    -0.046 SA
ATOM      5  C   UNL d   1     -48.047  15.012  22.500  0.00  0.00     0.058 A 
ENDROOT
BRANCH   1   6
ATOM      6  N   UNL d   1     -46.947  13.369  23.317  0.00  0.00    -0.183 NA
ATOM      7  C   UNL d   1     -46.966  12.619  22.932  0.00  0.00     0.281 C 
ATOM      8  O   UNL d   1     -47.531  12.459  22.346  0.00  0.00    -0.265 OA
BRANCH   7   9
ATOM      9  C   UNL d   1     -46.424  12.028  23.128  0.00  0.00     0.058 A 
ATOM     10  C   UNL d   1     -45.638  12.146  22.941  0.00  0.00     0.006 A 
ATOM     11  C   UNL d   1     -45.081  11.551  23.136  0.00  0.00     0.012 A 
ATOM     12  C   UNL d   1     -45.307  10.856  23.510  0.00  0.00     0.058 A 
ATOM     13  C   UNL d   1     -46.120  10.745  23.698  0.00  0.00     0.012 A 
ATOM     14 CL   UNL d   1     -44.819  10.306  23.695  0.00  0.00    -0.082 Cl
ATOM     15  C   UNL d   1     -46.675  11.338  23.503  0.00  0.00     0.006 A 
ENDBRANCH   7   9
ENDBRANCH   1   6
BRANCH   3  16
ATOM     16  C   UNL d   1     -49.412  14.915  23.037  0.00  0.00     0.018 A 
ATOM     17  C   UNL d   1     -49.594  15.580  23.489  0.00  0.00     0.002 A 
ATOM     18  C   UNL d   1     -50.381  15.853  23.559  0.00  0.00     0.000 A 
ATOM     19  C   UNL d   1     -50.985  15.437  23.161  0.00  0.00     0.000 A 
ATOM     20  C   UNL d   1     -50.799  14.776  22.713  0.00  0.00     0.000 A 
ATOM     21  C   UNL d   1     -50.006  14.515  22.653  0.00  0.00     0.002 A 
ENDBRANCH   3  16
TORSDOF 3
ENDMDL
MODEL 2
REMARK VINA RESULT:      -6.8      1.365      1.628
REMARK  3 active torsions:
REMARK  status: ('A' for Active; 'I' for Inactive)
REMARK    1  A    between atoms: N_2  and  C_1 
REMARK       I    between atoms: C_4  and  N_2 
REMARK    2  A    between atoms: C_8  and  C_4 
REMARK    3  A    between atoms: C_10  and  C_5 
ROOT
ATOM      1  C   UNL d   1     -48.099  13.256  22.742  0.00  0.00     0.197 A 
ATOM      2  N   UNL d   1     -48.416  14.003  22.775  0.00  0.00    -0.221 NA
ATOM      3  C   UNL d   1     -49.178  13.902  23.160  0.00  0.00     0.090 A 
ATOM      4  S   UNL d   1     -48.609  12.694  23.079  0.00  0.00    -0.046 SA
ATOM      5  C   UNL d   1     -49.270  13.086  23.335  0.00  0.00     0.058 A 
ENDROOT
BRANCH   1   6
ATOM      6  N   UNL d   1     -47.343  13.073  22.406  0.00  0.00    -0.183 NA
ATOM      7  C   UNL d   1     -46.656  13.180  22.884  0.00  0.00     0.281 C 
ATOM      8  O   UNL d   1     -46.723  13.458  23.663  0.00  0.00    -0.265 OA
BRANCH   7   9
ATOM      9  C   UNL d   1     -45.904  13.013  22.590  0.00  0.00     0.058 A 
ATOM     10  C   UNL d   1     -45.544  13.565  22.109  0.00  0.00     0.006 A 
ATOM     11  C   UNL d   1     -44.779  13.403  21.805  0.00  0.00     0.012 A 
ATOM     12  C   UNL d   1     -44.387  12.704  21.981  0.00  0.00     0.058 A 
ATOM     13  C   UNL d   1     -44.767  12.142  22.478  0.00  0.00     0.012 A 
ATOM     14 CL   UNL d   1     -43.695  12.538  21.716  0.00  0.00    -0.082 Cl
ATOM     15  C   UNL d   1     -45.528  12.303  22.780  0.00  0.00     0.006 A 
ENDBRANCH   7   9
ENDBRANCH   1   6
BRANCH   3  16
ATOM     16  C   UNL d   1     -49.729  14.482  23.333  0.00  0.00     0.018 A 
ATOM     17  C   UNL d   1     -49.526  15.281  23.322  0.00  0.00     0.002 A 
ATOM     18  C   UNL d   1     -50.089  15.873  23.498  0.00  0.00     0.000 A 
ATOM     19  C   UNL d   1     -50.867  15.641  23.688  0.00  0.00     0.000 A 
ATOM     20  C   UNL d   1     -51.064  14.844  23.698  0.00  0.00     0.000 A 
ATOM     21  C   UNL d   1     -50.490  14.264  23.519  0.00  0.00     0.002 A 
ENDBRANCH   3  16
TORSDOF 3
ENDMDL
MODEL 3
REMARK VINA RESULT:      -6.3      2.156      5.090
REMARK  3 active torsions:
REMARK  status: ('A' for Active; 'I' for Inactive)
REMARK    1  A    between atoms: N_2  and  C_1 
REMARK       I    between atoms: C_4  and  N_2 
REMARK    2  A    between atoms: C_8  and  C_4 
REMARK    3  A    between atoms: C_10  and  C_5 
ROOT
ATOM      1  C   UNL d   1     -46.712  13.279  23.078  0.00  0.00     0.197 A 
ATOM      2  N   UNL d   1     -46.046  13.484  22.661  0.00  0.00    -0.221 NA
ATOM      3  C   UNL d   1     -45.567  12.772  22.649  0.00  0.00     0.090 A 
ATOM      4  S   UNL d   1     -46.683  12.488  23.328  0.00  0.00    -0.046 SA
ATOM      5  C   UNL d   1     -45.983  12.175  23.067  0.00  0.00     0.058 A 
ENDROOT
BRANCH   1   6
ATOM      6  N   UNL d   1     -47.357  13.806  23.239  0.00  0.00    -0.183 NA
ATOM      7  C   UNL d   1     -48.017  13.803  22.713  0.00  0.00     0.281 C 
ATOM      8  O   UNL d   1     -48.031  13.295  22.058  0.00  0.00    -0.265 OA
BRANCH   7   9
ATOM      9  C   UNL d   1     -48.661  14.303  22.839  0.00  0.00     0.058 A 
ATOM     10  C   UNL d   1     -49.319  13.999  23.214  0.00  0.00     0.006 A 
ATOM     11  C   UNL d   1     -49.979  14.500  23.346  0.00  0.00     0.012 A 
ATOM     12  C   UNL d   1     -49.977  15.285  23.106  0.00  0.00     0.058 A 
ATOM     13  C   UNL d   1     -49.293  15.587  22.719  0.00  0.00     0.012 A 
ATOM     14 CL   UNL d   1     -50.562  15.754  23.215  0.00  0.00    -0.082 Cl
ATOM     15  C   UNL d   1     -48.637  15.088  22.589  0.00  0.00     0.006 A 
ENDBRANCH   7   9
ENDBRANCH   1   6
BRANCH   3  16
ATOM     16  C   UNL d   1     -44.833  12.672  22.298  0.00  0.00     0.018 A 
ATOM     17  C   UNL d   1     -44.584  13.159  21.681  0.00  0.00     0.002 A 
ATOM     18  C   UNL d   1     -43.835  13.057  21.324  0.00  0.00     0.000 A 
ATOM     19  C   UNL d   1     -43.340  12.448  21.604  0.00  0.00     0.000 A 
ATOM     20  C   UNL d   1     -43.591  11.966  22.217  0.00  0.00     0.000 A 
ATOM     21  C   UNL d   1     -44.343  12.081  22.565  0.00  0.00     0.002 A 
ENDBRANCH   3  16
TORSDOF 3
ENDMDL
MODEL 4
REMARK VINA RESULT:      -5.8      8.734      9.570
REMARK  3 active torsions:
REMARK  status: ('A' for Active; 'I' for Inactive)
REMARK    1  A    between atoms: N_2  and  C_1 
REMARK       I    between atoms: C_4  and  N_2 
REMARK    2  A    between atoms: C_8  and  C_4 
REMARK    3  A    between atoms: C_10  and  C_5 
ROOT
ATOM      1  C   UNL d   1     -39.643  15.341  20.731  0.00  0.00     0.197 A 
ATOM      2  N   UNL d   1     -39.156  14.779  21.059  0.00  0.00    -0.221 NA
ATOM      3  C   UNL d   1     -39.234  14.890  21.907  0.00  0.00     0.090 A 
ATOM      4  S   UNL d   1     -40.019  15.796  21.315  0.00  0.00    -0.046 SA
ATOM      5  C   UNL d   1     -39.771  15.522  22.035  0.00  0.00     0.058 A 
ENDROOT
BRANCH   1   6
ATOM      6  N   UNL d   1     -39.752  15.450  19.897  0.00  0.00    -0.183 NA
ATOM      7  C   UNL d   1     -40.403  15.062  19.525  0.00  0.00     0.281 C 
ATOM      8  O   UNL d   1     -40.920  14.588  19.968  0.00  0.00    -0.265 OA
BRANCH   7   9
ATOM      9  C   UNL d   1     -40.540  15.145  18.716  0.00  0.00     0.058 A 
ATOM     10  C   UNL d   1     -40.313  14.537  18.221  0.00  0.00     0.006 A 
ATOM     11  C   UNL d   1     -40.449  14.613  17.397  0.00  0.00     0.012 A 
ATOM     12  C   UNL d   1     -40.803  15.282  17.079  0.00  0.00     0.058 A 
ATOM     13  C   UNL d   1     -41.032  15.902  17.599  0.00  0.00     0.012 A 
ATOM     14 CL   UNL d   1     -40.934  15.370  16.337  0.00  0.00    -0.082 Cl
ATOM     15  C   UNL d   1     -40.898  15.826  18.419  0.00  0.00     0.006 A 
ENDBRANCH   7   9
ENDBRANCH   1   6
BRANCH   3  16
ATOM     16  C   UNL d   1     -38.860  14.466  22.501  0.00  0.00     0.018 A 
ATOM     17  C   UNL d   1     -38.322  14.828  23.010  0.00  0.00     0.002 A 
ATOM     18  C   UNL d   1     -37.941  14.395  23.615  0.00  0.00     0.000 A 
ATOM     19  C   UNL d   1     -38.115  13.584  23.697  0.00  0.00     0.000 A 
ATOM     20  C   UNL d   1     -38.652  13.229  23.188  0.00  0.00     0.000 A 
ATOM     21  C   UNL d   1     -39.025  13.675  22.587  0.00  0.00     0.002 A 
ENDBRANCH   3  16
TORSDOF 3
ENDMDL
MODEL 5
REMARK VINA RESULT:      -5.6      9.017     10.269
REMARK  3 active torsions:
REMARK  status: ('A' for Active; 'I' for Inactive)
REMARK    1  A    between atoms: N_2  and  C_1 
REMARK       I    between atoms: C_4  and  N_2 
REMARK    2  A    between atoms: C_8  and  C_4 
REMARK    3  A    between atoms: C_10  and  C_5 
ROOT
ATOM      1  C   UNL d   1     -39.222  14.562  19.371  0.00  0.00     0.197 A 
ATOM      2  N   UNL d   1     -38.769  14.409  20.029  0.00  0.00    -0.221 NA
ATOM      3  C   UNL d   1     -39.315  14.468  20.689  0.00  0.00     0.090 A 
ATOM      4  S   UNL d   1     -40.012  14.713  19.573  0.00  0.00    -0.046 SA
ATOM      5  C   UNL d   1     -40.073  14.656  20.379  0.00  0.00     0.058 A 
ENDROOT
BRANCH   1   6
ATOM      6  N   UNL d   1     -38.923  14.567  18.577  0.00  0.00    -0.183 NA
ATOM      7  C   UNL d   1     -39.041  13.880  18.101  0.00  0.00     0.281 C 
ATOM      8  O   UNL d   1     -39.439  13.219  18.406  0.00  0.00    -0.265 OA
BRANCH   7   9
ATOM      9  C   UNL d   1     -38.764  13.850  17.325  0.00  0.00     0.058 A 
ATOM     10  C   UNL d   1     -38.234  13.262  17.125  0.00  0.00     0.006 A 
ATOM     11  C   UNL d   1     -37.947  13.223  16.338  0.00  0.00     0.012 A 
ATOM     12  C   UNL d   1     -38.187  13.761  15.767  0.00  0.00     0.058 A 
ATOM     13  C   UNL d   1     -38.733  14.363  15.984  0.00  0.00     0.012 A 
ATOM     14 CL   UNL d   1     -37.940  13.744  15.050  0.00  0.00    -0.082 Cl
ATOM     15  C   UNL d   1     -39.019  14.401  16.767  0.00  0.00     0.006 A 
ENDBRANCH   7   9
ENDBRANCH   1   6
BRANCH   3  16
ATOM     16  C   UNL d   1     -39.148  14.364  21.484  0.00  0.00     0.018 A 
ATOM     17  C   UNL d   1     -39.022  15.009  21.982  0.00  0.00     0.002 A 
ATOM     18  C   UNL d   1     -38.851  14.902  22.793  0.00  0.00     0.000 A 
ATOM     19  C   UNL d   1     -38.810  14.126  23.094  0.00  0.00     0.000 A 
ATOM     20  C   UNL d   1     -38.937  13.487  22.595  0.00  0.00     0.000 A 
ATOM     21  C   UNL d   1     -39.107  13.610  21.785  0.00  0.00     0.002 A 
ENDBRANCH   3  16
TORSDOF 3
ENDMDL
MODEL 6
REMARK VINA RESULT:      -4.9      8.987     10.663
REMARK  3 active torsions:
REMARK  status: ('A' for Active; 'I' for Inactive)
REMARK    1  A    between atoms: N_2  and  C_1 
REMARK       I    between atoms: C_4  and  N_2 
REMARK    2  A    between atoms: C_8  and  C_4 
REMARK    3  A    between atoms: C_10  and  C_5 
ROOT
ATOM      1  C   UNL d   1     -39.045  15.467  18.622  0.00  0.00     0.197 A 
ATOM      2  N   UNL d   1     -38.484  15.151  18.126  0.00  0.00    -0.221 NA
ATOM      3  C   UNL d   1     -38.887  15.051  17.374  0.00  0.00     0.090 A 
ATOM      4  S   UNL d   1     -39.771  15.572  18.233  0.00  0.00    -0.046 SA
ATOM      5  C   UNL d   1     -39.677  15.318  17.469  0.00  0.00     0.058 A 
ENDROOT
BRANCH   1   6
ATOM      6  N   UNL d   1     -38.906  15.666  19.435  0.00  0.00    -0.183 NA
ATOM      7  C   UNL d   1     -39.355  15.265  20.026  0.00  0.00     0.281 C 
ATOM      8  O   UNL d   1     -39.917  14.693  19.814  0.00  0.00    -0.265 OA
BRANCH   7   9
ATOM      9  C   UNL d   1     -39.247  15.432  20.827  0.00  0.00     0.058 A 
ATOM     10  C   UNL d   1     -38.500  15.341  21.144  0.00  0.00     0.006 A 
ATOM     11  C   UNL d   1     -38.381  15.509  21.956  0.00  0.00     0.012 A 
ATOM     12  C   UNL d   1     -38.996  15.762  22.438  0.00  0.00     0.058 A 
ATOM     13  C   UNL d   1     -39.761  15.852  22.100  0.00  0.00     0.012 A 
ATOM     14 CL   UNL d   1     -38.909  15.918  23.175  0.00  0.00    -0.082 Cl
ATOM     15  C   UNL d   1     -39.880  15.685  21.291  0.00  0.00     0.006 A 
ENDBRANCH   7   9
ENDBRANCH   1   6
BRANCH   3  16
ATOM     16  C   UNL d   1     -38.575  14.751  16.679  0.00  0.00     0.018 A 
ATOM     17  C   UNL d   1     -38.495  13.939  16.562  0.00  0.00     0.002 A 
ATOM     18  C   UNL d   1     -38.177  13.633  15.852  0.00  0.00     0.000 A 
ATOM     19  C   UNL d   1     -37.940  14.168  15.258  0.00  0.00     0.000 A 
ATOM     20  C   UNL d   1     -38.021  14.975  15.379  0.00  0.00     0.000 A 
ATOM     21  C   UNL d   1     -38.341  15.265  16.094  0.00  0.00     0.002 A 
ENDBRANCH   3  16
TORSDOF 3
ENDMDL
