MODEL 1
REMARK VINA RESULT:      16.6      0.000      0.000
REMARK  3 active torsions:
REMARK  status: ('A' for Active; 'I' for Inactive)
REMARK    1  A    between atoms: N_3  and  S_1 
REMARK    2  A    between atoms: C_8  and  S_1 
REMARK    3  A    between atoms: C_2  and  N_3 
ROOT
ATOM      1  S   UNL d   1      13.619  11.999  -2.744  0.00  0.00     0.287 S 
ATOM      2  O   UNL d   1      14.411  12.189  -2.881  0.00  0.00    -0.198 OA
ATOM      3  O   UNL d   1      12.824  11.811  -2.616  0.00  0.00    -0.198 OA
ENDROOT
BRANCH   1   4
ATOM      4  N   UNL d   1      13.800  11.783  -1.967  0.00  0.00    -0.131 NA
BRANCH   4   5
ATOM      5  C   UNL d   1      14.134  12.168  -1.316  0.00  0.00     0.219 A 
ATOM      6  C   UNL d   1      14.937  12.189  -1.128  0.00  0.00     0.064 A 
ATOM      7  C   UNL d   1      15.021  12.634  -0.433  0.00  0.00     0.112 A 
ATOM      8  C   UNL d   1      15.550  11.831  -1.556  0.00  0.00     0.005 C 
ATOM      9  C   UNL d   1      15.736  12.795  -0.048  0.00  0.00     0.023 C 
ATOM     10  N   UNL d   1      14.270  12.883  -0.197  0.00  0.00    -0.125 NA
ATOM     11  O   UNL d   1      13.718  12.595  -0.744  0.00  0.00    -0.191 OA
ENDBRANCH   4   5
ENDBRANCH   1   4
BRANCH   1  12
ATOM     12  C   UNL d   1      13.438  12.215  -3.521  0.00  0.00     0.105 A 
ATOM     13  C   UNL d   1      12.951  12.865  -3.666  0.00  0.00     0.015 A 
ATOM     14  C   UNL d   1      12.773  13.078  -4.433  0.00  0.00     0.022 A 
ATOM     15  C   UNL d   1      13.071  12.653  -5.059  0.00  0.00     0.103 A 
ATOM     16  C   UNL d   1      13.556  12.004  -4.918  0.00  0.00     0.022 A 
ATOM     17  N   UNL d   1      12.890  12.869  -5.836  0.00  0.00    -0.148 N 
ATOM     18  C   UNL d   1      13.736  11.791  -4.148  0.00  0.00     0.015 A 
ENDBRANCH   1  12
TORSDOF 3
ENDMDL
