MODEL 1
REMARK VINA RESULT:      -9.0      0.000      0.000
REMARK  2 active torsions:
REMARK  status: ('A' for Active; 'I' for Inactive)
REMARK    1  A    between atoms: C_6  and  N_1 
REMARK    2  A    between atoms: C_7  and  C_6 
ROOT
ATOM      1  N   UNL d   1      52.341  33.799  53.224  0.00  0.00    -0.236 N 
ATOM      2  C   UNL d   1      52.748  33.097  53.205  0.00  0.00     0.267 A 
ATOM      3  C   UNL d   1      52.664  34.275  53.792  0.00  0.00     0.267 A 
ATOM      4  C   UNL d   1      53.338  33.134  53.770  0.00  0.00     0.061 A 
ATOM      5  C   UNL d   1      53.285  33.870  54.137  0.00  0.00     0.061 A 
ATOM      6  O   UNL d   1      52.601  32.443  52.699  0.00  0.00    -0.267 OA
ATOM      7  O   UNL d   1      52.414  35.053  54.000  0.00  0.00    -0.267 OA
ATOM      8  C   UNL d   1      53.817  34.064  54.737  0.00  0.00     0.005 A 
ATOM      9  C   UNL d   1      53.921  32.602  54.009  0.00  0.00     0.005 A 
ATOM     10  C   UNL d   1      54.456  32.795  54.611  0.00  0.00     0.000 A 
ATOM     11  C   UNL d   1      54.403  33.531  54.978  0.00  0.00     0.000 A 
ENDROOT
BRANCH   1  12
ATOM     12  C   UNL d   1      51.696  33.973  52.727  0.00  0.00     0.134 C 
ATOM     13  C   UNL d   1      51.793  34.207  51.956  0.00  0.00     0.026 C 
BRANCH  12  14
ATOM     14  C   UNL d   1      50.926  33.902  53.043  0.00  0.00     0.228 C 
ATOM     15  O   UNL d   1      50.431  34.575  53.084  0.00  0.00    -0.643 OA
ATOM     16  O   UNL d   1      50.650  33.169  53.316  0.00  0.00    -0.643 OA
ENDBRANCH  12  14
ENDBRANCH   1  12
TORSDOF 2
ENDMDL
MODEL 2
REMARK VINA RESULT:      -8.7      1.361      2.896
REMARK  2 active torsions:
REMARK  status: ('A' for Active; 'I' for Inactive)
REMARK    1  A    between atoms: C_6  and  N_1 
REMARK    2  A    between atoms: C_7  and  C_6 
ROOT
ATOM      1  N   UNL d   1      53.606  33.445  53.954  0.00  0.00    -0.236 N 
ATOM      2  C   UNL d   1      53.073  32.920  53.640  0.00  0.00     0.267 A 
ATOM      3  C   UNL d   1      53.285  34.188  53.935  0.00  0.00     0.267 A 
ATOM      4  C   UNL d   1      52.407  33.339  53.420  0.00  0.00     0.061 A 
ATOM      5  C   UNL d   1      52.539  34.132  53.604  0.00  0.00     0.061 A 
ATOM      6  O   UNL d   1      53.177  32.091  53.551  0.00  0.00    -0.267 OA
ATOM      7  O   UNL d   1      53.646  34.900  54.205  0.00  0.00    -0.267 OA
ATOM      8  C   UNL d   1      51.954  34.689  53.442  0.00  0.00     0.005 A 
ATOM      9  C   UNL d   1      51.692  33.117  53.075  0.00  0.00     0.005 A 
ATOM     10  C   UNL d   1      51.103  33.676  52.911  0.00  0.00     0.000 A 
ATOM     11  C   UNL d   1      51.235  34.468  53.096  0.00  0.00     0.000 A 
ENDROOT
BRANCH   1  12
ATOM     12  C   UNL d   1      54.356  33.228  54.242  0.00  0.00     0.134 C 
ATOM     13  C   UNL d   1      54.971  33.035  53.750  0.00  0.00     0.026 C 
BRANCH  12  14
ATOM     14  C   UNL d   1      54.469  33.211  55.070  0.00  0.00     0.228 C 
ATOM     15  O   UNL d   1      54.939  33.798  55.436  0.00  0.00    -0.643 OA
ATOM     16  O   UNL d   1      54.117  32.617  55.530  0.00  0.00    -0.643 OA
ENDBRANCH  12  14
ENDBRANCH   1  12
TORSDOF 2
ENDMDL
MODEL 3
REMARK VINA RESULT:      -8.2      1.447      2.496
REMARK  2 active torsions:
REMARK  status: ('A' for Active; 'I' for Inactive)
REMARK    1  A    between atoms: C_6  and  N_1 
REMARK    2  A    between atoms: C_7  and  C_6 
ROOT
ATOM      1  N   UNL d   1      53.267  33.269  53.649  0.00  0.00    -0.236 N 
ATOM      2  C   UNL d   1      52.611  32.868  53.389  0.00  0.00     0.267 A 
ATOM      3  C   UNL d   1      53.883  32.749  53.716  0.00  0.00     0.267 A 
ATOM      4  C   UNL d   1      52.819  32.083  53.291  0.00  0.00     0.061 A 
ATOM      5  C   UNL d   1      53.614  32.009  53.495  0.00  0.00     0.061 A 
ATOM      6  O   UNL d   1      51.849  33.190  53.243  0.00  0.00    -0.267 OA
ATOM      7  O   UNL d   1      54.668  32.927  53.968  0.00  0.00    -0.267 OA
ATOM      8  C   UNL d   1      53.978  31.271  53.449  0.00  0.00     0.005 A 
ATOM      9  C   UNL d   1      52.400  31.418  53.043  0.00  0.00     0.005 A 
ATOM     10  C   UNL d   1      52.764  30.675  52.997  0.00  0.00     0.000 A 
ATOM     11  C   UNL d   1      53.559  30.601  53.201  0.00  0.00     0.000 A 
ENDROOT
BRANCH   1  12
ATOM     12  C   UNL d   1      53.275  34.085  53.813  0.00  0.00     0.134 C 
ATOM     13  C   UNL d   1      53.214  34.646  53.230  0.00  0.00     0.026 C 
BRANCH  12  14
ATOM     14  C   UNL d   1      53.351  34.324  54.610  0.00  0.00     0.228 C 
ATOM     15  O   UNL d   1      54.073  34.650  54.878  0.00  0.00    -0.643 OA
ATOM     16  O   UNL d   1      52.715  34.241  55.136  0.00  0.00    -0.643 OA
ENDBRANCH  12  14
ENDBRANCH   1  12
TORSDOF 2
ENDMDL
