MODEL 1
REMARK VINA RESULT:      21.1      0.000      0.000
REMARK  3 active torsions:
REMARK  status: ('A' for Active; 'I' for Inactive)
REMARK    1  A    between atoms: C_6  and  N_2 
REMARK    2  A    between atoms: C_7  and  C_6 
REMARK    3  A    between atoms: C_8  and  C_7 
ROOT
ATOM      1  N   UNL d   1     -58.400 -98.815 -43.307  0.00  0.00    -0.224 NA
ATOM      2  N   UNL d   1     -57.428 -98.777 -44.207  0.00  0.00    -0.287 N 
ATOM      3  C   UNL d   1     -57.614 -98.801 -43.433  0.00  0.00     0.183 A 
ATOM      4  C   UNL d   1     -58.157 -98.775 -44.625  0.00  0.00     0.083 A 
ATOM      5  C   UNL d   1     -58.740 -98.797 -44.085  0.00  0.00     0.099 A 
ATOM      6  C   UNL d   1     -58.359 -98.755 -45.418  0.00  0.00     0.019 A 
ATOM      7  C   UNL d   1     -59.578 -98.803 -44.289  0.00  0.00     0.021 A 
ATOM      8  C   UNL d   1     -59.133 -98.758 -45.678  0.00  0.00     0.002 A 
ATOM      9  C   UNL d   1     -59.716 -98.781 -45.138  0.00  0.00     0.002 A 
ENDROOT
BRANCH   2  10
ATOM     10  C   UNL d   1     -56.673 -98.756 -44.572  0.00  0.00     0.082 C 
BRANCH  10  11
ATOM     11  C   UNL d   1     -56.022 -98.941 -44.140  0.00  0.00     0.019 C 
BRANCH  11  12
ATOM     12  C   UNL d   1     -55.580 -99.622 -44.342  0.00  0.00     0.002 A 
ATOM     13  C   UNL d   1     -55.580-100.275 -43.812  0.00  0.00     0.000 A 
ATOM     14  C   UNL d   1     -55.138-100.960 -44.014  0.00  0.00     0.000 A 
ATOM     15  C   UNL d   1     -54.720-100.971 -44.719  0.00  0.00     0.000 A 
ATOM     16  C   UNL d   1     -54.723-100.317 -45.246  0.00  0.00     0.000 A 
ATOM     17  C   UNL d   1     -55.153 -99.656 -45.046  0.00  0.00     0.000 A 
ENDBRANCH  11  12
ENDBRANCH  10  11
ENDBRANCH   2  10
TORSDOF 3
ENDMDL
