MODEL 1
REMARK VINA RESULT:      -4.8      0.000      0.000
REMARK  4 active torsions:
REMARK  status: ('A' for Active; 'I' for Inactive)
REMARK    1  A    between atoms: C_3  and  S_1 
REMARK       I    between atoms: C_2  and  N_6 
REMARK    2  A    between atoms: C_11  and  C_2 
REMARK    3  A    between atoms: N_6  and  C_12 
REMARK    4  A    between atoms: C_15  and  C_11 
ROOT
ATOM      1  C   UNL d   1      56.328  -0.052  32.608  0.00  0.00     0.107 A 
ATOM      2  C   UNL d   1      56.634  -0.743  32.285  0.00  0.00     0.015 A 
ATOM      3  C   UNL d   1      56.408   0.662  32.202  0.00  0.00     0.015 A 
ATOM      4  C   UNL d   1      57.101  -0.013  31.153  0.00  0.00     0.085 A 
ATOM      5  C   UNL d   1      56.795   0.682  31.475  0.00  0.00     0.020 A 
ATOM      6  C   UNL d   1      57.021  -0.724  31.557  0.00  0.00     0.020 A 
ENDROOT
BRANCH   4   7
ATOM      7  N   UNL d   1      57.489   0.006  30.424  0.00  0.00    -0.208 NA
ATOM      8  C   UNL d   1      58.265   0.282  30.378  0.00  0.00     0.279 C 
ATOM      9  O   UNL d   1      58.653   0.538  31.057  0.00  0.00    -0.265 OA
BRANCH   8  10
ATOM     10  C   UNL d   1      58.655   0.302  29.644  0.00  0.00     0.062 C 
BRANCH  10  11
ATOM     11  C   UNL d   1      59.378  -0.082  29.544  0.00  0.00     0.005 A 
ATOM     12  C   UNL d   1      59.387  -0.843  29.228  0.00  0.00     0.000 A 
ATOM     13  C   UNL d   1      60.113  -1.231  29.127  0.00  0.00     0.000 A 
ATOM     14  C   UNL d   1      60.820  -0.856  29.343  0.00  0.00     0.000 A 
ATOM     15  C   UNL d   1      60.802  -0.095  29.658  0.00  0.00     0.000 A 
ATOM     16  C   UNL d   1      60.085   0.293  29.760  0.00  0.00     0.000 A 
ENDBRANCH  10  11
ENDBRANCH   8  10
ENDBRANCH   4   7
BRANCH   1  17
ATOM     17  S   UNL d   1      55.941  -0.072  33.336  0.00  0.00     0.302 S 
ATOM     18  O   UNL d   1      55.292  -0.438  32.981  0.00  0.00    -0.197 OA
ATOM     19  O   UNL d   1      56.590   0.295  33.690  0.00  0.00    -0.197 OA
ATOM     20  N   UNL d   1      55.554  -0.091  34.065  0.00  0.00    -0.043 N 
ENDBRANCH   1  17
TORSDOF 4
ENDMDL
MODEL 2
REMARK VINA RESULT:      -4.4      1.999      4.630
REMARK  4 active torsions:
REMARK  status: ('A' for Active; 'I' for Inactive)
REMARK    1  A    between atoms: C_3  and  S_1 
REMARK       I    between atoms: C_2  and  N_6 
REMARK    2  A    between atoms: C_11  and  C_2 
REMARK    3  A    between atoms: N_6  and  C_12 
REMARK    4  A    between atoms: C_15  and  C_11 
ROOT
ATOM      1  C   UNL d   1      59.663  -0.295  29.382  0.00  0.00     0.107 A 
ATOM      2  C   UNL d   1      59.534   0.474  29.642  0.00  0.00     0.015 A 
ATOM      3  C   UNL d   1      59.067  -0.861  29.458  0.00  0.00     0.015 A 
ATOM      4  C   UNL d   1      58.216   0.118  30.055  0.00  0.00     0.085 A 
ATOM      5  C   UNL d   1      58.344  -0.655  29.794  0.00  0.00     0.020 A 
ATOM      6  C   UNL d   1      58.810   0.680  29.978  0.00  0.00     0.020 A 
ENDROOT
BRANCH   4   7
ATOM      7  N   UNL d   1      57.492   0.325  30.391  0.00  0.00    -0.208 NA
ATOM      8  C   UNL d   1      57.414   0.362  31.212  0.00  0.00     0.279 C 
ATOM      9  O   UNL d   1      58.060   0.194  31.695  0.00  0.00    -0.265 OA
BRANCH   8  10
ATOM     10  C   UNL d   1      56.685   0.570  31.551  0.00  0.00     0.062 C 
BRANCH  10  11
ATOM     11  C   UNL d   1      56.361   0.116  32.158  0.00  0.00     0.005 A 
ATOM     12  C   UNL d   1      56.368  -0.706  32.091  0.00  0.00     0.000 A 
ATOM     13  C   UNL d   1      56.044  -1.164  32.700  0.00  0.00     0.000 A 
ATOM     14  C   UNL d   1      55.716  -0.800  33.369  0.00  0.00     0.000 A 
ATOM     15  C   UNL d   1      55.714   0.022  33.428  0.00  0.00     0.000 A 
ATOM     16  C   UNL d   1      56.034   0.480  32.827  0.00  0.00     0.000 A 
ENDBRANCH  10  11
ENDBRANCH   8  10
ENDBRANCH   4   7
BRANCH   1  17
ATOM     17  S   UNL d   1      60.387  -0.501  29.046  0.00  0.00     0.302 S 
ATOM     18  O   UNL d   1      59.993  -0.923  28.455  0.00  0.00    -0.197 OA
ATOM     19  O   UNL d   1      60.781  -0.080  29.635  0.00  0.00    -0.197 OA
ATOM     20  N   UNL d   1      61.112  -0.708  28.709  0.00  0.00    -0.043 N 
ENDBRANCH   1  17
TORSDOF 4
ENDMDL
MODEL 3
REMARK VINA RESULT:      -2.9      9.393     10.083
REMARK  4 active torsions:
REMARK  status: ('A' for Active; 'I' for Inactive)
REMARK    1  A    between atoms: C_3  and  S_1 
REMARK       I    between atoms: C_2  and  N_6 
REMARK    2  A    between atoms: C_11  and  C_2 
REMARK    3  A    between atoms: N_6  and  C_12 
REMARK    4  A    between atoms: C_15  and  C_11 
ROOT
ATOM      1  C   UNL d   1      58.655  -9.761  31.388  0.00  0.00     0.107 A 
ATOM      2  C   UNL d   1      59.430  -9.818  31.655  0.00  0.00     0.015 A 
ATOM      3  C   UNL d   1      58.038  -9.676  31.929  0.00  0.00     0.015 A 
ATOM      4  C   UNL d   1      58.978  -9.705  33.003  0.00  0.00     0.085 A 
ATOM      5  C   UNL d   1      58.199  -9.648  32.737  0.00  0.00     0.020 A 
ATOM      6  C   UNL d   1      59.591  -9.790  32.463  0.00  0.00     0.020 A 
ENDROOT
BRANCH   4   7
ATOM      7  N   UNL d   1      59.140  -9.677  33.812  0.00  0.00    -0.208 NA
ATOM      8  C   UNL d   1      59.740  -9.186  34.095  0.00  0.00     0.279 C 
ATOM      9  O   UNL d   1      60.177  -8.725  33.571  0.00  0.00    -0.265 OA
BRANCH   8  10
ATOM     10  C   UNL d   1      59.903  -9.158  34.909  0.00  0.00     0.062 C 
BRANCH  10  11
ATOM     11  C   UNL d   1      59.951  -8.433  35.301  0.00  0.00     0.005 A 
ATOM     12  C   UNL d   1      59.258  -8.080  35.576  0.00  0.00     0.000 A 
ATOM     13  C   UNL d   1      59.304  -7.352  35.969  0.00  0.00     0.000 A 
ATOM     14  C   UNL d   1      60.038  -6.985  36.085  0.00  0.00     0.000 A 
ATOM     15  C   UNL d   1      60.726  -7.345  35.807  0.00  0.00     0.000 A 
ATOM     16  C   UNL d   1      60.685  -8.066  35.417  0.00  0.00     0.000 A 
ENDBRANCH  10  11
ENDBRANCH   8  10
ENDBRANCH   4   7
BRANCH   1  17
ATOM     17  S   UNL d   1      58.493  -9.790  30.580  0.00  0.00     0.302 S 
ATOM     18  O   UNL d   1      57.683  -9.770  30.741  0.00  0.00    -0.197 OA
ATOM     19  O   UNL d   1      59.302  -9.809  30.418  0.00  0.00    -0.197 OA
ATOM     20  N   UNL d   1      58.331  -9.818  29.770  0.00  0.00    -0.043 N 
ENDBRANCH   1  17
TORSDOF 4
ENDMDL
MODEL 4
REMARK VINA RESULT:      -2.8      2.654      4.743
REMARK  4 active torsions:
REMARK  status: ('A' for Active; 'I' for Inactive)
REMARK    1  A    between atoms: C_3  and  S_1 
REMARK       I    between atoms: C_2  and  N_6 
REMARK    2  A    between atoms: C_11  and  C_2 
REMARK    3  A    between atoms: N_6  and  C_12 
REMARK    4  A    between atoms: C_15  and  C_11 
ROOT
ATOM      1  C   UNL d   1      59.774  -2.584  29.011  0.00  0.00     0.107 A 
ATOM      2  C   UNL d   1      60.013  -1.798  28.978  0.00  0.00     0.015 A 
ATOM      3  C   UNL d   1      59.006  -2.771  29.248  0.00  0.00     0.015 A 
ATOM      4  C   UNL d   1      58.722  -1.382  29.417  0.00  0.00     0.085 A 
ATOM      5  C   UNL d   1      58.480  -2.170  29.451  0.00  0.00     0.020 A 
ATOM      6  C   UNL d   1      59.487  -1.197  29.182  0.00  0.00     0.020 A 
ENDROOT
BRANCH   4   7
ATOM      7  N   UNL d   1      58.195  -0.781  29.621  0.00  0.00    -0.208 NA
ATOM      8  C   UNL d   1      58.264  -0.401  30.350  0.00  0.00     0.279 C 
ATOM      9  O   UNL d   1      58.859  -0.623  30.875  0.00  0.00    -0.265 OA
BRANCH   8  10
ATOM     10  C   UNL d   1      57.734   0.205  30.555  0.00  0.00     0.062 C 
BRANCH  10  11
ATOM     11  C   UNL d   1      57.466   0.281  31.332  0.00  0.00     0.005 A 
ATOM     12  C   UNL d   1      56.704   0.027  31.520  0.00  0.00     0.000 A 
ATOM     13  C   UNL d   1      56.434   0.103  32.299  0.00  0.00     0.000 A 
ATOM     14  C   UNL d   1      56.923   0.430  32.882  0.00  0.00     0.000 A 
ATOM     15  C   UNL d   1      57.683   0.682  32.685  0.00  0.00     0.000 A 
ATOM     16  C   UNL d   1      57.956   0.609  31.915  0.00  0.00     0.000 A 
ENDBRANCH  10  11
ENDBRANCH   8  10
ENDBRANCH   4   7
BRANCH   1  17
ATOM     17  S   UNL d   1      60.300  -3.185  28.808  0.00  0.00     0.302 S 
ATOM     18  O   UNL d   1      60.923  -2.750  29.132  0.00  0.00    -0.197 OA
ATOM     19  O   UNL d   1      59.679  -3.620  28.484  0.00  0.00    -0.197 OA
ATOM     20  N   UNL d   1      60.828  -3.788  28.604  0.00  0.00    -0.043 N 
ENDBRANCH   1  17
TORSDOF 4
ENDMDL
