MODEL 1
REMARK VINA RESULT:      -8.1      0.000      0.000
REMARK  3 active torsions:
REMARK  status: ('A' for Active; 'I' for Inactive)
REMARK    1  A    between atoms: C_8  and  C_1 
REMARK       I    between atoms: C_5  and  N_7 
REMARK    2  A    between atoms: C_10  and  C_5 
REMARK    3  A    between atoms: N_7  and  C_15 
ROOT
ATOM      1  C   UNL d   1     -47.656  13.389  22.948  0.00  0.00     0.024 A 
ATOM      2  C   UNL d   1     -47.240  13.347  23.649  0.00  0.00     0.004 A 
ATOM      3  C   UNL d   1     -47.380  13.007  22.273  0.00  0.00     0.004 A 
ATOM      4  C   UNL d   1     -46.252  12.533  23.009  0.00  0.00     0.085 A 
ATOM      5  C   UNL d   1     -46.676  12.577  22.300  0.00  0.00     0.019 A 
ATOM      6  C   UNL d   1     -46.536  12.919  23.683  0.00  0.00     0.019 A 
ENDROOT
BRANCH   1   7
ATOM      7  C   UNL d   1     -48.364  13.821  22.917  0.00  0.00     0.112 A 
ATOM      8  S   UNL d   1     -48.457  14.580  22.579  0.00  0.00    -0.047 SA
ATOM      9  C   UNL d   1     -49.255  14.802  22.670  0.00  0.00     0.130 A 
ATOM     10  N   UNL d   1     -49.667  15.481  22.449  0.00  0.00    -0.236 NA
ATOM     11  C   UNL d   1     -49.653  14.184  23.062  0.00  0.00     0.106 A 
ATOM     12  C   UNL d   1     -50.475  15.549  22.616  0.00  0.00     0.100 A 
ATOM     13  C   UNL d   1     -50.872  14.926  23.010  0.00  0.00     0.022 A 
ATOM     14  C   UNL d   1     -50.457  14.249  23.229  0.00  0.00     0.023 A 
ATOM     15  N   UNL d   1     -49.089  13.576  23.212  0.00  0.00    -0.237 NA
ENDBRANCH   1   7
BRANCH   4  16
ATOM     16  N   UNL d   1     -45.545  12.103  23.043  0.00  0.00    -0.206 NA
ATOM     17  C   UNL d   1     -45.539  11.355  23.388  0.00  0.00     0.302 C 
ATOM     18  O   UNL d   1     -46.229  11.029  23.698  0.00  0.00    -0.263 OA
BRANCH  17  19
ATOM     19  C   UNL d   1     -44.838  10.929  23.422  0.00  0.00     0.158 A 
ATOM     20  O   UNL d   1     -44.091  11.196  23.191  0.00  0.00    -0.300 OA
ATOM     21  C   UNL d   1     -43.557  10.586  23.323  0.00  0.00     0.123 A 
ATOM     22  C   UNL d   1     -43.967   9.937  23.636  0.00  0.00     0.029 A 
ATOM     23  C   UNL d   1     -44.760  10.146  23.698  0.00  0.00     0.032 A 
ENDBRANCH  17  19
ENDBRANCH   4  16
TORSDOF 3
ENDMDL
MODEL 2
REMARK VINA RESULT:      -7.6      1.465      1.701
REMARK  3 active torsions:
REMARK  status: ('A' for Active; 'I' for Inactive)
REMARK    1  A    between atoms: C_8  and  C_1 
REMARK       I    between atoms: C_5  and  N_7 
REMARK    2  A    between atoms: C_10  and  C_5 
REMARK    3  A    between atoms: N_7  and  C_15 
ROOT
ATOM      1  C   UNL d   1     -47.619  13.944  22.887  0.00  0.00     0.024 A 
ATOM      2  C   UNL d   1     -47.459  13.145  22.842  0.00  0.00     0.004 A 
ATOM      3  C   UNL d   1     -47.010  14.496  22.858  0.00  0.00     0.004 A 
ATOM      4  C   UNL d   1     -46.062  13.436  22.737  0.00  0.00     0.085 A 
ATOM      5  C   UNL d   1     -46.227  14.245  22.783  0.00  0.00     0.019 A 
ATOM      6  C   UNL d   1     -46.679  12.886  22.767  0.00  0.00     0.019 A 
ENDROOT
BRANCH   1   7
ATOM      7  C   UNL d   1     -48.405  14.200  22.963  0.00  0.00     0.112 A 
ATOM      8  S   UNL d   1     -48.713  14.920  22.669  0.00  0.00    -0.047 SA
ATOM      9  C   UNL d   1     -49.521  14.949  22.869  0.00  0.00     0.130 A 
ATOM     10  N   UNL d   1     -50.104  15.517  22.728  0.00  0.00    -0.236 NA
ATOM     11  C   UNL d   1     -49.712  14.253  23.284  0.00  0.00     0.106 A 
ATOM     12  C   UNL d   1     -50.876  15.394  22.999  0.00  0.00     0.100 A 
ATOM     13  C   UNL d   1     -51.064  14.693  23.416  0.00  0.00     0.022 A 
ATOM     14  C   UNL d   1     -50.480  14.129  23.554  0.00  0.00     0.023 A 
ATOM     15  N   UNL d   1     -49.009  13.792  23.338  0.00  0.00    -0.237 NA
ENDBRANCH   1   7
BRANCH   4  16
ATOM     16  N   UNL d   1     -45.278  13.177  22.661  0.00  0.00    -0.206 NA
ATOM     17  C   UNL d   1     -44.995  12.946  21.922  0.00  0.00     0.302 C 
ATOM     18  O   UNL d   1     -45.482  12.971  21.259  0.00  0.00    -0.263 OA
BRANCH  17  19
ATOM     19  C   UNL d   1     -44.219  12.689  21.847  0.00  0.00     0.158 A 
ATOM     20  O   UNL d   1     -43.872  12.055  22.248  0.00  0.00    -0.300 OA
ATOM     21  C   UNL d   1     -43.091  12.002  22.000  0.00  0.00     0.123 A 
ATOM     22  C   UNL d   1     -42.946  12.601  21.446  0.00  0.00     0.029 A 
ATOM     23  C   UNL d   1     -43.642  13.028  21.349  0.00  0.00     0.032 A 
ENDBRANCH  17  19
ENDBRANCH   4  16
TORSDOF 3
ENDMDL
MODEL 3
REMARK VINA RESULT:      -5.3      1.541      1.929
REMARK  3 active torsions:
REMARK  status: ('A' for Active; 'I' for Inactive)
REMARK    1  A    between atoms: C_8  and  C_1 
REMARK       I    between atoms: C_5  and  N_7 
REMARK    2  A    between atoms: C_10  and  C_5 
REMARK    3  A    between atoms: N_7  and  C_15 
ROOT
ATOM      1  C   UNL d   1     -47.622  13.133  22.600  0.00  0.00     0.024 A 
ATOM      2  C   UNL d   1     -47.433  12.928  21.833  0.00  0.00     0.004 A 
ATOM      3  C   UNL d   1     -47.060  13.081  23.199  0.00  0.00     0.004 A 
ATOM      4  C   UNL d   1     -46.101  12.613  22.251  0.00  0.00     0.085 A 
ATOM      5  C   UNL d   1     -46.296  12.821  23.028  0.00  0.00     0.019 A 
ATOM      6  C   UNL d   1     -46.671  12.667  21.654  0.00  0.00     0.019 A 
ENDROOT
BRANCH   1   7
ATOM      7  C   UNL d   1     -48.390  13.395  22.776  0.00  0.00     0.112 A 
ATOM      8  S   UNL d   1     -49.022  12.913  23.036  0.00  0.00    -0.047 SA
ATOM      9  C   UNL d   1     -49.686  13.403  23.145  0.00  0.00     0.130 A 
ATOM     10  N   UNL d   1     -50.457  13.241  23.392  0.00  0.00    -0.236 NA
ATOM     11  C   UNL d   1     -49.467  14.183  22.953  0.00  0.00     0.106 A 
ATOM     12  C   UNL d   1     -51.011  13.853  23.449  0.00  0.00     0.100 A 
ATOM     13  C   UNL d   1     -50.787  14.636  23.256  0.00  0.00     0.022 A 
ATOM     14  C   UNL d   1     -50.018  14.793  23.010  0.00  0.00     0.023 A 
ATOM     15  N   UNL d   1     -48.657  14.168  22.724  0.00  0.00    -0.237 NA
ENDBRANCH   1   7
BRANCH   4  16
ATOM     16  N   UNL d   1     -45.336  12.350  22.072  0.00  0.00    -0.206 NA
ATOM     17  C   UNL d   1     -44.708  12.884  22.086  0.00  0.00     0.302 C 
ATOM     18  O   UNL d   1     -44.833  13.675  22.277  0.00  0.00    -0.263 OA
BRANCH  17  19
ATOM     19  C   UNL d   1     -43.950  12.624  21.908  0.00  0.00     0.158 A 
ATOM     20  O   UNL d   1     -43.568  11.967  22.234  0.00  0.00    -0.300 OA
ATOM     21  C   UNL d   1     -42.822  11.919  21.895  0.00  0.00     0.123 A 
ATOM     22  C   UNL d   1     -42.734  12.544  21.357  0.00  0.00     0.029 A 
ATOM     23  C   UNL d   1     -43.430  12.981  21.363  0.00  0.00     0.032 A 
ENDBRANCH  17  19
ENDBRANCH   4  16
TORSDOF 3
ENDMDL
