MODEL 1
REMARK VINA RESULT:      39.2      0.000      0.000
REMARK  8 active torsions:
REMARK  status: ('A' for Active; 'I' for Inactive)
REMARK    1  A    between atoms: C_2  and  C_4 
REMARK    2  A    between atoms: S_9  and  C_6 
REMARK    3  A    between atoms: C_7  and  C_17 
REMARK       I    between atoms: N_16  and  C_7 
REMARK    4  A    between atoms: C_17  and  S_9 
REMARK    5  A    between atoms: O_19  and  C_14 
REMARK    6  A    between atoms: C_15  and  C_21 
REMARK    7  A    between atoms: C_20  and  N_16 
REMARK    8  A    between atoms: C_21  and  C_20 
ROOT
ATOM      1  C   UNL d   1      13.103  12.545  -4.047  0.00  0.00     0.286 C 
ATOM      2  O   UNL d   1      13.169  11.883  -4.532  0.00  0.00    -0.265 OA
ATOM      3  N   UNL d   1      13.351  12.504  -3.272  0.00  0.00    -0.206 NA
ENDROOT
BRANCH   1   4
ATOM      4  C   UNL d   1      12.784  13.246  -4.349  0.00  0.00     0.099 C 
BRANCH   4   5
ATOM      5  S   UNL d   1      12.770  13.919  -3.880  0.00  0.00    -0.061 SA
BRANCH   5   6
ATOM      6  C   UNL d   1      13.300  14.536  -4.017  0.00  0.00     0.133 A 
ATOM      7  N   UNL d   1      13.229  15.006  -4.684  0.00  0.00    -0.141 NA
ATOM      8  N   UNL d   1      13.753  15.618  -4.824  0.00  0.00    -0.147 NA
ATOM      9  C   UNL d   1      14.362  15.764  -4.287  0.00  0.00     0.109 A 
ATOM     10  C   UNL d   1      14.440  15.294  -3.612  0.00  0.00     0.024 A 
ATOM     11  C   UNL d   1      13.915  14.686  -3.478  0.00  0.00     0.029 A 
BRANCH   9  12
ATOM     12  C   UNL d   1      14.893  16.379  -4.422  0.00  0.00     0.049 A 
ATOM     13  S   UNL d   1      15.092  16.978  -3.894  0.00  0.00    -0.085 SA
ATOM     14  C   UNL d   1      15.643  17.477  -4.251  0.00  0.00     0.035 A 
ATOM     15  C   UNL d   1      15.789  17.180  -5.018  0.00  0.00     0.007 A 
ATOM     16  C   UNL d   1      15.326  16.502  -5.125  0.00  0.00     0.009 A 
ENDBRANCH   9  12
ENDBRANCH   5   6
ENDBRANCH   4   5
ENDBRANCH   1   4
BRANCH   3  17
ATOM     17  C   UNL d   1      13.669  11.803  -2.970  0.00  0.00     0.102 C 
BRANCH  17  18
ATOM     18  C   UNL d   1      14.219  11.828  -2.362  0.00  0.00     0.023 C 
BRANCH  18  19
ATOM     19  C   UNL d   1      13.968  11.852  -1.574  0.00  0.00     0.024 A 
ATOM     20  C   UNL d   1      14.511  11.946  -0.970  0.00  0.00     0.094 A 
ATOM     21  C   UNL d   1      14.263  11.969  -0.195  0.00  0.00     0.024 A 
ATOM     22  C   UNL d   1      13.457  11.898  -0.015  0.00  0.00     0.002 A 
ATOM     23  C   UNL d   1      12.908  11.803  -0.627  0.00  0.00     0.000 A 
ATOM     24  C   UNL d   1      13.169  11.780  -1.406  0.00  0.00     0.002 A 
BRANCH  20  25
ATOM     25  O   UNL d   1      15.310  12.017  -1.142  0.00  0.00    -0.328 OA
ATOM     26  C   UNL d   1      15.855  12.056  -0.528  0.00  0.00     0.181 C 
ENDBRANCH  20  25
ENDBRANCH  18  19
ENDBRANCH  17  18
ENDBRANCH   3  17
TORSDOF 8
ENDMDL
MODEL 2
REMARK VINA RESULT:      40.7      1.599      2.525
REMARK  8 active torsions:
REMARK  status: ('A' for Active; 'I' for Inactive)
REMARK    1  A    between atoms: C_2  and  C_4 
REMARK    2  A    between atoms: S_9  and  C_6 
REMARK    3  A    between atoms: C_7  and  C_17 
REMARK       I    between atoms: N_16  and  C_7 
REMARK    4  A    between atoms: C_17  and  S_9 
REMARK    5  A    between atoms: O_19  and  C_14 
REMARK    6  A    between atoms: C_15  and  C_21 
REMARK    7  A    between atoms: C_20  and  N_16 
REMARK    8  A    between atoms: C_21  and  C_20 
ROOT
ATOM      1  C   UNL d   1      13.560  11.820  -2.141  0.00  0.00     0.286 C 
ATOM      2  O   UNL d   1      14.301  11.796  -2.497  0.00  0.00    -0.265 OA
ATOM      3  N   UNL d   1      13.503  11.882  -1.331  0.00  0.00    -0.206 NA
ENDROOT
BRANCH   1   4
ATOM      4  C   UNL d   1      12.878  11.780  -2.607  0.00  0.00     0.099 C 
BRANCH   4   5
ATOM      5  S   UNL d   1      12.945  11.798  -3.425  0.00  0.00    -0.061 SA
BRANCH   5   6
ATOM      6  C   UNL d   1      13.054  12.514  -3.819  0.00  0.00     0.133 A 
ATOM      7  N   UNL d   1      12.967  12.560  -4.632  0.00  0.00    -0.141 NA
ATOM      8  N   UNL d   1      13.073  13.269  -5.026  0.00  0.00    -0.147 NA
ATOM      9  C   UNL d   1      13.271  13.947  -4.600  0.00  0.00     0.109 A 
ATOM     10  C   UNL d   1      13.360  13.908  -3.779  0.00  0.00     0.024 A 
ATOM     11  C   UNL d   1      13.253  13.200  -3.393  0.00  0.00     0.029 A 
BRANCH   9  12
ATOM     12  C   UNL d   1      13.380  14.663  -4.991  0.00  0.00     0.049 A 
ATOM     13  S   UNL d   1      14.047  14.893  -5.415  0.00  0.00    -0.085 SA
ATOM     14  C   UNL d   1      13.924  15.651  -5.716  0.00  0.00     0.035 A 
ATOM     15  C   UNL d   1      13.164  15.897  -5.472  0.00  0.00     0.007 A 
ATOM     16  C   UNL d   1      12.827  15.288  -5.024  0.00  0.00     0.009 A 
ENDBRANCH   9  12
ENDBRANCH   5   6
ENDBRANCH   4   5
ENDBRANCH   1   4
BRANCH   3  17
ATOM     17  C   UNL d   1      14.185  11.922  -0.864  0.00  0.00     0.102 C 
BRANCH  17  18
ATOM     18  C   UNL d   1      14.235  12.464  -0.250  0.00  0.00     0.023 C 
BRANCH  18  19
ATOM     19  C   UNL d   1      14.893  12.961  -0.185  0.00  0.00     0.024 A 
ATOM     20  C   UNL d   1      14.794  13.766  -0.082  0.00  0.00     0.094 A 
ATOM     21  C   UNL d   1      15.441  14.255  -0.018  0.00  0.00     0.024 A 
ATOM     22  C   UNL d   1      16.206  13.937  -0.058  0.00  0.00     0.002 A 
ATOM     23  C   UNL d   1      16.305  13.122  -0.162  0.00  0.00     0.000 A 
ATOM     24  C   UNL d   1      15.644  12.638  -0.225  0.00  0.00     0.002 A 
BRANCH  20  25
ATOM     25  O   UNL d   1      14.039  14.086  -0.043  0.00  0.00    -0.328 OA
ATOM     26  C   UNL d   1      13.943  14.902  -0.067  0.00  0.00     0.181 C 
ENDBRANCH  20  25
ENDBRANCH  18  19
ENDBRANCH  17  18
ENDBRANCH   3  17
TORSDOF 8
ENDMDL
