MODEL 1
REMARK VINA RESULT:      20.2      0.000      0.000
REMARK  5 active torsions:
REMARK  status: ('A' for Active; 'I' for Inactive)
REMARK    1  A    between atoms: C_5  and  C_1 
REMARK    2  A    between atoms: C_2  and  C_5 
REMARK    3  A    between atoms: C_7  and  C_2 
REMARK    4  A    between atoms: N_4  and  C_11 
REMARK       I    between atoms: N_12  and  C_7 
REMARK    5  A    between atoms: C_17  and  N_12 
ROOT
ATOM      1  C   UNL d   1      45.842 -17.014  44.153  0.00  0.00     0.126 C 
ATOM      2  C   UNL d   1      45.156 -17.382  44.408  0.00  0.00     0.106 C 
ATOM      3  N   UNL d   1      44.462 -17.752  44.666  0.00  0.00    -0.191 NA
ENDROOT
BRANCH   1   4
ATOM      4  C   UNL d   1      46.375 -17.425  43.670  0.00  0.00     0.017 C 
BRANCH   4   5
ATOM      5  C   UNL d   1      46.417 -18.247  43.702  0.00  0.00     0.020 A 
ATOM      6  C   UNL d   1      46.387 -18.703  44.393  0.00  0.00     0.080 A 
ATOM      7  N   UNL d   1      46.448 -19.504  44.172  0.00  0.00    -0.303 N 
ATOM      8  C   UNL d   1      46.443 -20.148  44.680  0.00  0.00     0.100 C 
ATOM      9  C   UNL d   1      46.515 -19.537  43.343  0.00  0.00     0.064 A 
ATOM     10  C   UNL d   1      46.495 -18.754  43.054  0.00  0.00     0.018 A 
ATOM     11  C   UNL d   1      46.590 -20.167  42.815  0.00  0.00     0.018 A 
ATOM     12  C   UNL d   1      46.551 -18.617  42.244  0.00  0.00     0.002 A 
ATOM     13  C   UNL d   1      46.626 -19.249  41.725  0.00  0.00     0.000 A 
ATOM     14  C   UNL d   1      46.645 -20.020  42.006  0.00  0.00     0.002 A 
ENDBRANCH   4   5
ENDBRANCH   1   4
BRANCH   1  15
ATOM     15  C   UNL d   1      46.005 -16.233  44.376  0.00  0.00     0.289 C 
ATOM     16  N   UNL d   1      45.599 -15.614  44.012  0.00  0.00    -0.207 NA
ATOM     17  O   UNL d   1      46.566 -16.081  44.954  0.00  0.00    -0.264 OA
BRANCH  16  18
ATOM     18  C   UNL d   1      45.654 -14.798  44.128  0.00  0.00     0.086 A 
ATOM     19  C   UNL d   1      45.135 -14.292  43.747  0.00  0.00     0.043 A 
ATOM     20  C   UNL d   1      45.190 -13.478  43.863  0.00  0.00     0.128 A 
ATOM     21  C   UNL d   1      45.777 -13.175  44.371  0.00  0.00     0.024 A 
ATOM     22  C   UNL d   1      46.297 -13.694  44.752  0.00  0.00     0.003 A 
ATOM     23  C   UNL d   1      46.232 -14.500  44.628  0.00  0.00     0.019 A 
BRANCH  20  24
ATOM     24  N   UNL d   1      44.668 -12.964  43.480  0.00  0.00    -0.114 N 
ATOM     25  O   UNL d   1      43.857 -13.111  43.511  0.00  0.00    -0.532 OA
ATOM     26  O   UNL d   1      44.962 -12.307  43.069  0.00  0.00    -0.532 OA
ENDBRANCH  20  24
ENDBRANCH  16  18
ENDBRANCH   1  15
TORSDOF 5
ENDMDL
MODEL 2
REMARK VINA RESULT:      21.7      1.601      5.422
REMARK  5 active torsions:
REMARK  status: ('A' for Active; 'I' for Inactive)
REMARK    1  A    between atoms: C_5  and  C_1 
REMARK    2  A    between atoms: C_2  and  C_5 
REMARK    3  A    between atoms: C_7  and  C_2 
REMARK    4  A    between atoms: N_4  and  C_11 
REMARK       I    between atoms: N_12  and  C_7 
REMARK    5  A    between atoms: C_17  and  N_12 
ROOT
ATOM      1  C   UNL d   1      45.710 -15.454  44.108  0.00  0.00     0.126 C 
ATOM      2  C   UNL d   1      46.144 -15.211  43.458  0.00  0.00     0.106 C 
ATOM      3  N   UNL d   1      46.584 -14.967  42.800  0.00  0.00    -0.191 NA
ENDROOT
BRANCH   1   4
ATOM      4  C   UNL d   1      45.299 -14.896  44.562  0.00  0.00     0.017 C 
BRANCH   4   5
ATOM      5  C   UNL d   1      45.491 -14.096  44.510  0.00  0.00     0.020 A 
ATOM      6  C   UNL d   1      46.128 -13.729  44.891  0.00  0.00     0.080 A 
ATOM      7  N   UNL d   1      46.115 -12.921  44.687  0.00  0.00    -0.303 N 
ATOM      8  C   UNL d   1      46.647 -12.349  44.940  0.00  0.00     0.100 C 
ATOM      9  C   UNL d   1      45.467 -12.795  44.180  0.00  0.00     0.064 A 
ATOM     10  C   UNL d   1      45.082 -13.527  44.072  0.00  0.00     0.018 A 
ATOM     11  C   UNL d   1      45.178 -12.120  43.804  0.00  0.00     0.018 A 
ATOM     12  C   UNL d   1      44.414 -13.569  43.591  0.00  0.00     0.002 A 
ATOM     13  C   UNL d   1      44.132 -12.893  43.221  0.00  0.00     0.000 A 
ATOM     14  C   UNL d   1      44.510 -12.171  43.325  0.00  0.00     0.002 A 
ENDBRANCH   4   5
ENDBRANCH   1   4
BRANCH   1  15
ATOM     15  C   UNL d   1      45.679 -16.256  44.314  0.00  0.00     0.289 C 
ATOM     16  N   UNL d   1      46.180 -16.792  43.935  0.00  0.00    -0.207 NA
ATOM     17  O   UNL d   1      45.154 -16.511  44.888  0.00  0.00    -0.264 OA
BRANCH  16  18
ATOM     18  C   UNL d   1      46.261 -17.608  44.033  0.00  0.00     0.086 A 
ATOM     19  C   UNL d   1      46.329 -18.096  43.379  0.00  0.00     0.043 A 
ATOM     20  C   UNL d   1      46.410 -18.910  43.477  0.00  0.00     0.128 A 
ATOM     21  C   UNL d   1      46.422 -19.232  44.245  0.00  0.00     0.024 A 
ATOM     22  C   UNL d   1      46.353 -18.731  44.901  0.00  0.00     0.003 A 
ATOM     23  C   UNL d   1      46.273 -17.923  44.790  0.00  0.00     0.019 A 
BRANCH  20  24
ATOM     24  N   UNL d   1      46.478 -19.406  42.819  0.00  0.00    -0.114 N 
ATOM     25  O   UNL d   1      46.460 -19.081  42.061  0.00  0.00    -0.532 OA
ATOM     26  O   UNL d   1      46.564 -20.224  42.925  0.00  0.00    -0.532 OA
ENDBRANCH  20  24
ENDBRANCH  16  18
ENDBRANCH   1  15
TORSDOF 5
ENDMDL
