MODEL 1
REMARK VINA RESULT:      19.4      0.000      0.000
REMARK  2 active torsions:
REMARK  status: ('A' for Active; 'I' for Inactive)
REMARK    1  A    between atoms: S_2  and  N_1 
REMARK    2  A    between atoms: C_8  and  S_2 
ROOT
ATOM      1  S   UNL d   1      59.079  49.667  50.749  0.00  0.00     0.273 S 
ATOM      2  O   UNL d   1      59.408  49.679  49.997  0.00  0.00    -0.200 OA
ATOM      3  O   UNL d   1      58.757  49.656  51.508  0.00  0.00    -0.200 OA
ENDROOT
BRANCH   1   4
ATOM      4  N   UNL d   1      59.842  49.672  51.063  0.00  0.00    -0.207 N 
ATOM      5  C   UNL d   1      59.873  49.695  51.891  0.00  0.00     0.148 A 
ATOM      6  N   UNL d   1      60.547  49.704  52.378  0.00  0.00    -0.198 NA
ATOM      7  C   UNL d   1      61.329  49.695  52.167  0.00  0.00     0.066 A 
ATOM      8  C   UNL d   1      60.505  49.677  51.389  0.00  0.00     0.169 A 
ATOM      9  C   UNL d   1      61.658  49.672  51.416  0.00  0.00     0.066 A 
ATOM     10  N   UNL d   1      61.272  49.654  50.685  0.00  0.00    -0.198 NA
ATOM     11  C   UNL d   1      60.466  49.654  50.532  0.00  0.00     0.148 A 
ENDBRANCH   1   4
BRANCH   1  12
ATOM     12  C   UNL d   1      58.321  49.663  50.427  0.00  0.00     0.104 A 
ATOM     13  C   UNL d   1      57.662  49.651  50.922  0.00  0.00     0.014 A 
ATOM     14  C   UNL d   1      56.903  49.647  50.600  0.00  0.00     0.012 A 
ATOM     15  C   UNL d   1      56.803  49.654  49.782  0.00  0.00     0.058 A 
ATOM     16  C   UNL d   1      57.462  49.665  49.285  0.00  0.00     0.012 A 
ATOM     17 CL   UNL d   1      56.040  49.649  49.468  0.00  0.00    -0.082 Cl
ATOM     18  C   UNL d   1      58.220  49.670  49.607  0.00  0.00     0.014 A 
ENDBRANCH   1  12
TORSDOF 2
ENDMDL
