MODEL 1
REMARK VINA RESULT:      -5.1      0.000      0.000
REMARK  2 active torsions:
REMARK  status: ('A' for Active; 'I' for Inactive)
REMARK    1  A    between atoms: C_6  and  C_3 
REMARK    2  A    between atoms: O_13  and  C_10 
ROOT
ATOM      1  C   UNL d   1     -41.241-123.109 -53.096  0.00  0.00     0.018 A 
ATOM      2  C   UNL d   1     -41.467-122.329 -53.141  0.00  0.00     0.004 A 
ATOM      3  C   UNL d   1     -41.146-123.545 -53.782  0.00  0.00     0.004 A 
ATOM      4  C   UNL d   1     -41.503-122.422 -54.566  0.00  0.00     0.094 A 
ATOM      5  C   UNL d   1     -41.277-123.201 -54.521  0.00  0.00     0.024 A 
ATOM      6  C   UNL d   1     -41.603-121.969 -53.873  0.00  0.00     0.024 A 
ENDROOT
BRANCH   1   7
ATOM      7  C   UNL d   1     -41.220-123.056 -52.267  0.00  0.00     0.090 A 
ATOM      8  N   UNL d   1     -41.245-122.536 -51.620  0.00  0.00    -0.219 NA
ATOM      9  C   UNL d   1     -41.184-123.001 -50.942  0.00  0.00     0.215 A 
ATOM     10  S   UNL d   1     -41.126-123.764 -51.170  0.00  0.00    -0.045 SA
ATOM     11  N   UNL d   1     -41.181-122.748 -50.143  0.00  0.00    -0.120 N 
ATOM     12  C   UNL d   1     -41.146-123.817 -51.978  0.00  0.00     0.058 A 
ENDBRANCH   1   7
BRANCH   4  13
ATOM     13  O   UNL d   1     -41.639-122.062 -55.312  0.00  0.00    -0.328 OA
ATOM     14  C   UNL d   1     -42.415-121.956 -55.592  0.00  0.00     0.181 C 
ENDBRANCH   4  13
TORSDOF 2
ENDMDL
MODEL 2
REMARK VINA RESULT:      -5.1      2.178      3.387
REMARK  2 active torsions:
REMARK  status: ('A' for Active; 'I' for Inactive)
REMARK    1  A    between atoms: C_6  and  C_3 
REMARK    2  A    between atoms: O_13  and  C_10 
ROOT
ATOM      1  C   UNL d   1     -41.354-122.980 -52.879  0.00  0.00     0.018 A 
ATOM      2  C   UNL d   1     -41.498-122.238 -52.579  0.00  0.00     0.004 A 
ATOM      3  C   UNL d   1     -41.168-123.595 -52.372  0.00  0.00     0.004 A 
ATOM      4  C   UNL d   1     -41.266-122.727 -51.257  0.00  0.00     0.094 A 
ATOM      5  C   UNL d   1     -41.123-123.469 -51.557  0.00  0.00     0.024 A 
ATOM      6  C   UNL d   1     -41.457-122.094 -51.765  0.00  0.00     0.024 A 
ENDROOT
BRANCH   1   7
ATOM      7  C   UNL d   1     -41.489-122.695 -53.648  0.00  0.00     0.090 A 
ATOM      8  N   UNL d   1     -41.697-122.030 -54.098  0.00  0.00    -0.219 NA
ATOM      9  C   UNL d   1     -41.698-122.269 -54.886  0.00  0.00     0.215 A 
ATOM     10  S   UNL d   1     -41.499-123.042 -54.910  0.00  0.00    -0.045 SA
ATOM     11  N   UNL d   1     -41.871-121.808 -55.565  0.00  0.00    -0.120 N 
ATOM     12  C   UNL d   1     -41.368-123.320 -54.160  0.00  0.00     0.058 A 
ENDBRANCH   1   7
BRANCH   4  13
ATOM     13  O   UNL d   1     -41.223-122.589 -50.430  0.00  0.00    -0.328 OA
ATOM     14  C   UNL d   1     -41.697-123.027 -49.906  0.00  0.00     0.181 C 
ENDBRANCH   4  13
TORSDOF 2
ENDMDL
MODEL 3
REMARK VINA RESULT:      -4.3      2.180      3.596
REMARK  2 active torsions:
REMARK  status: ('A' for Active; 'I' for Inactive)
REMARK    1  A    between atoms: C_6  and  C_3 
REMARK    2  A    between atoms: O_13  and  C_10 
ROOT
ATOM      1  C   UNL d   1     -41.291-122.634 -52.176  0.00  0.00     0.018 A 
ATOM      2  C   UNL d   1     -41.217-123.394 -51.895  0.00  0.00     0.004 A 
ATOM      3  C   UNL d   1     -41.323-122.008 -51.650  0.00  0.00     0.004 A 
ATOM      4  C   UNL d   1     -41.207-122.899 -50.556  0.00  0.00     0.094 A 
ATOM      5  C   UNL d   1     -41.281-122.139 -50.836  0.00  0.00     0.024 A 
ATOM      6  C   UNL d   1     -41.174-123.544 -51.083  0.00  0.00     0.024 A 
ENDROOT
BRANCH   1   7
ATOM      7  C   UNL d   1     -41.297-122.922 -52.955  0.00  0.00     0.090 A 
ATOM      8  N   UNL d   1     -41.169-123.589 -53.434  0.00  0.00    -0.219 NA
ATOM      9  C   UNL d   1     -41.315-123.354 -54.209  0.00  0.00     0.215 A 
ATOM     10  S   UNL d   1     -41.523-122.583 -54.199  0.00  0.00    -0.045 SA
ATOM     11  N   UNL d   1     -41.265-123.817 -54.906  0.00  0.00    -0.120 N 
ATOM     12  C   UNL d   1     -41.517-122.302 -53.440  0.00  0.00     0.058 A 
ENDBRANCH   1   7
BRANCH   4  13
ATOM     13  O   UNL d   1     -41.163-123.044 -49.730  0.00  0.00    -0.328 OA
ATOM     14  C   UNL d   1     -41.857-123.094 -49.276  0.00  0.00     0.181 C 
ENDBRANCH   4  13
TORSDOF 2
ENDMDL
MODEL 4
REMARK VINA RESULT:      -2.3      2.239      3.514
REMARK  2 active torsions:
REMARK  status: ('A' for Active; 'I' for Inactive)
REMARK    1  A    between atoms: C_6  and  C_3 
REMARK    2  A    between atoms: O_13  and  C_10 
ROOT
ATOM      1  C   UNL d   1     -41.546-122.197 -52.176  0.00  0.00     0.018 A 
ATOM      2  C   UNL d   1     -42.207-122.652 -52.044  0.00  0.00     0.004 A 
ATOM      3  C   UNL d   1     -41.123-121.899 -51.542  0.00  0.00     0.004 A 
ATOM      4  C   UNL d   1     -42.022-122.510 -50.635  0.00  0.00     0.094 A 
ATOM      5  C   UNL d   1     -41.361-122.055 -50.768  0.00  0.00     0.024 A 
ATOM      6  C   UNL d   1     -42.460-122.818 -51.274  0.00  0.00     0.024 A 
ENDROOT
BRANCH   1   7
ATOM      7  C   UNL d   1     -41.654-122.280 -52.996  0.00  0.00     0.090 A 
ATOM      8  N   UNL d   1     -42.085-122.016 -53.655  0.00  0.00    -0.219 NA
ATOM      9  C   UNL d   1     -41.803-122.434 -54.305  0.00  0.00     0.215 A 
ATOM     10  S   UNL d   1     -41.229-122.927 -54.052  0.00  0.00    -0.045 SA
ATOM     11  N   UNL d   1     -42.053-122.375 -55.103  0.00  0.00    -0.120 N 
ATOM     12  C   UNL d   1     -41.124-122.847 -53.253  0.00  0.00     0.058 A 
ENDBRANCH   1   7
BRANCH   4  13
ATOM     13  O   UNL d   1     -42.273-122.675 -49.851  0.00  0.00    -0.328 OA
ATOM     14  C   UNL d   1     -43.025-122.998 -49.710  0.00  0.00     0.181 C 
ENDBRANCH   4  13
TORSDOF 2
ENDMDL
