MODEL 1
REMARK VINA RESULT:      -5.6      0.000      0.000
REMARK  4 active torsions:
REMARK  status: ('A' for Active; 'I' for Inactive)
REMARK    1  A    between atoms: N_3  and  C_2 
REMARK       I    between atoms: C_6  and  N_3 
REMARK    2  A    between atoms: C_8  and  C_4 
REMARK    3  A    between atoms: C_9  and  C_6 
REMARK    4  A    between atoms: C_12  and  C_8 
ROOT
ATOM      1  N   UNL d   1      57.154  -0.203  30.847  0.00  0.00    -0.181 NA
ATOM      2  C   UNL d   1      57.264  -0.037  31.649  0.00  0.00     0.281 C 
ATOM      3  O   UNL d   1      57.978   0.267  31.915  0.00  0.00    -0.265 OA
ENDROOT
BRANCH   1   4
ATOM      4  C   UNL d   1      57.760  -0.065  30.309  0.00  0.00     0.216 A 
ATOM      5  N   UNL d   1      58.174  -0.639  29.885  0.00  0.00    -0.200 NA
ATOM      6  C   UNL d   1      58.733  -0.252  29.409  0.00  0.00     0.175 A 
ATOM      7  N   UNL d   1      58.656   0.567  29.546  0.00  0.00    -0.187 NA
ATOM      8  S   UNL d   1      58.061   0.672  30.096  0.00  0.00     0.054 SA
BRANCH   6   9
ATOM      9  C   UNL d   1      59.263  -0.613  28.898  0.00  0.00     0.082 C 
BRANCH   9  10
ATOM     10  C   UNL d   1      59.927  -1.005  29.198  0.00  0.00     0.199 C 
ATOM     11  O   UNL d   1      60.546  -0.567  29.524  0.00  0.00    -0.286 OA
ATOM     12  C   UNL d   1      59.971  -1.832  29.171  0.00  0.00     0.045 C 
ENDBRANCH   9  10
ENDBRANCH   6   9
ENDBRANCH   1   4
BRANCH   2  13
ATOM     13  C   UNL d   1      56.652  -0.178  32.185  0.00  0.00     0.060 A 
ATOM     14  C   UNL d   1      56.441  -0.955  32.375  0.00  0.00     0.034 A 
ATOM     15  C   UNL d   1      55.830  -1.101  32.909  0.00  0.00     0.140 A 
ATOM     16  F   UNL d   1      55.626  -1.879  33.093  0.00  0.00    -0.204 F 
ATOM     17  C   UNL d   1      55.432  -0.470  33.251  0.00  0.00     0.030 A 
ATOM     18  C   UNL d   1      55.641   0.306  33.064  0.00  0.00     0.003 A 
ATOM     19  C   UNL d   1      56.252   0.451  32.530  0.00  0.00     0.005 A 
ENDBRANCH   2  13
TORSDOF 4
ENDMDL
MODEL 2
REMARK VINA RESULT:      -4.0      1.954      4.480
REMARK  4 active torsions:
REMARK  status: ('A' for Active; 'I' for Inactive)
REMARK    1  A    between atoms: N_3  and  C_2 
REMARK       I    between atoms: C_6  and  N_3 
REMARK    2  A    between atoms: C_8  and  C_4 
REMARK    3  A    between atoms: C_9  and  C_6 
REMARK    4  A    between atoms: C_12  and  C_8 
ROOT
ATOM      1  N   UNL d   1      57.813   0.642  31.065  0.00  0.00    -0.181 NA
ATOM      2  C   UNL d   1      57.794  -0.023  30.574  0.00  0.00     0.281 C 
ATOM      3  O   UNL d   1      57.341  -0.675  30.779  0.00  0.00    -0.265 OA
ENDROOT
BRANCH   1   4
ATOM      4  C   UNL d   1      57.378   0.655  31.763  0.00  0.00     0.216 A 
ATOM      5  N   UNL d   1      56.556   0.659  31.824  0.00  0.00    -0.200 NA
ATOM      6  C   UNL d   1      56.358   0.672  32.629  0.00  0.00     0.175 A 
ATOM      7  N   UNL d   1      57.071   0.676  33.062  0.00  0.00    -0.187 NA
ATOM      8  S   UNL d   1      57.688   0.665  32.527  0.00  0.00     0.054 SA
BRANCH   6   9
ATOM      9  C   UNL d   1      55.599   0.680  32.939  0.00  0.00     0.082 C 
BRANCH   9  10
ATOM     10  C   UNL d   1      55.376   0.119  33.505  0.00  0.00     0.199 C 
ATOM     11  O   UNL d   1      55.149  -0.636  33.262  0.00  0.00    -0.286 OA
ATOM     12  C   UNL d   1      55.382   0.313  34.310  0.00  0.00     0.045 C 
ENDBRANCH   9  10
ENDBRANCH   6   9
ENDBRANCH   1   4
BRANCH   2  13
ATOM     13  C   UNL d   1      58.233  -0.028  29.876  0.00  0.00     0.060 A 
ATOM     14  C   UNL d   1      58.743  -0.660  29.713  0.00  0.00     0.034 A 
ATOM     15  C   UNL d   1      59.183  -0.670  29.017  0.00  0.00     0.140 A 
ATOM     16  F   UNL d   1      59.689  -1.304  28.863  0.00  0.00    -0.204 F 
ATOM     17  C   UNL d   1      59.114  -0.049  28.484  0.00  0.00     0.030 A 
ATOM     18  C   UNL d   1      58.607   0.581  28.644  0.00  0.00     0.003 A 
ATOM     19  C   UNL d   1      58.166   0.591  29.340  0.00  0.00     0.005 A 
ENDBRANCH   2  13
TORSDOF 4
ENDMDL
MODEL 3
REMARK VINA RESULT:      -2.8      1.914      4.431
REMARK  4 active torsions:
REMARK  status: ('A' for Active; 'I' for Inactive)
REMARK    1  A    between atoms: N_3  and  C_2 
REMARK       I    between atoms: C_6  and  N_3 
REMARK    2  A    between atoms: C_8  and  C_4 
REMARK    3  A    between atoms: C_9  and  C_6 
REMARK    4  A    between atoms: C_12  and  C_8 
ROOT
ATOM      1  N   UNL d   1      58.139  -1.295  29.952  0.00  0.00    -0.181 NA
ATOM      2  C   UNL d   1      58.879  -1.295  29.585  0.00  0.00     0.281 C 
ATOM      3  O   UNL d   1      59.345  -0.621  29.593  0.00  0.00    -0.265 OA
ENDROOT
BRANCH   1   4
ATOM      4  C   UNL d   1      57.864  -0.618  30.329  0.00  0.00     0.216 A 
ATOM      5  N   UNL d   1      57.368  -0.594  30.988  0.00  0.00    -0.200 NA
ATOM      6  C   UNL d   1      57.234   0.201  31.180  0.00  0.00     0.175 A 
ATOM      7  N   UNL d   1      57.654   0.667  30.630  0.00  0.00    -0.187 NA
ATOM      8  S   UNL d   1      58.035   0.160  30.115  0.00  0.00     0.054 SA
BRANCH   6   9
ATOM      9  C   UNL d   1      56.771   0.476  31.799  0.00  0.00     0.082 C 
BRANCH   9  10
ATOM     10  C   UNL d   1      56.802   0.104  32.537  0.00  0.00     0.199 C 
ATOM     11  O   UNL d   1      57.389   0.317  33.076  0.00  0.00    -0.286 OA
ATOM     12  C   UNL d   1      56.247  -0.478  32.735  0.00  0.00     0.045 C 
ENDBRANCH   9  10
ENDBRANCH   6   9
ENDBRANCH   1   4
BRANCH   2  13
ATOM     13  C   UNL d   1      59.149  -1.979  29.208  0.00  0.00     0.060 A 
ATOM     14  C   UNL d   1      59.957  -2.074  29.056  0.00  0.00     0.034 A 
ATOM     15  C   UNL d   1      60.231  -2.755  28.680  0.00  0.00     0.140 A 
ATOM     16  F   UNL d   1      61.038  -2.842  28.532  0.00  0.00    -0.204 F 
ATOM     17  C   UNL d   1      59.697  -3.338  28.458  0.00  0.00     0.030 A 
ATOM     18  C   UNL d   1      58.891  -3.245  28.609  0.00  0.00     0.003 A 
ATOM     19  C   UNL d   1      58.618  -2.564  28.984  0.00  0.00     0.005 A 
ENDBRANCH   2  13
TORSDOF 4
ENDMDL
