MODEL 1
REMARK VINA RESULT:      -2.1      0.000      0.000
REMARK  3 active torsions:
REMARK  status: ('A' for Active; 'I' for Inactive)
REMARK    1  A    between atoms: N_2  and  S_1 
REMARK    2  A    between atoms: C_5  and  S_1 
REMARK    3  A    between atoms: C_4  and  C_3 
REMARK       I    between atoms: N_8  and  C_4 
ROOT
ATOM      1  N   UNL d   1      32.778  22.560 -22.160  0.00  0.00    -0.226 N 
ATOM      2  C   UNL d   1      33.026  21.833 -22.441  0.00  0.00     0.131 A 
ATOM      3  C   UNL d   1      32.681  23.187 -22.693  0.00  0.00     0.092 A 
ATOM      4  C   UNL d   1      33.176  21.725 -23.242  0.00  0.00     0.023 A 
ATOM      5  C   UNL d   1      32.830  23.080 -23.484  0.00  0.00     0.018 A 
ATOM      6  C   UNL d   1      33.080  22.343 -23.763  0.00  0.00     0.003 A 
ATOM      7  C   UNL d   1      32.735  23.698 -24.020  0.00  0.00     0.002 A 
ATOM      8  C   UNL d   1      33.234  22.219 -24.560  0.00  0.00     0.000 A 
ATOM      9  C   UNL d   1      33.139  22.842 -25.094  0.00  0.00     0.000 A 
ATOM     10  C   UNL d   1      32.888  23.585 -24.822  0.00  0.00     0.000 A 
ENDROOT
BRANCH   2  11
ATOM     11  C   UNL d   1      33.123  21.207 -21.908  0.00  0.00     0.282 C 
ATOM     12  N   UNL d   1      33.119  20.427 -22.183  0.00  0.00    -0.271 N 
ATOM     13  C   UNL d   1      33.015  20.338 -22.991  0.00  0.00     0.083 A 
ATOM     14  C   UNL d   1      33.220  19.844 -21.603  0.00  0.00     0.083 A 
ATOM     15  C   UNL d   1      32.985  19.641 -23.436  0.00  0.00     0.019 A 
ATOM     16  C   UNL d   1      33.052  18.868 -23.178  0.00  0.00     0.002 A 
ATOM     17  C   UNL d   1      33.166  18.586 -22.409  0.00  0.00     0.002 A 
ATOM     18  C   UNL d   1      33.241  19.025 -21.706  0.00  0.00     0.019 A 
ATOM     19  O   UNL d   1      33.223  21.351 -21.106  0.00  0.00    -0.265 OA
ENDBRANCH   2  11
BRANCH   1  20
ATOM     20  S   UNL d   1      32.626  22.673 -21.357  0.00  0.00     0.277 S 
ATOM     21  O   UNL d   1      33.212  23.251 -21.363  0.00  0.00    -0.199 OA
ATOM     22  O   UNL d   1      32.038  22.092 -21.359  0.00  0.00    -0.199 OA
BRANCH  20  23
ATOM     23  C   UNL d   1      32.484  22.797 -20.553  0.00  0.00     0.133 A 
ATOM     24  S   UNL d   1      32.975  23.206 -20.036  0.00  0.00    -0.074 SA
ATOM     25  C   UNL d   1      32.628  23.200 -19.290  0.00  0.00     0.036 A 
ATOM     26  C   UNL d   1      31.913  22.781 -19.344  0.00  0.00     0.008 A 
ATOM     27  C   UNL d   1      31.828  22.533 -20.128  0.00  0.00     0.020 A 
ENDBRANCH  20  23
ENDBRANCH   1  20
TORSDOF 3
ENDMDL
MODEL 2
REMARK VINA RESULT:      -2.0      0.649      2.983
REMARK  3 active torsions:
REMARK  status: ('A' for Active; 'I' for Inactive)
REMARK    1  A    between atoms: N_2  and  S_1 
REMARK    2  A    between atoms: C_5  and  S_1 
REMARK    3  A    between atoms: C_4  and  C_3 
REMARK       I    between atoms: N_8  and  C_4 
ROOT
ATOM      1  N   UNL d   1      32.683  20.974 -21.595  0.00  0.00    -0.226 N 
ATOM      2  C   UNL d   1      32.985  21.250 -22.302  0.00  0.00     0.131 A 
ATOM      3  C   UNL d   1      32.564  20.159 -21.498  0.00  0.00     0.092 A 
ATOM      4  C   UNL d   1      33.170  20.728 -22.910  0.00  0.00     0.023 A 
ATOM      5  C   UNL d   1      32.746  19.644 -22.098  0.00  0.00     0.018 A 
ATOM      6  C   UNL d   1      33.052  19.928 -22.811  0.00  0.00     0.003 A 
ATOM      7  C   UNL d   1      32.630  18.833 -22.009  0.00  0.00     0.002 A 
ATOM      8  C   UNL d   1      33.241  19.420 -23.427  0.00  0.00     0.000 A 
ATOM      9  C   UNL d   1      33.123  18.607 -23.333  0.00  0.00     0.000 A 
ATOM     10  C   UNL d   1      32.817  18.312 -22.620  0.00  0.00     0.000 A 
ENDROOT
BRANCH   2  11
ATOM     11  C   UNL d   1      33.104  22.065 -22.399  0.00  0.00     0.282 C 
ATOM     12  N   UNL d   1      33.086  22.396 -23.157  0.00  0.00    -0.271 N 
ATOM     13  C   UNL d   1      32.946  21.870 -23.769  0.00  0.00     0.083 A 
ATOM     14  C   UNL d   1      33.211  23.214 -23.191  0.00  0.00     0.083 A 
ATOM     15  C   UNL d   1      32.894  22.023 -24.581  0.00  0.00     0.019 A 
ATOM     16  C   UNL d   1      32.970  22.737 -24.972  0.00  0.00     0.002 A 
ATOM     17  C   UNL d   1      33.117  23.488 -24.657  0.00  0.00     0.002 A 
ATOM     18  C   UNL d   1      33.225  23.698 -23.859  0.00  0.00     0.019 A 
ATOM     19  O   UNL d   1      33.241  22.547 -21.751  0.00  0.00    -0.265 OA
ENDBRANCH   2  11
BRANCH   1  20
ATOM     20  S   UNL d   1      32.496  21.494 -20.983  0.00  0.00     0.277 S 
ATOM     21  O   UNL d   1      33.236  21.328 -20.664  0.00  0.00    -0.199 OA
ATOM     22  O   UNL d   1      31.755  21.656 -21.310  0.00  0.00    -0.199 OA
BRANCH  20  23
ATOM     23  C   UNL d   1      32.324  22.013 -20.364  0.00  0.00     0.133 A 
ATOM     24  S   UNL d   1      32.671  22.005 -19.619  0.00  0.00    -0.074 SA
ATOM     25  C   UNL d   1      32.342  22.613 -19.173  0.00  0.00     0.036 A 
ATOM     26  C   UNL d   1      31.782  23.003 -19.646  0.00  0.00     0.008 A 
ATOM     27  C   UNL d   1      31.775  22.628 -20.383  0.00  0.00     0.020 A 
ENDBRANCH  20  23
ENDBRANCH   1  20
TORSDOF 3
ENDMDL
MODEL 3
REMARK VINA RESULT:      -0.8      3.951      5.770
REMARK  3 active torsions:
REMARK  status: ('A' for Active; 'I' for Inactive)
REMARK    1  A    between atoms: N_2  and  S_1 
REMARK    2  A    between atoms: C_5  and  S_1 
REMARK    3  A    between atoms: C_4  and  C_3 
REMARK       I    between atoms: N_8  and  C_4 
ROOT
ATOM      1  N   UNL d   1      30.860  17.778 -24.439  0.00  0.00    -0.226 N 
ATOM      2  C   UNL d   1      31.010  16.976 -24.377  0.00  0.00     0.131 A 
ATOM      3  C   UNL d   1      30.077  18.038 -24.507  0.00  0.00     0.092 A 
ATOM      4  C   UNL d   1      30.390  16.435 -24.381  0.00  0.00     0.023 A 
ATOM      5  C   UNL d   1      29.465  17.503 -24.511  0.00  0.00     0.018 A 
ATOM      6  C   UNL d   1      29.622  16.694 -24.448  0.00  0.00     0.003 A 
ATOM      7  C   UNL d   1      28.684  17.755 -24.578  0.00  0.00     0.002 A 
ATOM      8  C   UNL d   1      29.015  16.142 -24.451  0.00  0.00     0.000 A 
ATOM      9  C   UNL d   1      28.232  16.398 -24.518  0.00  0.00     0.000 A 
ATOM     10  C   UNL d   1      28.066  17.209 -24.582  0.00  0.00     0.000 A 
ENDROOT
BRANCH   2  11
ATOM     11  C   UNL d   1      31.793  16.715 -24.309  0.00  0.00     0.282 C 
ATOM     12  N   UNL d   1      32.041  16.332 -23.620  0.00  0.00    -0.271 N 
ATOM     13  C   UNL d   1      31.469  16.239 -23.041  0.00  0.00     0.083 A 
ATOM     14  C   UNL d   1      32.835  16.095 -23.611  0.00  0.00     0.083 A 
ATOM     15  C   UNL d   1      31.537  15.883 -22.297  0.00  0.00     0.019 A 
ATOM     16  C   UNL d   1      32.195  15.536 -21.957  0.00  0.00     0.002 A 
ATOM     17  C   UNL d   1      32.957  15.453 -22.267  0.00  0.00     0.002 A 
ATOM     18  C   UNL d   1      33.241  15.704 -23.008  0.00  0.00     0.019 A 
ATOM     19  O   UNL d   1      32.327  16.834 -24.920  0.00  0.00    -0.265 OA
ENDBRANCH   2  11
BRANCH   1  20
ATOM     20  S   UNL d   1      31.478  18.324 -24.435  0.00  0.00     0.277 S 
ATOM     21  O   UNL d   1      31.124  18.667 -23.777  0.00  0.00    -0.199 OA
ATOM     22  O   UNL d   1      31.828  17.973 -25.097  0.00  0.00    -0.199 OA
BRANCH  20  23
ATOM     23  C   UNL d   1      32.091  18.877 -24.418  0.00  0.00     0.133 A 
ATOM     24  S   UNL d   1      32.351  19.326 -25.055  0.00  0.00    -0.074 SA
ATOM     25  C   UNL d   1      32.969  19.805 -24.800  0.00  0.00     0.036 A 
ATOM     26  C   UNL d   1      33.095  19.652 -23.994  0.00  0.00     0.008 A 
ATOM     27  C   UNL d   1      32.549  19.076 -23.762  0.00  0.00     0.020 A 
ENDBRANCH  20  23
ENDBRANCH   1  20
TORSDOF 3
ENDMDL
MODEL 4
REMARK VINA RESULT:      -0.7      1.522      3.977
REMARK  3 active torsions:
REMARK  status: ('A' for Active; 'I' for Inactive)
REMARK    1  A    between atoms: N_2  and  S_1 
REMARK    2  A    between atoms: C_5  and  S_1 
REMARK    3  A    between atoms: C_4  and  C_3 
REMARK       I    between atoms: N_8  and  C_4 
ROOT
ATOM      1  N   UNL d   1      32.737  20.593 -21.969  0.00  0.00    -0.226 N 
ATOM      2  C   UNL d   1      32.982  21.270 -22.357  0.00  0.00     0.131 A 
ATOM      3  C   UNL d   1      32.619  20.618 -21.149  0.00  0.00     0.092 A 
ATOM      4  C   UNL d   1      33.110  21.966 -21.939  0.00  0.00     0.023 A 
ATOM      5  C   UNL d   1      32.746  21.306 -20.737  0.00  0.00     0.018 A 
ATOM      6  C   UNL d   1      32.994  21.988 -21.134  0.00  0.00     0.003 A 
ATOM      7  C   UNL d   1      32.631  21.338 -19.922  0.00  0.00     0.002 A 
ATOM      8  C   UNL d   1      33.126  22.691 -20.732  0.00  0.00     0.000 A 
ATOM      9  C   UNL d   1      33.009  22.719 -19.914  0.00  0.00     0.000 A 
ATOM     10  C   UNL d   1      32.761  22.039 -19.507  0.00  0.00     0.000 A 
ENDROOT
BRANCH   2  11
ATOM     11  C   UNL d   1      33.100  21.245 -23.177  0.00  0.00     0.282 C 
ATOM     12  N   UNL d   1      33.075  21.943 -23.617  0.00  0.00    -0.271 N 
ATOM     13  C   UNL d   1      32.931  22.627 -23.190  0.00  0.00     0.083 A 
ATOM     14  C   UNL d   1      33.200  21.855 -24.432  0.00  0.00     0.083 A 
ATOM     15  C   UNL d   1      32.873  23.407 -23.462  0.00  0.00     0.019 A 
ATOM     16  C   UNL d   1      32.945  23.686 -24.227  0.00  0.00     0.002 A 
ATOM     17  C   UNL d   1      33.095  23.263 -24.922  0.00  0.00     0.002 A 
ATOM     18  C   UNL d   1      33.208  22.444 -25.011  0.00  0.00     0.019 A 
ATOM     19  O   UNL d   1      33.241  20.532 -23.557  0.00  0.00    -0.265 OA
ENDBRANCH   2  11
BRANCH   1  20
ATOM     20  S   UNL d   1      32.607  19.892 -22.384  0.00  0.00     0.277 S 
ATOM     21  O   UNL d   1      33.240  19.570 -21.968  0.00  0.00    -0.199 OA
ATOM     22  O   UNL d   1      31.973  20.223 -22.797  0.00  0.00    -0.199 OA
BRANCH  20  23
ATOM     23  C   UNL d   1      32.489  19.183 -22.792  0.00  0.00     0.133 A 
ATOM     24  S   UNL d   1      32.939  18.501 -22.709  0.00  0.00    -0.074 SA
ATOM     25  C   UNL d   1      32.635  17.928 -23.215  0.00  0.00     0.036 A 
ATOM     26  C   UNL d   1      31.988  18.258 -23.617  0.00  0.00     0.008 A 
ATOM     27  C   UNL d   1      31.902  19.036 -23.351  0.00  0.00     0.020 A 
ENDBRANCH  20  23
ENDBRANCH   1  20
TORSDOF 3
ENDMDL
