MODEL 1
REMARK VINA RESULT:      16.0      0.000      0.000
REMARK  5 active torsions:
REMARK  status: ('A' for Active; 'I' for Inactive)
REMARK    1  A    between atoms: C_4  and  N_1 
REMARK    2  A    between atoms: C_8  and  C_3 
REMARK    3  A    between atoms: N_7  and  C_4 
REMARK    4  A    between atoms: C_15  and  N_7 
REMARK    5  A    between atoms: C_17  and  C_15 
ROOT
ATOM      1  N   UNL d   1      46.091 -17.814  43.138  0.00  0.00    -0.281 N 
ATOM      2  C   UNL d   1      46.375 -18.887  42.256  0.00  0.00     0.080 A 
ATOM      3  C   UNL d   1      46.220 -18.615  43.013  0.00  0.00     0.084 A 
ATOM      4  N   UNL d   1      46.402 -18.362  41.625  0.00  0.00    -0.301 N 
ATOM      5  C   UNL d   1      46.118 -17.284  42.503  0.00  0.00     0.101 A 
ATOM      6  C   UNL d   1      46.525 -19.645  41.963  0.00  0.00     0.021 A 
ATOM      7  C   UNL d   1      46.567 -18.788  40.938  0.00  0.00     0.080 A 
ATOM      8  C   UNL d   1      46.274 -17.566  41.746  0.00  0.00     0.100 A 
ATOM      9  C   UNL d   1      46.644 -19.584  41.143  0.00  0.00     0.021 A 
ENDROOT
BRANCH   1  10
ATOM     10  C   UNL d   1      45.933 -17.529  43.900  0.00  0.00     0.184 C 
ATOM     11  S   UNL d   1      46.079 -18.011  44.545  0.00  0.00    -0.040 SA
BRANCH  10  12
ATOM     12  N   UNL d   1      45.635 -16.774  44.006  0.00  0.00    -0.330 N 
ATOM     13  H   UNL d   1      44.907 -16.567  43.675  0.00  0.00     0.168 HD
BRANCH  12  14
ATOM     14  C   UNL d   1      46.058 -16.222  44.442  0.00  0.00     0.074 C 
BRANCH  14  15
ATOM     15  C   UNL d   1      45.758 -15.467  44.551  0.00  0.00     0.017 A 
ATOM     16  C   UNL d   1      44.940 -15.346  44.606  0.00  0.00     0.002 A 
ATOM     17  C   UNL d   1      44.646 -14.583  44.715  0.00  0.00     0.000 A 
ATOM     18  C   UNL d   1      45.159 -13.936  44.771  0.00  0.00     0.000 A 
ATOM     19  C   UNL d   1      45.977 -14.064  44.716  0.00  0.00     0.000 A 
ATOM     20  C   UNL d   1      46.275 -14.827  44.606  0.00  0.00     0.002 A 
ENDBRANCH  14  15
ENDBRANCH  12  14
ENDBRANCH  10  12
ENDBRANCH   1  10
BRANCH   3  21
ATOM     21  C   UNL d   1      46.193 -19.140  43.647  0.00  0.00     0.037 A 
ATOM     22  C   UNL d   1      45.712 -19.810  43.610  0.00  0.00     0.100 A 
ATOM     23  N   UNL d   1      45.690 -20.329  44.247  0.00  0.00    -0.242 NA
ATOM     24  C   UNL d   1      46.135 -20.195  44.911  0.00  0.00     0.099 A 
ATOM     25  C   UNL d   1      46.620 -19.525  44.955  0.00  0.00     0.021 A 
ATOM     26  C   UNL d   1      46.647 -18.998  44.319  0.00  0.00     0.005 A 
ENDBRANCH   3  21
TORSDOF 5
ENDMDL
