MODEL 1
REMARK VINA RESULT:      -2.5      0.000      0.000
REMARK  9 active torsions:
REMARK  status: ('A' for Active; 'I' for Inactive)
REMARK    1  A    between atoms: N_2  and  S_1 
REMARK    2  A    between atoms: C_9  and  S_1 
REMARK    3  A    between atoms: C_4  and  N_2 
REMARK    4  A    between atoms: O_24  and  C_6 
REMARK    5  A    between atoms: O_26  and  C_7 
REMARK       I    between atoms: C_12  and  N_15 
REMARK    6  A    between atoms: C_22  and  C_12 
REMARK    7  A    between atoms: C_14  and  O_16 
REMARK    8  A    between atoms: N_15  and  C_23 
REMARK    9  A    between atoms: O_16  and  C_22 
ROOT
ATOM      1  C   UNL d   1      32.323  18.348 -24.043  0.00  0.00     0.105 A 
ATOM      2  C   UNL d   1      32.413  18.333 -23.229  0.00  0.00     0.015 A 
ATOM      3  C   UNL d   1      32.541  19.024 -24.474  0.00  0.00     0.015 A 
ATOM      4  C   UNL d   1      32.932  19.654 -23.260  0.00  0.00     0.085 A 
ATOM      5  C   UNL d   1      32.717  18.978 -22.812  0.00  0.00     0.020 A 
ATOM      6  C   UNL d   1      32.844  19.670 -24.068  0.00  0.00     0.020 A 
ENDROOT
BRANCH   1   7
ATOM      7  S   UNL d   1      32.020  17.702 -24.450  0.00  0.00     0.287 S 
ATOM      8  O   UNL d   1      32.780  17.316 -24.399  0.00  0.00    -0.198 OA
ATOM      9  O   UNL d   1      31.273  18.059 -24.510  0.00  0.00    -0.198 OA
BRANCH   7  10
ATOM     10  N   UNL d   1      31.733  17.031 -24.864  0.00  0.00    -0.139 NA
BRANCH  10  11
ATOM     11  C   UNL d   1      31.157  16.545 -24.551  0.00  0.00     0.182 A 
ATOM     12  N   UNL d   1      31.226  16.255 -23.807  0.00  0.00    -0.185 NA
ATOM     13  C   UNL d   1      30.642  15.755 -23.473  0.00  0.00     0.274 A 
ATOM     14  N   UNL d   1      29.989  15.559 -23.914  0.00  0.00    -0.181 NA
ATOM     15  C   UNL d   1      29.898  15.841 -24.669  0.00  0.00     0.185 A 
ATOM     16  C   UNL d   1      30.507  16.354 -24.999  0.00  0.00     0.084 A 
BRANCH  13  17
ATOM     17  O   UNL d   1      30.718  15.453 -22.693  0.00  0.00    -0.297 OA
ATOM     18  C   UNL d   1      30.125  15.577 -22.134  0.00  0.00     0.185 C 
ENDBRANCH  13  17
BRANCH  15  19
ATOM     19  O   UNL d   1      29.213  15.620 -25.097  0.00  0.00    -0.312 OA
ATOM     20  C   UNL d   1      28.465  15.793 -24.765  0.00  0.00     0.183 C 
ENDBRANCH  15  19
ENDBRANCH  10  11
ENDBRANCH   7  10
ENDBRANCH   1   7
BRANCH   4  21
ATOM     21  N   UNL d   1      33.241  20.321 -22.874  0.00  0.00    -0.206 NA
ATOM     22  C   UNL d   1      32.819  20.619 -22.211  0.00  0.00     0.304 C 
ATOM     23  O   UNL d   1      32.153  20.271 -21.969  0.00  0.00    -0.263 OA
BRANCH  22  24
ATOM     24  C   UNL d   1      33.127  21.282 -21.827  0.00  0.00     0.185 C 
BRANCH  24  25
ATOM     25  O   UNL d   1      32.649  21.929 -21.659  0.00  0.00    -0.300 OA
BRANCH  25  26
ATOM     26  C   UNL d   1      32.735  22.307 -20.914  0.00  0.00     0.100 A 
ATOM     27  C   UNL d   1      32.489  23.079 -20.778  0.00  0.00     0.023 A 
ATOM     28  C   UNL d   1      32.578  23.434 -20.050  0.00  0.00     0.002 A 
ATOM     29  C   UNL d   1      32.129  23.535 -21.401  0.00  0.00     0.002 C 
ATOM     30  C   UNL d   1      32.916  23.023 -19.444  0.00  0.00     0.000 A 
ATOM     31  C   UNL d   1      33.178  22.238 -19.545  0.00  0.00     0.002 A 
ATOM     32  C   UNL d   1      33.016  23.371 -18.692  0.00  0.00     0.000 C 
ATOM     33  C   UNL d   1      33.088  21.883 -20.273  0.00  0.00     0.025 A 
ENDBRANCH  25  26
ENDBRANCH  24  25
ENDBRANCH  22  24
ENDBRANCH   4  21
TORSDOF 9
ENDMDL
MODEL 2
REMARK VINA RESULT:      -2.3      1.136      1.878
REMARK  9 active torsions:
REMARK  status: ('A' for Active; 'I' for Inactive)
REMARK    1  A    between atoms: N_2  and  S_1 
REMARK    2  A    between atoms: C_9  and  S_1 
REMARK    3  A    between atoms: C_4  and  N_2 
REMARK    4  A    between atoms: O_24  and  C_6 
REMARK    5  A    between atoms: O_26  and  C_7 
REMARK       I    between atoms: C_12  and  N_15 
REMARK    6  A    between atoms: C_22  and  C_12 
REMARK    7  A    between atoms: C_14  and  O_16 
REMARK    8  A    between atoms: N_15  and  C_23 
REMARK    9  A    between atoms: O_16  and  C_22 
ROOT
ATOM      1  C   UNL d   1      32.843  19.169 -22.979  0.00  0.00     0.105 A 
ATOM      2  C   UNL d   1      32.713  19.900 -23.326  0.00  0.00     0.015 A 
ATOM      3  C   UNL d   1      33.107  19.122 -22.193  0.00  0.00     0.015 A 
ATOM      4  C   UNL d   1      33.103  20.543 -22.122  0.00  0.00     0.085 A 
ATOM      5  C   UNL d   1      32.836  20.606 -22.915  0.00  0.00     0.020 A 
ATOM      6  C   UNL d   1      33.232  19.818 -21.776  0.00  0.00     0.020 A 
ENDROOT
BRANCH   1   7
ATOM      7  S   UNL d   1      32.718  18.472 -23.395  0.00  0.00     0.287 S 
ATOM      8  O   UNL d   1      33.121  18.036 -22.781  0.00  0.00    -0.198 OA
ATOM      9  O   UNL d   1      32.323  18.877 -24.003  0.00  0.00    -0.198 OA
BRANCH   7  10
ATOM     10  N   UNL d   1      32.602  17.747 -23.802  0.00  0.00    -0.139 NA
BRANCH  10  11
ATOM     11  C   UNL d   1      31.858  17.436 -23.924  0.00  0.00     0.182 A 
ATOM     12  N   UNL d   1      31.312  17.834 -24.355  0.00  0.00    -0.185 NA
ATOM     13  C   UNL d   1      30.545  17.527 -24.488  0.00  0.00     0.274 A 
ATOM     14  N   UNL d   1      30.346  16.805 -24.172  0.00  0.00    -0.181 NA
ATOM     15  C   UNL d   1      30.882  16.384 -23.732  0.00  0.00     0.185 A 
ATOM     16  C   UNL d   1      31.669  16.713 -23.604  0.00  0.00     0.084 A 
BRANCH  13  17
ATOM     17  O   UNL d   1      29.976  17.948 -24.940  0.00  0.00    -0.297 OA
ATOM     18  C   UNL d   1      29.182  17.726 -24.930  0.00  0.00     0.185 C 
ENDBRANCH  13  17
BRANCH  15  19
ATOM     19  O   UNL d   1      30.646  15.643 -23.420  0.00  0.00    -0.312 OA
ATOM     20  C   UNL d   1      30.486  15.590 -22.602  0.00  0.00     0.183 C 
ENDBRANCH  15  19
ENDBRANCH  10  11
ENDBRANCH   7  10
ENDBRANCH   1   7
BRANCH   4  21
ATOM     21  N   UNL d   1      33.237  21.232 -21.678  0.00  0.00    -0.206 NA
ATOM     22  C   UNL d   1      32.624  21.493 -21.167  0.00  0.00     0.304 C 
ATOM     23  O   UNL d   1      31.945  21.093 -21.115  0.00  0.00    -0.263 OA
BRANCH  22  24
ATOM     24  C   UNL d   1      32.758  22.178 -20.726  0.00  0.00     0.185 C 
BRANCH  24  25
ATOM     25  O   UNL d   1      32.153  22.521 -20.289  0.00  0.00    -0.300 OA
BRANCH  25  26
ATOM     26  C   UNL d   1      32.333  22.828 -19.529  0.00  0.00     0.100 A 
ATOM     27  C   UNL d   1      31.837  23.349 -19.132  0.00  0.00     0.023 A 
ATOM     28  C   UNL d   1      32.024  23.640 -18.393  0.00  0.00     0.002 A 
ATOM     29  C   UNL d   1      31.104  23.603 -19.485  0.00  0.00     0.002 C 
ATOM     30  C   UNL d   1      32.712  23.415 -18.039  0.00  0.00     0.000 A 
ATOM     31  C   UNL d   1      33.240  22.888 -18.411  0.00  0.00     0.002 A 
ATOM     32  C   UNL d   1      32.920  23.702 -17.283  0.00  0.00     0.000 C 
ATOM     33  C   UNL d   1      33.053  22.597 -19.149  0.00  0.00     0.025 A 
ENDBRANCH  25  26
ENDBRANCH  24  25
ENDBRANCH  22  24
ENDBRANCH   4  21
TORSDOF 9
ENDMDL
