MODEL 1
REMARK VINA RESULT:      -0.2      0.000      0.000
REMARK  5 active torsions:
REMARK  status: ('A' for Active; 'I' for Inactive)
REMARK    1  A    between atoms: C_13  and  C_5 
REMARK    2  A    between atoms: C_16  and  C_13 
REMARK    3  A    between atoms: C_19  and  C_16 
REMARK    4  A    between atoms: C_17  and  C_18 
REMARK    5  A    between atoms: C_18  and  C_19 
ROOT
ATOM      1  C   UNL d   1     -41.301-121.325 -52.093  0.00  0.00     0.111 A 
ATOM      2  C   UNL d   1     -41.325-122.585 -52.794  0.00  0.00     0.062 A 
ATOM      3  C   UNL d   1     -41.427-120.934 -52.793  0.00  0.00     0.213 A 
ATOM      4  C   UNL d   1     -41.457-122.159 -53.523  0.00  0.00     0.105 A 
ATOM      5  C   UNL d   1     -41.249-122.168 -52.086  0.00  0.00     0.018 A 
ATOM      6  O   UNL d   1     -41.508-121.366 -53.539  0.00  0.00    -0.287 OA
ATOM      7  C   UNL d   1     -41.225-120.907 -51.385  0.00  0.00     0.105 C 
ATOM      8  C   UNL d   1     -41.278-123.403 -52.809  0.00  0.00     0.198 A 
ATOM      9  N   UNL d   1     -41.146-120.480 -50.661  0.00  0.00    -0.191 NA
ATOM     10  N   UNL d   1     -41.483-120.069 -52.817  0.00  0.00    -0.120 N 
ATOM     11  O   UNL d   1     -41.148-123.798 -52.081  0.00  0.00    -0.286 OA
ATOM     12  C   UNL d   1     -41.535-122.588 -54.243  0.00  0.00     0.025 A 
ATOM     13  C   UNL d   1     -41.355-123.817 -53.522  0.00  0.00     0.042 A 
ATOM     14  C   UNL d   1     -41.484-123.416 -54.240  0.00  0.00     0.005 A 
ENDROOT
BRANCH   5  15
ATOM     15  C   UNL d   1     -41.124-122.557 -51.391  0.00  0.00     0.001 C 
BRANCH  15  16
ATOM     16  C   UNL d   1     -41.686-122.563 -50.806  0.00  0.00     0.000 C 
BRANCH  16  17
ATOM     17  C   UNL d   1     -41.592-123.015 -50.086  0.00  0.00     0.000 C 
BRANCH  17  18
ATOM     18  C   UNL d   1     -42.208-123.047 -49.548  0.00  0.00     0.000 C 
BRANCH  18  19
ATOM     19  C   UNL d   1     -42.187-123.627 -48.965  0.00  0.00     0.000 C 
ATOM     20  C   UNL d   1     -42.477-123.470 -48.228  0.00  0.00     0.000 C 
ENDBRANCH  18  19
ENDBRANCH  17  18
ENDBRANCH  16  17
ENDBRANCH  15  16
ENDBRANCH   5  15
TORSDOF 5
ENDMDL
