MODEL 1
REMARK VINA RESULT:      -7.4      0.000      0.000
REMARK  1 active torsions:
REMARK  status: ('A' for Active; 'I' for Inactive)
REMARK    1  A    between atoms: C_8  and  N_3 
ROOT
ATOM      1  C   UNL d   1     -48.850  12.871  22.146  0.00  0.00     0.292 A 
ATOM      2  C   UNL d   1     -49.617  12.564  22.178  0.00  0.00     0.128 A 
ATOM      3  N   UNL d   1     -48.418  12.962  22.834  0.00  0.00    -0.194 N 
ATOM      4  N   UNL d   1     -48.741  12.749  23.566  0.00  0.00    -0.160 NA
ATOM      5  C   UNL d   1     -49.954  12.346  22.899  0.00  0.00     0.094 A 
ATOM      6  C   UNL d   1     -49.508  12.442  23.598  0.00  0.00     0.133 A 
ATOM      7  O   UNL d   1     -48.513  13.091  21.403  0.00  0.00    -0.264 OA
ATOM      8 CL   UNL d   1     -50.083  12.462  21.470  0.00  0.00    -0.076 Cl
ATOM      9 CL   UNL d   1     -50.718  12.040  22.932  0.00  0.00    -0.080 Cl
ENDROOT
BRANCH   3  10
ATOM     10  C   UNL d   1     -47.641  13.273  22.801  0.00  0.00     0.086 A 
ATOM     11  C   UNL d   1     -47.004  12.754  22.744  0.00  0.00     0.019 A 
ATOM     12  C   UNL d   1     -46.220  13.069  22.711  0.00  0.00     0.002 A 
ATOM     13  C   UNL d   1     -46.114  13.885  22.737  0.00  0.00     0.000 A 
ATOM     14  C   UNL d   1     -46.747  14.394  22.794  0.00  0.00     0.002 A 
ATOM     15  C   UNL d   1     -47.532  14.080  22.827  0.00  0.00     0.019 A 
ENDBRANCH   3  10
TORSDOF 1
ENDMDL
MODEL 2
REMARK VINA RESULT:      -7.2      1.862      3.159
REMARK  1 active torsions:
REMARK  status: ('A' for Active; 'I' for Inactive)
REMARK    1  A    between atoms: C_8  and  N_3 
ROOT
ATOM      1  C   UNL d   1     -47.972  12.726  23.166  0.00  0.00     0.292 A 
ATOM      2  C   UNL d   1     -47.184  12.531  23.324  0.00  0.00     0.128 A 
ATOM      3  N   UNL d   1     -48.552  12.152  23.220  0.00  0.00    -0.194 N 
ATOM      4  N   UNL d   1     -48.359  11.376  23.434  0.00  0.00    -0.160 NA
ATOM      5  C   UNL d   1     -46.974  11.763  23.538  0.00  0.00     0.094 A 
ATOM      6  C   UNL d   1     -47.571  11.182  23.592  0.00  0.00     0.133 A 
ATOM      7  O   UNL d   1     -48.177  13.515  22.947  0.00  0.00    -0.264 OA
ATOM      8 CL   UNL d   1     -46.565  13.118  23.272  0.00  0.00    -0.076 Cl
ATOM      9 CL   UNL d   1     -46.190  11.569  23.696  0.00  0.00    -0.080 Cl
ENDROOT
BRANCH   3  10
ATOM     10  C   UNL d   1     -49.350  12.349  23.060  0.00  0.00     0.086 A 
ATOM     11  C   UNL d   1     -49.850  12.538  23.686  0.00  0.00     0.019 A 
ATOM     12  C   UNL d   1     -50.656  12.737  23.524  0.00  0.00     0.002 A 
ATOM     13  C   UNL d   1     -50.919  12.736  22.743  0.00  0.00     0.000 A 
ATOM     14  C   UNL d   1     -50.421  12.548  22.127  0.00  0.00     0.002 A 
ATOM     15  C   UNL d   1     -49.615  12.349  22.290  0.00  0.00     0.019 A 
ENDBRANCH   3  10
TORSDOF 1
ENDMDL
MODEL 3
REMARK VINA RESULT:      -7.0      2.201      3.009
REMARK  1 active torsions:
REMARK  status: ('A' for Active; 'I' for Inactive)
REMARK    1  A    between atoms: C_8  and  N_3 
ROOT
ATOM      1  C   UNL d   1     -47.630  14.116  22.809  0.00  0.00     0.292 A 
ATOM      2  C   UNL d   1     -46.944  13.667  22.917  0.00  0.00     0.128 A 
ATOM      3  N   UNL d   1     -48.361  13.786  22.965  0.00  0.00    -0.194 N 
ATOM      4  N   UNL d   1     -48.423  13.005  23.231  0.00  0.00    -0.160 NA
ATOM      5  C   UNL d   1     -46.987  12.887  23.181  0.00  0.00     0.094 A 
ATOM      6  C   UNL d   1     -47.737  12.556  23.339  0.00  0.00     0.133 A 
ATOM      7  O   UNL d   1     -47.575  14.914  22.537  0.00  0.00    -0.264 OA
ATOM      8 CL   UNL d   1     -46.171  13.996  22.758  0.00  0.00    -0.076 Cl
ATOM      9 CL   UNL d   1     -46.304  12.440  23.289  0.00  0.00    -0.080 Cl
ENDROOT
BRANCH   3  10
ATOM     10  C   UNL d   1     -49.056  14.240  22.856  0.00  0.00     0.086 A 
ATOM     11  C   UNL d   1     -49.495  14.141  22.165  0.00  0.00     0.019 A 
ATOM     12  C   UNL d   1     -50.197  14.601  22.055  0.00  0.00     0.002 A 
ATOM     13  C   UNL d   1     -50.422  15.134  22.641  0.00  0.00     0.000 A 
ATOM     14  C   UNL d   1     -49.986  15.228  23.321  0.00  0.00     0.002 A 
ATOM     15  C   UNL d   1     -49.284  14.769  23.432  0.00  0.00     0.019 A 
ENDBRANCH   3  10
TORSDOF 1
ENDMDL
