MODEL 1
REMARK VINA RESULT:      52.7      0.000      0.000
REMARK  3 active torsions:
REMARK  status: ('A' for Active; 'I' for Inactive)
REMARK    1  A    between atoms: N_2  and  S_1 
REMARK    2  A    between atoms: C_3  and  S_1 
REMARK    3  A    between atoms: C_5  and  N_4 
ROOT
ATOM      1  N   UNL d   1      45.715 -18.006  40.409  0.00  0.00    -0.226 N 
ATOM      2  N   UNL d   1      45.344 -17.132  39.071  0.00  0.00    -0.301 N 
ATOM      3  C   UNL d   1      44.942 -17.753  40.283  0.00  0.00     0.111 A 
ATOM      4  C   UNL d   1      46.301 -17.820  39.863  0.00  0.00     0.111 A 
ATOM      5  C   UNL d   1      44.756 -17.314  39.610  0.00  0.00     0.100 A 
ATOM      6  C   UNL d   1      46.115 -17.380  39.190  0.00  0.00     0.100 A 
ENDROOT
BRANCH   1   7
ATOM      7  S   UNL d   1      45.901 -18.445  41.082  0.00  0.00     0.271 S 
ATOM      8  O   UNL d   1      46.628 -18.648  40.749  0.00  0.00    -0.200 OA
ATOM      9  O   UNL d   1      45.174 -18.242  41.416  0.00  0.00    -0.200 OA
BRANCH   7  10
ATOM     10  C   UNL d   1      46.088 -18.884  41.755  0.00  0.00     0.104 A 
ATOM     11  C   UNL d   1      46.190 -18.507  42.480  0.00  0.00     0.015 A 
ATOM     12  C   UNL d   1      46.377 -18.946  43.153  0.00  0.00     0.028 A 
ATOM     13  C   UNL d   1      46.479 -18.564  43.879  0.00  0.00     0.002 C 
ATOM     14  C   UNL d   1      46.460 -19.763  43.101  0.00  0.00     0.140 A 
ATOM     15  C   UNL d   1      46.358 -20.141  42.378  0.00  0.00     0.030 A 
ATOM     16  F   UNL d   1      46.647 -20.202  43.774  0.00  0.00    -0.204 F 
ATOM     17  C   UNL d   1      46.172 -19.702  41.705  0.00  0.00     0.015 A 
ENDBRANCH   7  10
ENDBRANCH   1   7
BRANCH   2  18
ATOM     18  C   UNL d   1      45.158 -16.693  38.398  0.00  0.00     0.064 A 
ATOM     19  C   UNL d   1      45.710 -16.174  38.077  0.00  0.00     0.016 A 
ATOM     20  C   UNL d   1      45.524 -15.735  37.404  0.00  0.00     0.001 A 
ATOM     21  C   UNL d   1      46.454 -16.093  38.430  0.00  0.00     0.002 C 
ATOM     22  C   UNL d   1      44.785 -15.814  37.051  0.00  0.00     0.000 A 
ATOM     23  C   UNL d   1      44.232 -16.332  37.372  0.00  0.00     0.002 A 
ATOM     24  C   UNL d   1      44.598 -15.375  36.379  0.00  0.00     0.000 C 
ATOM     25  C   UNL d   1      44.418 -16.772  38.045  0.00  0.00     0.018 A 
ENDBRANCH   2  18
TORSDOF 3
ENDMDL
