MODEL 1
REMARK VINA RESULT:      -6.9      0.000      0.000
REMARK  6 active torsions:
REMARK  status: ('A' for Active; 'I' for Inactive)
REMARK    1  A    between atoms: N_2  and  S_1 
REMARK    2  A    between atoms: C_16  and  S_1 
REMARK    3  A    between atoms: C_4  and  C_3 
REMARK       I    between atoms: N_6  and  C_4 
REMARK    4  A    between atoms: C_15  and  N_6 
REMARK    5  A    between atoms: C_9  and  C_15 
REMARK    6  A    between atoms: C_20  and  C_16 
ROOT
ATOM      1  N   UNL d   1     -50.141  13.287  22.536  0.00  0.00    -0.229 N 
ATOM      2  C   UNL d   1     -49.156  12.273  22.712  0.00  0.00     0.076 A 
ATOM      3  C   UNL d   1     -49.554  12.927  22.995  0.00  0.00     0.096 A 
ATOM      4  C   UNL d   1     -50.326  12.991  21.797  0.00  0.00     0.092 A 
ATOM      5  C   UNL d   1     -49.340  11.972  21.970  0.00  0.00     0.008 A 
ATOM      6  C   UNL d   1     -49.926  12.332  21.512  0.00  0.00     0.020 A 
ENDROOT
BRANCH   2   7
ATOM      7  C   UNL d   1     -48.568  11.906  23.164  0.00  0.00     0.281 C 
ATOM      8  N   UNL d   1     -47.782  12.149  23.110  0.00  0.00    -0.204 NA
ATOM      9  O   UNL d   1     -48.778  11.285  23.678  0.00  0.00    -0.265 OA
BRANCH   8  10
ATOM     10  C   UNL d   1     -47.579  12.763  22.600  0.00  0.00     0.127 C 
BRANCH  10  11
ATOM     11  C   UNL d   1     -46.811  13.068  22.611  0.00  0.00     0.119 A 
ATOM     12  O   UNL d   1     -46.118  12.627  22.695  0.00  0.00    -0.304 OA
ATOM     13  C   UNL d   1     -45.480  13.151  22.676  0.00  0.00     0.123 A 
ATOM     14  C   UNL d   1     -45.783  13.914  22.580  0.00  0.00     0.029 A 
ATOM     15  C   UNL d   1     -46.604  13.855  22.541  0.00  0.00     0.028 A 
ENDBRANCH  10  11
ENDBRANCH   8  10
ENDBRANCH   2   7
BRANCH   1  16
ATOM     16  S   UNL d   1     -50.543  13.954  22.831  0.00  0.00     0.272 S 
ATOM     17  O   UNL d   1     -50.122  14.433  22.334  0.00  0.00    -0.200 OA
ATOM     18  O   UNL d   1     -50.971  13.456  23.339  0.00  0.00    -0.200 OA
BRANCH  16  19
ATOM     19  C   UNL d   1     -50.938  14.623  23.119  0.00  0.00     0.116 C 
BRANCH  19  20
ATOM     20  C   UNL d   1     -50.555  15.355  23.164  0.00  0.00     0.014 C 
ATOM     21  C   UNL d   1     -50.823  15.922  23.698  0.00  0.00     0.001 C 
ENDBRANCH  19  20
ENDBRANCH  16  19
ENDBRANCH   1  16
TORSDOF 6
ENDMDL
MODEL 2
REMARK VINA RESULT:      -6.5      1.346      3.993
REMARK  6 active torsions:
REMARK  status: ('A' for Active; 'I' for Inactive)
REMARK    1  A    between atoms: N_2  and  S_1 
REMARK    2  A    between atoms: C_16  and  S_1 
REMARK    3  A    between atoms: C_4  and  C_3 
REMARK       I    between atoms: N_6  and  C_4 
REMARK    4  A    between atoms: C_15  and  N_6 
REMARK    5  A    between atoms: C_9  and  C_15 
REMARK    6  A    between atoms: C_20  and  C_16 
ROOT
ATOM      1  N   UNL d   1     -47.369  12.669  22.866  0.00  0.00    -0.229 N 
ATOM      2  C   UNL d   1     -48.738  12.680  22.469  0.00  0.00     0.076 A 
ATOM      3  C   UNL d   1     -47.983  12.985  22.410  0.00  0.00     0.096 A 
ATOM      4  C   UNL d   1     -47.514  12.050  23.379  0.00  0.00     0.092 A 
ATOM      5  C   UNL d   1     -48.887  12.058  22.984  0.00  0.00     0.008 A 
ATOM      6  C   UNL d   1     -48.274  11.742  23.440  0.00  0.00     0.020 A 
ENDROOT
BRANCH   2   7
ATOM      7  C   UNL d   1     -49.357  12.990  22.017  0.00  0.00     0.281 C 
ATOM      8  N   UNL d   1     -49.818  13.611  22.302  0.00  0.00    -0.204 NA
ATOM      9  O   UNL d   1     -49.512  12.666  21.265  0.00  0.00    -0.265 OA
BRANCH   8  10
ATOM     10  C   UNL d   1     -49.660  13.928  23.046  0.00  0.00     0.127 C 
BRANCH  10  11
ATOM     11  C   UNL d   1     -50.063  14.604  23.298  0.00  0.00     0.119 A 
ATOM     12  O   UNL d   1     -50.872  14.650  23.460  0.00  0.00    -0.304 OA
ATOM     13  C   UNL d   1     -51.039  15.425  23.694  0.00  0.00     0.123 A 
ATOM     14  C   UNL d   1     -50.332  15.853  23.675  0.00  0.00     0.029 A 
ATOM     15  C   UNL d   1     -49.735  15.340  23.430  0.00  0.00     0.028 A 
ENDBRANCH  10  11
ENDBRANCH   8  10
ENDBRANCH   2   7
BRANCH   1  16
ATOM     16  S   UNL d   1     -46.602  12.985  22.800  0.00  0.00     0.272 S 
ATOM     17  O   UNL d   1     -46.713  13.407  23.481  0.00  0.00    -0.200 OA
ATOM     18  O   UNL d   1     -46.496  12.549  22.102  0.00  0.00    -0.200 OA
BRANCH  16  19
ATOM     19  C   UNL d   1     -45.840  13.304  22.742  0.00  0.00     0.116 C 
BRANCH  19  20
ATOM     20  C   UNL d   1     -45.270  12.955  22.254  0.00  0.00     0.014 C 
ATOM     21  C   UNL d   1     -44.560  13.346  22.111  0.00  0.00     0.001 C 
ENDBRANCH  19  20
ENDBRANCH  16  19
ENDBRANCH   1  16
TORSDOF 6
ENDMDL
MODEL 3
REMARK VINA RESULT:      -6.4      1.649      2.821
REMARK  6 active torsions:
REMARK  status: ('A' for Active; 'I' for Inactive)
REMARK    1  A    between atoms: N_2  and  S_1 
REMARK    2  A    between atoms: C_16  and  S_1 
REMARK    3  A    between atoms: C_4  and  C_3 
REMARK       I    between atoms: N_6  and  C_4 
REMARK    4  A    between atoms: C_15  and  N_6 
REMARK    5  A    between atoms: C_9  and  C_15 
REMARK    6  A    between atoms: C_20  and  C_16 
ROOT
ATOM      1  N   UNL d   1     -48.023  12.437  22.729  0.00  0.00    -0.229 N 
ATOM      2  C   UNL d   1     -46.804  13.103  23.048  0.00  0.00     0.076 A 
ATOM      3  C   UNL d   1     -47.499  13.067  22.620  0.00  0.00     0.096 A 
ATOM      4  C   UNL d   1     -47.850  11.846  23.267  0.00  0.00     0.092 A 
ATOM      5  C   UNL d   1     -46.627  12.510  23.588  0.00  0.00     0.008 A 
ATOM      6  C   UNL d   1     -47.152  11.880  23.698  0.00  0.00     0.020 A 
ENDROOT
BRANCH   2   7
ATOM      7  C   UNL d   1     -46.274  13.729  22.945  0.00  0.00     0.281 C 
ATOM      8  N   UNL d   1     -45.540  13.607  22.591  0.00  0.00    -0.204 NA
ATOM      9  O   UNL d   1     -46.491  14.491  23.203  0.00  0.00    -0.265 OA
BRANCH   8  10
ATOM     10  C   UNL d   1     -45.331  12.851  22.337  0.00  0.00     0.127 C 
BRANCH  10  11
ATOM     11  C   UNL d   1     -44.576  12.717  22.027  0.00  0.00     0.119 A 
ATOM     12  O   UNL d   1     -44.044  12.142  22.287  0.00  0.00    -0.304 OA
ATOM     13  C   UNL d   1     -43.361  12.202  21.827  0.00  0.00     0.123 A 
ATOM     14  C   UNL d   1     -43.476  12.814  21.284  0.00  0.00     0.029 A 
ATOM     15  C   UNL d   1     -44.227  13.127  21.414  0.00  0.00     0.028 A 
ENDBRANCH  10  11
ENDBRANCH   8  10
ENDBRANCH   2   7
BRANCH   1  16
ATOM     16  S   UNL d   1     -48.729  12.407  22.290  0.00  0.00     0.272 S 
ATOM     17  O   UNL d   1     -48.331  12.086  21.664  0.00  0.00    -0.200 OA
ATOM     18  O   UNL d   1     -49.131  12.738  22.937  0.00  0.00    -0.200 OA
BRANCH  16  19
ATOM     19  C   UNL d   1     -49.428  12.374  21.846  0.00  0.00     0.116 C 
BRANCH  19  20
ATOM     20  C   UNL d   1     -49.928  13.032  21.794  0.00  0.00     0.014 C 
ATOM     21  C   UNL d   1     -50.662  12.957  21.427  0.00  0.00     0.001 C 
ENDBRANCH  19  20
ENDBRANCH  16  19
ENDBRANCH   1  16
TORSDOF 6
ENDMDL
MODEL 4
REMARK VINA RESULT:      -5.8      1.566      2.152
REMARK  6 active torsions:
REMARK  status: ('A' for Active; 'I' for Inactive)
REMARK    1  A    between atoms: N_2  and  S_1 
REMARK    2  A    between atoms: C_16  and  S_1 
REMARK    3  A    between atoms: C_4  and  C_3 
REMARK       I    between atoms: N_6  and  C_4 
REMARK    4  A    between atoms: C_15  and  N_6 
REMARK    5  A    between atoms: C_9  and  C_15 
REMARK    6  A    between atoms: C_20  and  C_16 
ROOT
ATOM      1  N   UNL d   1     -48.668  13.973  22.677  0.00  0.00    -0.229 N 
ATOM      2  C   UNL d   1     -47.293  13.616  22.557  0.00  0.00     0.076 A 
ATOM      3  C   UNL d   1     -47.891  13.998  22.961  0.00  0.00     0.096 A 
ATOM      4  C   UNL d   1     -48.842  13.565  21.990  0.00  0.00     0.092 A 
ATOM      5  C   UNL d   1     -47.465  13.205  21.867  0.00  0.00     0.008 A 
ATOM      6  C   UNL d   1     -48.242  13.179  21.583  0.00  0.00     0.020 A 
ENDROOT
BRANCH   2   7
ATOM      7  C   UNL d   1     -46.514  13.636  22.834  0.00  0.00     0.281 C 
ATOM      8  N   UNL d   1     -46.163  12.963  23.154  0.00  0.00    -0.204 NA
ATOM      9  O   UNL d   1     -46.085  14.349  22.787  0.00  0.00    -0.265 OA
BRANCH   8  10
ATOM     10  C   UNL d   1     -46.591  12.261  23.199  0.00  0.00     0.127 C 
BRANCH  10  11
ATOM     11  C   UNL d   1     -46.205  11.555  23.387  0.00  0.00     0.119 A 
ATOM     12  O   UNL d   1     -46.570  10.830  23.533  0.00  0.00    -0.304 OA
ATOM     13  C   UNL d   1     -45.979  10.276  23.698  0.00  0.00     0.123 A 
ATOM     14  C   UNL d   1     -45.251  10.665  23.652  0.00  0.00     0.029 A 
ATOM     15  C   UNL d   1     -45.398  11.452  23.460  0.00  0.00     0.028 A 
ENDBRANCH  10  11
ENDBRANCH   8  10
ENDBRANCH   2   7
BRANCH   1  16
ATOM     16  S   UNL d   1     -49.272  14.365  23.094  0.00  0.00     0.272 S 
ATOM     17  O   UNL d   1     -49.195  15.007  22.610  0.00  0.00    -0.200 OA
ATOM     18  O   UNL d   1     -49.345  13.701  23.587  0.00  0.00    -0.200 OA
BRANCH  16  19
ATOM     19  C   UNL d   1     -49.873  14.762  23.504  0.00  0.00     0.116 C 
BRANCH  19  20
ATOM     20  C   UNL d   1     -50.027  15.562  23.359  0.00  0.00     0.014 C 
ATOM     21  C   UNL d   1     -50.700  15.911  23.679  0.00  0.00     0.001 C 
ENDBRANCH  19  20
ENDBRANCH  16  19
ENDBRANCH   1  16
TORSDOF 6
ENDMDL
MODEL 5
REMARK VINA RESULT:      -5.8      1.902      4.482
REMARK  6 active torsions:
REMARK  status: ('A' for Active; 'I' for Inactive)
REMARK    1  A    between atoms: N_2  and  S_1 
REMARK    2  A    between atoms: C_16  and  S_1 
REMARK    3  A    between atoms: C_4  and  C_3 
REMARK       I    between atoms: N_6  and  C_4 
REMARK    4  A    between atoms: C_15  and  N_6 
REMARK    5  A    between atoms: C_9  and  C_15 
REMARK    6  A    between atoms: C_20  and  C_16 
ROOT
ATOM      1  N   UNL d   1     -46.073  12.923  22.679  0.00  0.00    -0.229 N 
ATOM      2  C   UNL d   1     -47.231  12.265  23.186  0.00  0.00     0.076 A 
ATOM      3  C   UNL d   1     -46.591  12.278  22.679  0.00  0.00     0.096 A 
ATOM      4  C   UNL d   1     -46.198  13.551  23.187  0.00  0.00     0.092 A 
ATOM      5  C   UNL d   1     -47.359  12.894  23.697  0.00  0.00     0.008 A 
ATOM      6  C   UNL d   1     -46.841  13.539  23.698  0.00  0.00     0.020 A 
ENDROOT
BRANCH   2   7
ATOM      7  C   UNL d   1     -47.754  11.624  23.192  0.00  0.00     0.281 C 
ATOM      8  N   UNL d   1     -48.509  11.693  22.869  0.00  0.00    -0.204 NA
ATOM      9  O   UNL d   1     -47.508  10.902  23.528  0.00  0.00    -0.265 OA
BRANCH   8  10
ATOM     10  C   UNL d   1     -48.747  12.408  22.538  0.00  0.00     0.127 C 
BRANCH  10  11
ATOM     11  C   UNL d   1     -49.525  12.499  22.273  0.00  0.00     0.119 A 
ATOM     12  O   UNL d   1     -50.203  12.443  22.741  0.00  0.00    -0.304 OA
ATOM     13  C   UNL d   1     -50.858  12.570  22.254  0.00  0.00     0.123 A 
ATOM     14  C   UNL d   1     -50.580  12.704  21.487  0.00  0.00     0.029 A 
ATOM     15  C   UNL d   1     -49.757  12.659  21.506  0.00  0.00     0.028 A 
ENDBRANCH  10  11
ENDBRANCH   8  10
ENDBRANCH   2   7
BRANCH   1  16
ATOM     16  S   UNL d   1     -45.422  12.930  22.160  0.00  0.00     0.272 S 
ATOM     17  O   UNL d   1     -44.998  12.478  22.679  0.00  0.00    -0.200 OA
ATOM     18  O   UNL d   1     -45.865  13.394  21.633  0.00  0.00    -0.200 OA
BRANCH  16  19
ATOM     19  C   UNL d   1     -44.771  12.932  21.649  0.00  0.00     0.116 C 
BRANCH  19  20
ATOM     20  C   UNL d   1     -44.027  12.679  21.909  0.00  0.00     0.014 C 
ATOM     21  C   UNL d   1     -43.386  12.702  21.393  0.00  0.00     0.001 C 
ENDBRANCH  19  20
ENDBRANCH  16  19
ENDBRANCH   1  16
TORSDOF 6
ENDMDL
MODEL 6
REMARK VINA RESULT:      -5.4      8.444     10.001
REMARK  6 active torsions:
REMARK  status: ('A' for Active; 'I' for Inactive)
REMARK    1  A    between atoms: N_2  and  S_1 
REMARK    2  A    between atoms: C_16  and  S_1 
REMARK    3  A    between atoms: C_4  and  C_3 
REMARK       I    between atoms: N_6  and  C_4 
REMARK    4  A    between atoms: C_15  and  N_6 
REMARK    5  A    between atoms: C_9  and  C_15 
REMARK    6  A    between atoms: C_20  and  C_16 
ROOT
ATOM      1  N   UNL d   1     -40.157  14.649  18.874  0.00  0.00    -0.229 N 
ATOM      2  C   UNL d   1     -40.716  14.665  20.185  0.00  0.00     0.076 A 
ATOM      3  C   UNL d   1     -40.421  14.248  19.547  0.00  0.00     0.096 A 
ATOM      4  C   UNL d   1     -40.189  15.465  18.841  0.00  0.00     0.092 A 
ATOM      5  C   UNL d   1     -40.749  15.485  20.155  0.00  0.00     0.008 A 
ATOM      6  C   UNL d   1     -40.486  15.886  19.482  0.00  0.00     0.020 A 
ENDROOT
BRANCH   2   7
ATOM      7  C   UNL d   1     -40.981  14.272  20.862  0.00  0.00     0.281 C 
ATOM      8  N   UNL d   1     -40.463  14.097  21.479  0.00  0.00    -0.204 NA
ATOM      9  O   UNL d   1     -41.783  14.052  20.916  0.00  0.00    -0.265 OA
BRANCH   8  10
ATOM     10  C   UNL d   1     -39.672  14.317  21.422  0.00  0.00     0.127 C 
BRANCH  10  11
ATOM     11  C   UNL d   1     -39.150  14.135  22.036  0.00  0.00     0.119 A 
ATOM     12  O   UNL d   1     -38.996  14.610  22.694  0.00  0.00    -0.304 OA
ATOM     13  C   UNL d   1     -38.442  14.217  23.165  0.00  0.00     0.123 A 
ATOM     14  C   UNL d   1     -38.258  13.502  22.795  0.00  0.00     0.029 A 
ATOM     15  C   UNL d   1     -38.698  13.458  22.100  0.00  0.00     0.028 A 
ENDBRANCH  10  11
ENDBRANCH   8  10
ENDBRANCH   2   7
BRANCH   1  16
ATOM     16  S   UNL d   1     -39.858  14.217  18.228  0.00  0.00     0.272 S 
ATOM     17  O   UNL d   1     -40.603  13.960  18.050  0.00  0.00    -0.200 OA
ATOM     18  O   UNL d   1     -39.096  14.486  18.418  0.00  0.00    -0.200 OA
BRANCH  16  19
ATOM     19  C   UNL d   1     -39.568  13.785  17.584  0.00  0.00     0.116 C 
BRANCH  19  20
ATOM     20  C   UNL d   1     -38.824  13.423  17.616  0.00  0.00     0.014 C 
ATOM     21  C   UNL d   1     -38.561  12.975  16.977  0.00  0.00     0.001 C 
ENDBRANCH  19  20
ENDBRANCH  16  19
ENDBRANCH   1  16
TORSDOF 6
ENDMDL
MODEL 7
REMARK VINA RESULT:      -5.1      9.334     10.500
REMARK  6 active torsions:
REMARK  status: ('A' for Active; 'I' for Inactive)
REMARK    1  A    between atoms: N_2  and  S_1 
REMARK    2  A    between atoms: C_16  and  S_1 
REMARK    3  A    between atoms: C_4  and  C_3 
REMARK       I    between atoms: N_6  and  C_4 
REMARK    4  A    between atoms: C_15  and  N_6 
REMARK    5  A    between atoms: C_9  and  C_15 
REMARK    6  A    between atoms: C_20  and  C_16 
ROOT
ATOM      1  N   UNL d   1     -39.839  14.905  20.447  0.00  0.00    -0.229 N 
ATOM      2  C   UNL d   1     -40.379  14.768  19.136  0.00  0.00     0.076 A 
ATOM      3  C   UNL d   1     -39.914  14.480  19.742  0.00  0.00     0.096 A 
ATOM      4  C   UNL d   1     -40.229  15.618  20.542  0.00  0.00     0.092 A 
ATOM      5  C   UNL d   1     -40.772  15.484  19.228  0.00  0.00     0.008 A 
ATOM      6  C   UNL d   1     -40.697  15.909  19.933  0.00  0.00     0.020 A 
ENDROOT
BRANCH   2   7
ATOM      7  C   UNL d   1     -40.459  14.349  18.427  0.00  0.00     0.281 C 
ATOM      8  N   UNL d   1     -40.000  14.540  17.770  0.00  0.00    -0.204 NA
ATOM      9  O   UNL d   1     -41.013  13.728  18.384  0.00  0.00    -0.265 OA
BRANCH   8  10
ATOM     10  C   UNL d   1     -39.454  15.155  17.818  0.00  0.00     0.127 C 
BRANCH  10  11
ATOM     11  C   UNL d   1     -38.960  15.316  17.176  0.00  0.00     0.119 A 
ATOM     12  O   UNL d   1     -39.047  15.012  16.413  0.00  0.00    -0.304 OA
ATOM     13  C   UNL d   1     -38.436  15.316  15.948  0.00  0.00     0.123 A 
ATOM     14  C   UNL d   1     -37.974  15.806  16.427  0.00  0.00     0.029 A 
ATOM     15  C   UNL d   1     -38.304  15.802  17.182  0.00  0.00     0.028 A 
ENDBRANCH  10  11
ENDBRANCH   8  10
ENDBRANCH   2   7
BRANCH   1  16
ATOM     16  S   UNL d   1     -39.364  14.605  21.061  0.00  0.00     0.272 S 
ATOM     17  O   UNL d   1     -39.936  14.064  21.245  0.00  0.00    -0.200 OA
ATOM     18  O   UNL d   1     -38.781  15.164  20.866  0.00  0.00    -0.200 OA
BRANCH  16  19
ATOM     19  C   UNL d   1     -38.897  14.301  21.674  0.00  0.00     0.116 C 
BRANCH  19  20
ATOM     20  C   UNL d   1     -39.213  13.769  22.224  0.00  0.00     0.014 C 
ATOM     21  C   UNL d   1     -38.734  13.469  22.822  0.00  0.00     0.001 C 
ENDBRANCH  19  20
ENDBRANCH  16  19
ENDBRANCH   1  16
TORSDOF 6
ENDMDL
MODEL 8
REMARK VINA RESULT:      -4.2      9.795     11.329
REMARK  6 active torsions:
REMARK  status: ('A' for Active; 'I' for Inactive)
REMARK    1  A    between atoms: N_2  and  S_1 
REMARK    2  A    between atoms: C_16  and  S_1 
REMARK    3  A    between atoms: C_4  and  C_3 
REMARK       I    between atoms: N_6  and  C_4 
REMARK    4  A    between atoms: C_15  and  N_6 
REMARK    5  A    between atoms: C_9  and  C_15 
REMARK    6  A    between atoms: C_20  and  C_16 
ROOT
ATOM      1  N   UNL d   1     -38.702  14.155  17.156  0.00  0.00    -0.229 N 
ATOM      2  C   UNL d   1     -39.713  14.163  18.160  0.00  0.00     0.076 A 
ATOM      3  C   UNL d   1     -39.351  14.517  17.519  0.00  0.00     0.096 A 
ATOM      4  C   UNL d   1     -38.417  13.442  17.436  0.00  0.00     0.092 A 
ATOM      5  C   UNL d   1     -39.430  13.446  18.444  0.00  0.00     0.008 A 
ATOM      6  C   UNL d   1     -38.781  13.085  18.081  0.00  0.00     0.020 A 
ENDROOT
BRANCH   2   7
ATOM      7  C   UNL d   1     -40.363  14.518  18.528  0.00  0.00     0.281 C 
ATOM      8  N   UNL d   1     -40.274  14.926  19.239  0.00  0.00    -0.204 NA
ATOM      9  O   UNL d   1     -41.114  14.458  18.173  0.00  0.00    -0.265 OA
BRANCH   8  10
ATOM     10  C   UNL d   1     -39.529  14.982  19.587  0.00  0.00     0.127 C 
BRANCH  10  11
ATOM     11  C   UNL d   1     -39.447  15.351  20.321  0.00  0.00     0.119 A 
ATOM     12  O   UNL d   1     -40.065  15.567  20.824  0.00  0.00    -0.304 OA
ATOM     13  C   UNL d   1     -39.735  15.918  21.496  0.00  0.00     0.123 A 
ATOM     14  C   UNL d   1     -38.913  15.916  21.403  0.00  0.00     0.029 A 
ATOM     15  C   UNL d   1     -38.743  15.565  20.677  0.00  0.00     0.028 A 
ENDBRANCH  10  11
ENDBRANCH   8  10
ENDBRANCH   2   7
BRANCH   1  16
ATOM     16  S   UNL d   1     -38.338  14.522  16.503  0.00  0.00     0.272 S 
ATOM     17  O   UNL d   1     -38.601  13.930  16.019  0.00  0.00    -0.200 OA
ATOM     18  O   UNL d   1     -38.071  15.125  17.007  0.00  0.00    -0.200 OA
BRANCH  16  19
ATOM     19  C   UNL d   1     -37.978  14.880  15.849  0.00  0.00     0.116 C 
BRANCH  19  20
ATOM     20  C   UNL d   1     -38.301  15.561  15.508  0.00  0.00     0.014 C 
ATOM     21  C   UNL d   1     -37.940  15.898  14.849  0.00  0.00     0.001 C 
ENDBRANCH  19  20
ENDBRANCH  16  19
ENDBRANCH   1  16
TORSDOF 6
ENDMDL
MODEL 9
REMARK VINA RESULT:      -4.1      1.830      4.443
REMARK  6 active torsions:
REMARK  status: ('A' for Active; 'I' for Inactive)
REMARK    1  A    between atoms: N_2  and  S_1 
REMARK    2  A    between atoms: C_16  and  S_1 
REMARK    3  A    between atoms: C_4  and  C_3 
REMARK       I    between atoms: N_6  and  C_4 
REMARK    4  A    between atoms: C_15  and  N_6 
REMARK    5  A    between atoms: C_9  and  C_15 
REMARK    6  A    between atoms: C_20  and  C_16 
ROOT
ATOM      1  N   UNL d   1     -46.515  12.547  22.711  0.00  0.00    -0.229 N 
ATOM      2  C   UNL d   1     -47.332  13.711  22.612  0.00  0.00     0.076 A 
ATOM      3  C   UNL d   1     -46.948  13.153  23.070  0.00  0.00     0.096 A 
ATOM      4  C   UNL d   1     -46.468  12.501  21.896  0.00  0.00     0.092 A 
ATOM      5  C   UNL d   1     -47.287  13.667  21.794  0.00  0.00     0.008 A 
ATOM      6  C   UNL d   1     -46.854  13.061  21.434  0.00  0.00     0.020 A 
ENDROOT
BRANCH   2   7
ATOM      7  C   UNL d   1     -47.767  14.320  22.964  0.00  0.00     0.281 C 
ATOM      8  N   UNL d   1     -48.572  14.229  23.117  0.00  0.00    -0.204 NA
ATOM      9  O   UNL d   1     -47.382  15.032  23.162  0.00  0.00    -0.265 OA
BRANCH   8  10
ATOM     10  C   UNL d   1     -48.948  13.524  22.918  0.00  0.00     0.127 C 
BRANCH  10  11
ATOM     11  C   UNL d   1     -49.773  13.478  22.943  0.00  0.00     0.119 A 
ATOM     12  O   UNL d   1     -50.295  13.947  22.508  0.00  0.00    -0.304 OA
ATOM     13  C   UNL d   1     -51.064  13.716  22.701  0.00  0.00     0.123 A 
ATOM     14  C   UNL d   1     -51.013  13.104  23.255  0.00  0.00     0.029 A 
ATOM     15  C   UNL d   1     -50.213  12.963  23.399  0.00  0.00     0.028 A 
ENDBRANCH  10  11
ENDBRANCH   8  10
ENDBRANCH   2   7
BRANCH   1  16
ATOM     16  S   UNL d   1     -46.126  11.983  23.183  0.00  0.00     0.272 S 
ATOM     17  O   UNL d   1     -45.410  12.283  22.959  0.00  0.00    -0.200 OA
ATOM     18  O   UNL d   1     -46.866  11.680  23.408  0.00  0.00    -0.200 OA
BRANCH  16  19
ATOM     19  C   UNL d   1     -45.732  11.424  23.651  0.00  0.00     0.116 C 
BRANCH  19  20
ATOM     20  C   UNL d   1     -45.441  10.724  23.320  0.00  0.00     0.014 C 
ATOM     21  C   UNL d   1     -44.834  10.316  23.697  0.00  0.00     0.001 C 
ENDBRANCH  19  20
ENDBRANCH  16  19
ENDBRANCH   1  16
TORSDOF 6
ENDMDL
