MODEL 1
REMARK VINA RESULT:      -2.2      0.000      0.000
REMARK  6 active torsions:
REMARK  status: ('A' for Active; 'I' for Inactive)
REMARK    1  A    between atoms: C_5  and  C_1 
REMARK    2  A    between atoms: N_4  and  C_2 
REMARK       I    between atoms: C_3  and  N_4 
REMARK    3  A    between atoms: C_10  and  C_3 
REMARK    4  A    between atoms: O_15  and  C_5 
REMARK    5  A    between atoms: C_6  and  C_7 
REMARK    6  A    between atoms: O_16  and  C_6 
ROOT
ATOM      1  C   UNL d   1      32.552  22.959 -21.086  0.00  0.00     0.093 A 
ATOM      2  C   UNL d   1      32.857  22.255 -20.781  0.00  0.00     0.140 A 
ATOM      3  C   UNL d   1      32.933  22.850 -19.484  0.00  0.00     0.066 A 
ATOM      4  C   UNL d   1      33.047  22.201 -19.978  0.00  0.00     0.038 A 
ATOM      5  C   UNL d   1      32.439  23.609 -20.587  0.00  0.00     0.008 A 
ATOM      6  C   UNL d   1      32.629  23.553 -19.789  0.00  0.00     0.006 A 
ENDROOT
BRANCH   2   7
ATOM      7  N   UNL d   1      32.972  21.603 -21.274  0.00  0.00    -0.368 NA
ATOM      8  C   UNL d   1      33.087  20.957 -21.764  0.00  0.00     0.303 C 
ATOM      9  O   UNL d   1      33.192  21.062 -22.574  0.00  0.00    -0.256 OA
BRANCH   8  10
ATOM     10  C   UNL d   1      33.098  20.196 -21.442  0.00  0.00     0.085 C 
ATOM     11  C   UNL d   1      32.975  20.073 -20.634  0.00  0.00     0.011 C 
ATOM     12  C   UNL d   1      33.240  20.088 -22.249  0.00  0.00     0.011 C 
ATOM     13  C   UNL d   1      33.234  19.543 -21.931  0.00  0.00     0.011 C 
ENDBRANCH   8  10
ENDBRANCH   2   7
BRANCH   1  14
ATOM     14  C   UNL d   1      32.362  23.014 -21.884  0.00  0.00     0.298 C 
ATOM     15  O   UNL d   1      31.696  22.626 -22.178  0.00  0.00    -0.259 OA
BRANCH  14  16
ATOM     16  O   UNL d   1      32.838  23.457 -22.390  0.00  0.00    -0.296 OA
ATOM     17  C   UNL d   1      32.548  23.701 -23.129  0.00  0.00     0.185 C 
ENDBRANCH  14  16
ENDBRANCH   1  14
BRANCH   3  18
ATOM     18  C   UNL d   1      33.124  22.794 -18.684  0.00  0.00     0.296 C 
ATOM     19  O   UNL d   1      33.241  22.055 -18.338  0.00  0.00    -0.259 OA
BRANCH  18  20
ATOM     20  O   UNL d   1      33.198  23.482 -18.225  0.00  0.00    -0.296 OA
ATOM     21  C   UNL d   1      32.942  23.486 -17.443  0.00  0.00     0.185 C 
ENDBRANCH  18  20
ENDBRANCH   3  18
TORSDOF 6
ENDMDL
MODEL 2
REMARK VINA RESULT:      -2.0      4.968      6.938
REMARK  6 active torsions:
REMARK  status: ('A' for Active; 'I' for Inactive)
REMARK    1  A    between atoms: C_5  and  C_1 
REMARK    2  A    between atoms: N_4  and  C_2 
REMARK       I    between atoms: C_3  and  N_4 
REMARK    3  A    between atoms: C_10  and  C_3 
REMARK    4  A    between atoms: O_15  and  C_5 
REMARK    5  A    between atoms: C_6  and  C_7 
REMARK    6  A    between atoms: O_16  and  C_6 
ROOT
ATOM      1  C   UNL d   1      31.286  17.921 -24.569  0.00  0.00     0.093 A 
ATOM      2  C   UNL d   1      31.184  17.118 -24.408  0.00  0.00     0.140 A 
ATOM      3  C   UNL d   1      29.785  17.243 -24.670  0.00  0.00     0.066 A 
ATOM      4  C   UNL d   1      30.431  16.779 -24.459  0.00  0.00     0.038 A 
ATOM      5  C   UNL d   1      30.635  18.385 -24.781  0.00  0.00     0.008 A 
ATOM      6  C   UNL d   1      29.887  18.046 -24.831  0.00  0.00     0.006 A 
ENDROOT
BRANCH   2   7
ATOM      7  N   UNL d   1      31.830  16.650 -24.196  0.00  0.00    -0.368 NA
ATOM      8  C   UNL d   1      32.472  16.187 -23.987  0.00  0.00     0.303 C 
ATOM      9  O   UNL d   1      33.153  16.185 -24.450  0.00  0.00    -0.256 OA
BRANCH   8  10
ATOM     10  C   UNL d   1      32.434  15.718 -23.307  0.00  0.00     0.085 C 
ATOM     11  C   UNL d   1      31.708  15.508 -22.974  0.00  0.00     0.011 C 
ATOM     12  C   UNL d   1      33.241  15.804 -23.462  0.00  0.00     0.011 C 
ATOM     13  C   UNL d   1      33.131  15.453 -22.949  0.00  0.00     0.011 C 
ENDBRANCH   8  10
ENDBRANCH   2   7
BRANCH   1  14
ATOM     14  C   UNL d   1      32.034  18.260 -24.518  0.00  0.00     0.298 C 
ATOM     15  O   UNL d   1      32.601  18.098 -25.096  0.00  0.00    -0.259 OA
BRANCH  14  16
ATOM     16  O   UNL d   1      32.217  18.760 -23.890  0.00  0.00    -0.296 OA
ATOM     17  C   UNL d   1      32.822  19.324 -23.967  0.00  0.00     0.185 C 
ENDBRANCH  14  16
ENDBRANCH   1  14
BRANCH   3  18
ATOM     18  C   UNL d   1      29.036  16.904 -24.721  0.00  0.00     0.296 C 
ATOM     19  O   UNL d   1      28.413  17.326 -25.058  0.00  0.00    -0.259 OA
BRANCH  18  20
ATOM     20  O   UNL d   1      28.906  16.135 -24.432  0.00  0.00    -0.296 OA
ATOM     21  C   UNL d   1      28.258  15.980 -23.949  0.00  0.00     0.185 C 
ENDBRANCH  18  20
ENDBRANCH   3  18
TORSDOF 6
ENDMDL
MODEL 3
REMARK VINA RESULT:      -1.0      1.554      3.074
REMARK  6 active torsions:
REMARK  status: ('A' for Active; 'I' for Inactive)
REMARK    1  A    between atoms: C_5  and  C_1 
REMARK    2  A    between atoms: N_4  and  C_2 
REMARK       I    between atoms: C_3  and  N_4 
REMARK    3  A    between atoms: C_10  and  C_3 
REMARK    4  A    between atoms: O_15  and  C_5 
REMARK    5  A    between atoms: C_6  and  C_7 
REMARK    6  A    between atoms: O_16  and  C_6 
ROOT
ATOM      1  C   UNL d   1      32.628  20.416 -22.135  0.00  0.00     0.093 A 
ATOM      2  C   UNL d   1      32.801  21.176 -22.405  0.00  0.00     0.140 A 
ATOM      3  C   UNL d   1      32.664  21.678 -21.074  0.00  0.00     0.066 A 
ATOM      4  C   UNL d   1      32.819  21.809 -21.872  0.00  0.00     0.038 A 
ATOM      5  C   UNL d   1      32.473  20.288 -21.333  0.00  0.00     0.008 A 
ATOM      6  C   UNL d   1      32.491  20.918 -20.805  0.00  0.00     0.006 A 
ENDROOT
BRANCH   2   7
ATOM      7  N   UNL d   1      32.957  21.310 -23.204  0.00  0.00    -0.368 NA
ATOM      8  C   UNL d   1      33.112  21.441 -23.998  0.00  0.00     0.303 C 
ATOM      9  O   UNL d   1      33.241  20.807 -24.507  0.00  0.00    -0.256 OA
BRANCH   8  10
ATOM     10  C   UNL d   1      33.139  22.214 -24.287  0.00  0.00     0.085 C 
ATOM     11  C   UNL d   1      33.065  22.862 -23.779  0.00  0.00     0.011 C 
ATOM     12  C   UNL d   1      33.230  21.734 -24.953  0.00  0.00     0.011 C 
ATOM     13  C   UNL d   1      33.240  22.349 -25.097  0.00  0.00     0.011 C 
ENDBRANCH   8  10
ENDBRANCH   2   7
BRANCH   1  14
ATOM     14  C   UNL d   1      32.610  19.785 -22.664  0.00  0.00     0.298 C 
ATOM     15  O   UNL d   1      32.035  19.758 -23.255  0.00  0.00    -0.259 OA
BRANCH  14  16
ATOM     16  O   UNL d   1      33.167  19.182 -22.603  0.00  0.00    -0.296 OA
ATOM     17  C   UNL d   1      32.980  18.413 -22.856  0.00  0.00     0.185 C 
ENDBRANCH  14  16
ENDBRANCH   1  14
BRANCH   3  18
ATOM     18  C   UNL d   1      32.683  22.310 -20.545  0.00  0.00     0.296 C 
ATOM     19  O   UNL d   1      33.217  22.307 -19.917  0.00  0.00    -0.259 OA
BRANCH  18  20
ATOM     20  O   UNL d   1      32.163  22.951 -20.642  0.00  0.00    -0.296 OA
ATOM     21  C   UNL d   1      32.285  23.648 -20.224  0.00  0.00     0.185 C 
ENDBRANCH  18  20
ENDBRANCH   3  18
TORSDOF 6
ENDMDL
MODEL 4
REMARK VINA RESULT:       0.2      1.137      3.384
REMARK  6 active torsions:
REMARK  status: ('A' for Active; 'I' for Inactive)
REMARK    1  A    between atoms: C_5  and  C_1 
REMARK    2  A    between atoms: N_4  and  C_2 
REMARK       I    between atoms: C_3  and  N_4 
REMARK    3  A    between atoms: C_10  and  C_3 
REMARK    4  A    between atoms: O_15  and  C_5 
REMARK    5  A    between atoms: C_6  and  C_7 
REMARK    6  A    between atoms: O_16  and  C_6 
ROOT
ATOM      1  C   UNL d   1      32.540  21.950 -22.258  0.00  0.00     0.093 A 
ATOM      2  C   UNL d   1      32.671  21.714 -21.479  0.00  0.00     0.140 A 
ATOM      3  C   UNL d   1      32.805  20.358 -21.912  0.00  0.00     0.066 A 
ATOM      4  C   UNL d   1      32.804  20.915 -21.306  0.00  0.00     0.038 A 
ATOM      5  C   UNL d   1      32.541  21.388 -22.865  0.00  0.00     0.008 A 
ATOM      6  C   UNL d   1      32.673  20.595 -22.691  0.00  0.00     0.006 A 
ENDROOT
BRANCH   2   7
ATOM      7  N   UNL d   1      32.671  22.269 -20.869  0.00  0.00    -0.368 NA
ATOM      8  C   UNL d   1      32.672  22.823 -20.265  0.00  0.00     0.303 C 
ATOM      9  O   UNL d   1      32.815  23.617 -20.428  0.00  0.00    -0.256 OA
BRANCH   8  10
ATOM     10  C   UNL d   1      32.528  22.580 -19.488  0.00  0.00     0.085 C 
ATOM     11  C   UNL d   1      31.854  22.142 -19.296  0.00  0.00     0.011 C 
ATOM     12  C   UNL d   1      33.240  22.996 -19.453  0.00  0.00     0.011 C 
ATOM     13  C   UNL d   1      33.063  22.777 -18.888  0.00  0.00     0.011 C 
ENDBRANCH   8  10
ENDBRANCH   2   7
BRANCH   1  14
ATOM     14  C   UNL d   1      32.408  22.743 -22.431  0.00  0.00     0.298 C 
ATOM     15  O   UNL d   1      31.702  23.104 -22.204  0.00  0.00    -0.259 OA
BRANCH  14  16
ATOM     16  O   UNL d   1      32.982  23.177 -22.833  0.00  0.00    -0.296 OA
ATOM     17  C   UNL d   1      32.884  23.355 -23.638  0.00  0.00     0.185 C 
ENDBRANCH  14  16
ENDBRANCH   1  14
BRANCH   3  18
ATOM     18  C   UNL d   1      32.937  19.564 -21.738  0.00  0.00     0.296 C 
ATOM     19  O   UNL d   1      33.156  19.339 -20.975  0.00  0.00    -0.259 OA
BRANCH  18  20
ATOM     20  O   UNL d   1      32.849  18.987 -22.330  0.00  0.00    -0.296 OA
ATOM     21  C   UNL d   1      33.241  18.266 -22.264  0.00  0.00     0.185 C 
ENDBRANCH  18  20
ENDBRANCH   3  18
TORSDOF 6
ENDMDL
MODEL 5
REMARK VINA RESULT:       0.4      6.624      7.449
REMARK  6 active torsions:
REMARK  status: ('A' for Active; 'I' for Inactive)
REMARK    1  A    between atoms: C_5  and  C_1 
REMARK    2  A    between atoms: N_4  and  C_2 
REMARK       I    between atoms: C_3  and  N_4 
REMARK    3  A    between atoms: C_10  and  C_3 
REMARK    4  A    between atoms: O_15  and  C_5 
REMARK    5  A    between atoms: C_6  and  C_7 
REMARK    6  A    between atoms: O_16  and  C_6 
ROOT
ATOM      1  C   UNL d   1      30.152  17.371 -24.751  0.00  0.00     0.093 A 
ATOM      2  C   UNL d   1      30.240  16.656 -24.350  0.00  0.00     0.140 A 
ATOM      3  C   UNL d   1      31.653  16.860 -24.294  0.00  0.00     0.066 A 
ATOM      4  C   UNL d   1      30.993  16.400 -24.121  0.00  0.00     0.038 A 
ATOM      5  C   UNL d   1      30.817  17.831 -24.923  0.00  0.00     0.008 A 
ATOM      6  C   UNL d   1      31.565  17.576 -24.695  0.00  0.00     0.006 A 
ENDROOT
BRANCH   2   7
ATOM      7  N   UNL d   1      29.580  16.192 -24.175  0.00  0.00    -0.368 NA
ATOM      8  C   UNL d   1      28.925  15.732 -24.003  0.00  0.00     0.303 C 
ATOM      9  O   UNL d   1      28.442  15.453 -24.609  0.00  0.00    -0.256 OA
BRANCH   8  10
ATOM     10  C   UNL d   1      28.749  15.547 -23.218  0.00  0.00     0.085 C 
ATOM     11  C   UNL d   1      29.350  15.454 -22.657  0.00  0.00     0.011 C 
ATOM     12  C   UNL d   1      28.016  15.593 -23.594  0.00  0.00     0.011 C 
ATOM     13  C   UNL d   1      27.962  15.453 -22.981  0.00  0.00     0.011 C 
ENDBRANCH   8  10
ENDBRANCH   2   7
BRANCH   1  14
ATOM     14  C   UNL d   1      29.404  17.627 -24.979  0.00  0.00     0.298 C 
ATOM     15  O   UNL d   1      28.799  17.079 -25.097  0.00  0.00    -0.259 OA
BRANCH  14  16
ATOM     16  O   UNL d   1      29.261  18.430 -25.089  0.00  0.00    -0.296 OA
ATOM     17  C   UNL d   1      28.483  18.722 -25.072  0.00  0.00     0.185 C 
ENDBRANCH  14  16
ENDBRANCH   1  14
BRANCH   3  18
ATOM     18  C   UNL d   1      32.402  16.604 -24.066  0.00  0.00     0.296 C 
ATOM     19  O   UNL d   1      33.072  16.880 -24.461  0.00  0.00    -0.259 OA
BRANCH  18  20
ATOM     20  O   UNL d   1      32.486  16.067 -23.437  0.00  0.00    -0.296 OA
ATOM     21  C   UNL d   1      33.142  15.572 -23.402  0.00  0.00     0.185 C 
ENDBRANCH  18  20
ENDBRANCH   3  18
TORSDOF 6
ENDMDL
