MODEL 1
REMARK VINA RESULT:      -3.3      0.000      0.000
REMARK  6 active torsions:
REMARK  status: ('A' for Active; 'I' for Inactive)
REMARK    1  A    between atoms: N_3  and  C_1 
REMARK       I    between atoms: C_7  and  N_3 
REMARK    2  A    between atoms: S_13  and  C_4 
REMARK    3  A    between atoms: C_20  and  C_7 
REMARK    4  A    between atoms: C_10  and  C_21 
REMARK       I    between atoms: N_12  and  C_10 
REMARK    5  A    between atoms: C_14  and  N_12 
REMARK    6  A    between atoms: C_21  and  S_13 
ROOT
ATOM      1  C   UNL d   1      32.483  18.316 -23.519  0.00  0.00     0.286 C 
ATOM      2  N   UNL d   1      32.354  18.131 -24.316  0.00  0.00    -0.207 NA
ATOM      3  O   UNL d   1      32.126  17.869 -22.923  0.00  0.00    -0.265 OA
ENDROOT
BRANCH   1   4
ATOM      4  C   UNL d   1      32.971  18.949 -23.329  0.00  0.00     0.100 C 
BRANCH   4   5
ATOM      5  S   UNL d   1      33.046  19.190 -22.539  0.00  0.00    -0.054 SA
BRANCH   5   6
ATOM      6  C   UNL d   1      33.109  19.994 -22.366  0.00  0.00     0.165 A 
ATOM      7  S   UNL d   1      33.134  20.322 -21.616  0.00  0.00    -0.019 SA
ATOM      8  C   UNL d   1      33.199  21.139 -21.687  0.00  0.00     0.219 A 
ATOM      9  N   UNL d   1      33.214  21.316 -22.495  0.00  0.00    -0.120 NA
ATOM     10  N   UNL d   1      33.159  20.610 -22.914  0.00  0.00    -0.133 NA
BRANCH   8  11
ATOM     11  N   UNL d   1      33.241  21.679 -21.062  0.00  0.00    -0.181 NA
ATOM     12  C   UNL d   1      32.618  22.212 -20.945  0.00  0.00     0.281 C 
ATOM     13  O   UNL d   1      31.967  22.203 -21.445  0.00  0.00    -0.265 OA
BRANCH  12  14
ATOM     14  C   UNL d   1      32.656  22.753 -20.322  0.00  0.00     0.058 C 
ATOM     15  C   UNL d   1      32.177  23.427 -20.338  0.00  0.00     0.005 C 
ATOM     16  C   UNL d   1      33.166  22.618 -19.696  0.00  0.00     0.005 C 
ENDBRANCH  12  14
ENDBRANCH   8  11
ENDBRANCH   5   6
ENDBRANCH   4   5
ENDBRANCH   1   4
BRANCH   2  17
ATOM     17  C   UNL d   1      31.864  17.494 -24.507  0.00  0.00     0.087 A 
ATOM     18  C   UNL d   1      31.047  17.602 -24.525  0.00  0.00     0.046 A 
ATOM     19  C   UNL d   1      30.553  16.978 -24.713  0.00  0.00     0.124 A 
ATOM     20  O   UNL d   1      29.733  17.088 -24.730  0.00  0.00    -0.301 OA
ATOM     21  C   UNL d   1      30.874  16.235 -24.888  0.00  0.00     0.123 A 
ATOM     22  C   UNL d   1      29.240  16.450 -24.923  0.00  0.00     0.149 A 
ATOM     23  C   UNL d   1      29.562  15.707 -25.097  0.00  0.00     0.149 A 
ATOM     24  O   UNL d   1      30.391  15.605 -25.077  0.00  0.00    -0.301 OA
ATOM     25  C   UNL d   1      31.694  16.130 -24.870  0.00  0.00     0.028 A 
ATOM     26  C   UNL d   1      32.189  16.760 -24.679  0.00  0.00     0.021 A 
ENDBRANCH   2  17
TORSDOF 6
ENDMDL
MODEL 2
REMARK VINA RESULT:      -2.6      1.174      6.489
REMARK  6 active torsions:
REMARK  status: ('A' for Active; 'I' for Inactive)
REMARK    1  A    between atoms: N_3  and  C_1 
REMARK       I    between atoms: C_7  and  N_3 
REMARK    2  A    between atoms: S_13  and  C_4 
REMARK    3  A    between atoms: C_20  and  C_7 
REMARK    4  A    between atoms: C_10  and  C_21 
REMARK       I    between atoms: N_12  and  C_10 
REMARK    5  A    between atoms: C_14  and  N_12 
REMARK    6  A    between atoms: C_21  and  S_13 
ROOT
ATOM      1  C   UNL d   1      32.956  20.847 -21.619  0.00  0.00     0.286 C 
ATOM      2  N   UNL d   1      32.906  21.660 -21.768  0.00  0.00    -0.207 NA
ATOM      3  O   UNL d   1      32.838  20.554 -20.855  0.00  0.00    -0.265 OA
ENDROOT
BRANCH   1   4
ATOM      4  C   UNL d   1      33.124  20.335 -22.239  0.00  0.00     0.100 C 
BRANCH   4   5
ATOM      5  S   UNL d   1      33.024  19.518 -22.139  0.00  0.00    -0.054 SA
BRANCH   5   6
ATOM      6  C   UNL d   1      33.004  19.029 -22.803  0.00  0.00     0.165 A 
ATOM      7  S   UNL d   1      32.763  18.247 -22.815  0.00  0.00    -0.019 SA
ATOM      8  C   UNL d   1      32.827  17.962 -23.583  0.00  0.00     0.219 A 
ATOM      9  N   UNL d   1      33.112  18.580 -24.053  0.00  0.00    -0.120 NA
ATOM     10  N   UNL d   1      33.222  19.239 -23.572  0.00  0.00    -0.133 NA
BRANCH   8  11
ATOM     11  N   UNL d   1      32.639  17.196 -23.836  0.00  0.00    -0.181 NA
ATOM     12  C   UNL d   1      31.850  17.005 -23.996  0.00  0.00     0.281 C 
ATOM     13  O   UNL d   1      31.261  17.570 -23.905  0.00  0.00    -0.265 OA
BRANCH  12  14
ATOM     14  C   UNL d   1      31.658  16.243 -24.248  0.00  0.00     0.058 C 
ATOM     15  C   UNL d   1      31.883  15.593 -23.788  0.00  0.00     0.005 C 
ATOM     16  C   UNL d   1      31.249  16.136 -24.949  0.00  0.00     0.005 C 
ENDBRANCH  12  14
ENDBRANCH   8  11
ENDBRANCH   5   6
ENDBRANCH   4   5
ENDBRANCH   1   4
BRANCH   2  17
ATOM     17  C   UNL d   1      32.737  22.175 -21.145  0.00  0.00     0.087 A 
ATOM     18  C   UNL d   1      33.068  22.036 -20.403  0.00  0.00     0.046 A 
ATOM     19  C   UNL d   1      32.908  22.539 -19.779  0.00  0.00     0.124 A 
ATOM     20  O   UNL d   1      33.241  22.398 -19.035  0.00  0.00    -0.301 OA
ATOM     21  C   UNL d   1      32.411  23.191 -19.892  0.00  0.00     0.123 A 
ATOM     22  C   UNL d   1      33.073  22.914 -18.408  0.00  0.00     0.149 A 
ATOM     23  C   UNL d   1      32.575  23.567 -18.523  0.00  0.00     0.149 A 
ATOM     24  O   UNL d   1      32.243  23.702 -19.277  0.00  0.00    -0.301 OA
ATOM     25  C   UNL d   1      32.080  23.329 -20.638  0.00  0.00     0.028 A 
ATOM     26  C   UNL d   1      32.243  22.819 -21.264  0.00  0.00     0.021 A 
ENDBRANCH   2  17
TORSDOF 6
ENDMDL
MODEL 3
REMARK VINA RESULT:      -2.2      0.946      1.244
REMARK  6 active torsions:
REMARK  status: ('A' for Active; 'I' for Inactive)
REMARK    1  A    between atoms: N_3  and  C_1 
REMARK       I    between atoms: C_7  and  N_3 
REMARK    2  A    between atoms: S_13  and  C_4 
REMARK    3  A    between atoms: C_20  and  C_7 
REMARK    4  A    between atoms: C_10  and  C_21 
REMARK       I    between atoms: N_12  and  C_10 
REMARK    5  A    between atoms: C_14  and  N_12 
REMARK    6  A    between atoms: C_21  and  S_13 
ROOT
ATOM      1  C   UNL d   1      31.940  17.875 -24.148  0.00  0.00     0.286 C 
ATOM      2  N   UNL d   1      31.303  17.832 -24.674  0.00  0.00    -0.207 NA
ATOM      3  O   UNL d   1      32.013  17.328 -23.534  0.00  0.00    -0.265 OA
ENDROOT
BRANCH   1   4
ATOM      4  C   UNL d   1      32.500  18.469 -24.245  0.00  0.00     0.100 C 
BRANCH   4   5
ATOM      5  S   UNL d   1      33.052  18.619 -23.643  0.00  0.00    -0.054 SA
BRANCH   5   6
ATOM      6  C   UNL d   1      33.119  19.382 -23.339  0.00  0.00     0.165 A 
ATOM      7  S   UNL d   1      33.128  19.582 -22.544  0.00  0.00    -0.019 SA
ATOM      8  C   UNL d   1      33.203  20.398 -22.478  0.00  0.00     0.219 A 
ATOM      9  N   UNL d   1      33.241  20.706 -23.244  0.00  0.00    -0.120 NA
ATOM     10  N   UNL d   1      33.189  20.080 -23.776  0.00  0.00    -0.133 NA
BRANCH   8  11
ATOM     11  N   UNL d   1      33.234  20.827 -21.771  0.00  0.00    -0.181 NA
ATOM     12  C   UNL d   1      32.554  21.216 -21.503  0.00  0.00     0.281 C 
ATOM     13  O   UNL d   1      31.857  21.175 -21.935  0.00  0.00    -0.265 OA
BRANCH  12  14
ATOM     14  C   UNL d   1      32.581  21.645 -20.798  0.00  0.00     0.058 C 
ATOM     15  C   UNL d   1      32.460  22.463 -20.815  0.00  0.00     0.005 C 
ATOM     16  C   UNL d   1      32.727  21.259 -20.091  0.00  0.00     0.005 C 
ENDBRANCH  12  14
ENDBRANCH   8  11
ENDBRANCH   5   6
ENDBRANCH   4   5
ENDBRANCH   1   4
BRANCH   2  17
ATOM     17  C   UNL d   1      30.740  17.236 -24.578  0.00  0.00     0.087 A 
ATOM     18  C   UNL d   1      30.027  17.408 -24.203  0.00  0.00     0.046 A 
ATOM     19  C   UNL d   1      29.462  16.825 -24.102  0.00  0.00     0.124 A 
ATOM     20  O   UNL d   1      28.747  17.000 -23.725  0.00  0.00    -0.301 OA
ATOM     21  C   UNL d   1      29.608  16.058 -24.378  0.00  0.00     0.123 A 
ATOM     22  C   UNL d   1      28.180  16.402 -23.628  0.00  0.00     0.149 A 
ATOM     23  C   UNL d   1      28.327  15.635 -23.904  0.00  0.00     0.149 A 
ATOM     24  O   UNL d   1      29.052  15.467 -24.284  0.00  0.00    -0.301 OA
ATOM     25  C   UNL d   1      30.324  15.887 -24.755  0.00  0.00     0.028 A 
ATOM     26  C   UNL d   1      30.891  16.477 -24.854  0.00  0.00     0.021 A 
ENDBRANCH   2  17
TORSDOF 6
ENDMDL
MODEL 4
REMARK VINA RESULT:      -0.8      1.124      6.033
REMARK  6 active torsions:
REMARK  status: ('A' for Active; 'I' for Inactive)
REMARK    1  A    between atoms: N_3  and  C_1 
REMARK       I    between atoms: C_7  and  N_3 
REMARK    2  A    between atoms: S_13  and  C_4 
REMARK    3  A    between atoms: C_20  and  C_7 
REMARK    4  A    between atoms: C_10  and  C_21 
REMARK       I    between atoms: N_12  and  C_10 
REMARK    5  A    between atoms: C_14  and  N_12 
REMARK    6  A    between atoms: C_21  and  S_13 
ROOT
ATOM      1  C   UNL d   1      32.855  19.535 -22.893  0.00  0.00     0.286 C 
ATOM      2  N   UNL d   1      33.061  20.335 -22.948  0.00  0.00    -0.207 NA
ATOM      3  O   UNL d   1      32.635  19.210 -22.166  0.00  0.00    -0.265 OA
ENDROOT
BRANCH   1   4
ATOM      4  C   UNL d   1      32.872  19.069 -23.569  0.00  0.00     0.100 C 
BRANCH   4   5
ATOM      5  S   UNL d   1      33.013  18.254 -23.506  0.00  0.00    -0.054 SA
BRANCH   5   6
ATOM      6  C   UNL d   1      32.650  17.739 -24.038  0.00  0.00     0.165 A 
ATOM      7  S   UNL d   1      31.906  17.407 -23.950  0.00  0.00    -0.019 SA
ATOM      8  C   UNL d   1      31.753  16.928 -24.600  0.00  0.00     0.219 A 
ATOM      9  N   UNL d   1      32.413  16.966 -25.097  0.00  0.00    -0.120 NA
ATOM     10  N   UNL d   1      32.967  17.466 -24.750  0.00  0.00    -0.133 NA
BRANCH   8  11
ATOM     11  N   UNL d   1      31.063  16.490 -24.730  0.00  0.00    -0.181 NA
ATOM     12  C   UNL d   1      30.328  16.866 -24.668  0.00  0.00     0.281 C 
ATOM     13  O   UNL d   1      30.286  17.664 -24.480  0.00  0.00    -0.265 OA
BRANCH  12  14
ATOM     14  C   UNL d   1      29.636  16.433 -24.796  0.00  0.00     0.058 C 
ATOM     15  C   UNL d   1      28.903  16.777 -24.630  0.00  0.00     0.005 C 
ATOM     16  C   UNL d   1      29.683  15.668 -25.086  0.00  0.00     0.005 C 
ENDBRANCH  12  14
ENDBRANCH   8  11
ENDBRANCH   5   6
ENDBRANCH   4   5
ENDBRANCH   1   4
BRANCH   2  17
ATOM     17  C   UNL d   1      33.044  20.804 -22.269  0.00  0.00     0.087 A 
ATOM     18  C   UNL d   1      32.829  21.597 -22.329  0.00  0.00     0.046 A 
ATOM     19  C   UNL d   1      32.809  22.071 -21.662  0.00  0.00     0.124 A 
ATOM     20  O   UNL d   1      32.593  22.867 -21.724  0.00  0.00    -0.301 OA
ATOM     21  C   UNL d   1      33.006  21.752 -20.924  0.00  0.00     0.123 A 
ATOM     22  C   UNL d   1      32.576  23.339 -21.043  0.00  0.00     0.149 A 
ATOM     23  C   UNL d   1      32.773  23.019 -20.305  0.00  0.00     0.149 A 
ATOM     24  O   UNL d   1      32.990  22.215 -20.251  0.00  0.00    -0.301 OA
ATOM     25  C   UNL d   1      33.222  20.956 -20.866  0.00  0.00     0.028 A 
ATOM     26  C   UNL d   1      33.241  20.482 -21.540  0.00  0.00     0.021 A 
ENDBRANCH   2  17
TORSDOF 6
ENDMDL
MODEL 5
REMARK VINA RESULT:      -0.3      1.976      3.393
REMARK  6 active torsions:
REMARK  status: ('A' for Active; 'I' for Inactive)
REMARK    1  A    between atoms: N_3  and  C_1 
REMARK       I    between atoms: C_7  and  N_3 
REMARK    2  A    between atoms: S_13  and  C_4 
REMARK    3  A    between atoms: C_20  and  C_7 
REMARK    4  A    between atoms: C_10  and  C_21 
REMARK       I    between atoms: N_12  and  C_10 
REMARK    5  A    between atoms: C_14  and  N_12 
REMARK    6  A    between atoms: C_21  and  S_13 
ROOT
ATOM      1  C   UNL d   1      32.650  21.157 -21.819  0.00  0.00     0.286 C 
ATOM      2  N   UNL d   1      32.861  20.884 -22.571  0.00  0.00    -0.207 NA
ATOM      3  O   UNL d   1      32.461  20.623 -21.218  0.00  0.00    -0.265 OA
ENDROOT
BRANCH   1   4
ATOM      4  C   UNL d   1      32.631  21.967 -21.678  0.00  0.00     0.100 C 
BRANCH   4   5
ATOM      5  S   UNL d   1      33.188  22.310 -21.167  0.00  0.00    -0.054 SA
BRANCH   5   6
ATOM      6  C   UNL d   1      32.927  22.785 -20.546  0.00  0.00     0.165 A 
ATOM      7  S   UNL d   1      33.212  22.768 -19.778  0.00  0.00    -0.019 SA
ATOM      8  C   UNL d   1      32.804  23.327 -19.333  0.00  0.00     0.219 A 
ATOM      9  N   UNL d   1      32.259  23.694 -19.836  0.00  0.00    -0.120 NA
ATOM     10  N   UNL d   1      32.335  23.359 -20.584  0.00  0.00    -0.133 NA
BRANCH   8  11
ATOM     11  N   UNL d   1      32.922  23.488 -18.530  0.00  0.00    -0.181 NA
ATOM     12  C   UNL d   1      32.490  23.065 -17.965  0.00  0.00     0.281 C 
ATOM     13  O   UNL d   1      31.952  22.491 -18.200  0.00  0.00    -0.265 OA
BRANCH  12  14
ATOM     14  C   UNL d   1      32.604  23.223 -17.162  0.00  0.00     0.058 C 
ATOM     15  C   UNL d   1      32.073  22.917 -16.607  0.00  0.00     0.005 C 
ATOM     16  C   UNL d   1      33.241  23.680 -16.924  0.00  0.00     0.005 C 
ENDBRANCH  12  14
ENDBRANCH   8  11
ENDBRANCH   5   6
ENDBRANCH   4   5
ENDBRANCH   1   4
BRANCH   2  17
ATOM     17  C   UNL d   1      32.880  20.071 -22.714  0.00  0.00     0.087 A 
ATOM     18  C   UNL d   1      32.600  19.779 -23.432  0.00  0.00     0.046 A 
ATOM     19  C   UNL d   1      32.615  18.975 -23.584  0.00  0.00     0.124 A 
ATOM     20  O   UNL d   1      32.333  18.683 -24.305  0.00  0.00    -0.301 OA
ATOM     21  C   UNL d   1      32.912  18.453 -23.015  0.00  0.00     0.123 A 
ATOM     22  C   UNL d   1      32.352  17.867 -24.450  0.00  0.00     0.149 A 
ATOM     23  C   UNL d   1      32.649  17.346 -23.880  0.00  0.00     0.149 A 
ATOM     24  O   UNL d   1      32.931  17.648 -23.154  0.00  0.00    -0.301 OA
ATOM     25  C   UNL d   1      33.192  18.748 -22.295  0.00  0.00     0.028 A 
ATOM     26  C   UNL d   1      33.176  19.559 -22.145  0.00  0.00     0.021 A 
ENDBRANCH   2  17
TORSDOF 6
ENDMDL
