MODEL 1
REMARK VINA RESULT:      17.1      0.000      0.000
REMARK  2 active torsions:
REMARK  status: ('A' for Active; 'I' for Inactive)
REMARK    1  A    between atoms: C_4  and  N_1 
REMARK    2  A    between atoms: C_7  and  C_9 
ROOT
ATOM      1  C   UNL d   1      58.290  49.699  50.691  0.00  0.00     0.070 A 
ATOM      2  C   UNL d   1      59.024  49.690  50.307  0.00  0.00     0.024 A 
ATOM      3  C   UNL d   1      59.715  49.689  50.743  0.00  0.00     0.066 A 
ATOM      4  C   UNL d   1      58.248  49.707  51.512  0.00  0.00     0.018 A 
ATOM      5  C   UNL d   1      59.676  49.696  51.572  0.00  0.00     0.006 A 
ATOM      6  C   UNL d   1      58.942  49.705  51.958  0.00  0.00     0.002 A 
ENDROOT
BRANCH   1   7
ATOM      7  N   UNL d   1      57.591  49.701  50.255  0.00  0.00    -0.242 N 
ATOM      8  C   UNL d   1      56.819  49.699  50.572  0.00  0.00     0.267 A 
ATOM      9  C   UNL d   1      56.281  49.702  49.948  0.00  0.00     0.066 A 
ATOM     10  O   UNL d   1      56.591  49.696  51.368  0.00  0.00    -0.267 OA
ATOM     11  C   UNL d   1      56.713  49.705  49.241  0.00  0.00     0.066 A 
ATOM     12  C   UNL d   1      57.511  49.704  49.430  0.00  0.00     0.267 A 
ATOM     13  O   UNL d   1      58.108  49.707  48.849  0.00  0.00    -0.267 OA
ENDBRANCH   1   7
BRANCH   3  14
ATOM     14  C   UNL d   1      60.448  49.680  50.375  0.00  0.00     0.211 C 
ATOM     15  O   UNL d   1      60.507  49.699  49.557  0.00  0.00    -0.644 OA
ATOM     16  O   UNL d   1      61.134  49.650  50.841  0.00  0.00    -0.644 OA
ENDBRANCH   3  14
TORSDOF 2
ENDMDL
MODEL 2
REMARK VINA RESULT:      19.2      0.983      2.987
REMARK  2 active torsions:
REMARK  status: ('A' for Active; 'I' for Inactive)
REMARK    1  A    between atoms: C_4  and  N_1 
REMARK    2  A    between atoms: C_7  and  C_9 
ROOT
ATOM      1  C   UNL d   1      58.776  49.663  50.869  0.00  0.00     0.070 A 
ATOM      2  C   UNL d   1      58.308  49.633  50.187  0.00  0.00     0.024 A 
ATOM      3  C   UNL d   1      57.493  49.639  50.249  0.00  0.00     0.066 A 
ATOM      4  C   UNL d   1      58.430  49.699  51.614  0.00  0.00     0.018 A 
ATOM      5  C   UNL d   1      57.139  49.676  50.999  0.00  0.00     0.006 A 
ATOM      6  C   UNL d   1      57.607  49.706  51.682  0.00  0.00     0.002 A 
ENDROOT
BRANCH   1   7
ATOM      7  N   UNL d   1      59.599  49.658  50.811  0.00  0.00    -0.242 N 
ATOM      8  C   UNL d   1      60.132  49.631  51.452  0.00  0.00     0.267 A 
ATOM      9  C   UNL d   1      60.899  49.634  51.153  0.00  0.00     0.066 A 
ATOM     10  O   UNL d   1      59.960  49.606  52.262  0.00  0.00    -0.267 OA
ATOM     11  C   UNL d   1      60.849  49.662  50.326  0.00  0.00     0.066 A 
ATOM     12  C   UNL d   1      60.055  49.676  50.119  0.00  0.00     0.267 A 
ATOM     13  O   UNL d   1      59.800  49.705  49.327  0.00  0.00    -0.267 OA
ENDBRANCH   1   7
BRANCH   3  14
ATOM     14  C   UNL d   1      57.017  49.610  49.580  0.00  0.00     0.211 C 
ATOM     15  O   UNL d   1      57.345  49.502  48.837  0.00  0.00    -0.644 OA
ATOM     16  O   UNL d   1      56.196  49.691  49.666  0.00  0.00    -0.644 OA
ENDBRANCH   3  14
TORSDOF 2
ENDMDL
