MODEL 1
REMARK VINA RESULT:      -8.5      0.000      0.000
REMARK  3 active torsions:
REMARK  status: ('A' for Active; 'I' for Inactive)
REMARK    1  A    between atoms: C_13  and  C_2 
REMARK    2  A    between atoms: C_10  and  C_4 
REMARK    3  A    between atoms: N_7  and  C_10 
ROOT
ATOM      1  N   UNL d   1      54.228  32.017  53.359  0.00  0.00    -0.121 NA
ATOM      2  C   UNL d   1      53.509  31.674  53.556  0.00  0.00     0.204 A 
ATOM      3  O   UNL d   1      52.964  32.278  53.684  0.00  0.00    -0.267 OA
ATOM      4  C   UNL d   1      53.348  33.002  53.566  0.00  0.00     0.222 A 
ATOM      5  N   UNL d   1      54.134  32.838  53.364  0.00  0.00    -0.119 NA
ENDROOT
BRANCH   4   6
ATOM      6  C   UNL d   1      53.013  33.752  53.635  0.00  0.00     0.127 C 
BRANCH   6   7
ATOM      7  N   UNL d   1      52.290  33.916  53.276  0.00  0.00    -0.300 N 
ATOM      8  C   UNL d   1      52.264  34.058  52.465  0.00  0.00     0.081 A 
ATOM      9  C   UNL d   1      51.549  34.222  52.103  0.00  0.00     0.053 A 
ATOM     10  C   UNL d   1      50.855  34.244  52.548  0.00  0.00     0.239 A 
ATOM     11  C   UNL d   1      50.883  34.101  53.366  0.00  0.00     0.053 A 
ATOM     12  O   UNL d   1      50.187  34.255  53.040  0.00  0.00    -0.298 OA
ATOM     13  O   UNL d   1      50.777  34.393  51.741  0.00  0.00    -0.298 OA
ATOM     14  C   UNL d   1      51.607  33.937  53.725  0.00  0.00     0.081 A 
ATOM     15  C   UNL d   1      49.554  34.431  52.539  0.00  0.00     0.146 A 
ATOM     16  C   UNL d   1      49.972  34.526  51.633  0.00  0.00     0.146 A 
ENDBRANCH   6   7
ENDBRANCH   4   6
BRANCH   2  17
ATOM     17  C   UNL d   1      53.359  30.863  53.615  0.00  0.00     0.043 A 
ATOM     18  C   UNL d   1      53.001  30.464  52.984  0.00  0.00     0.004 A 
ATOM     19  C   UNL d   1      52.850  29.663  53.035  0.00  0.00     0.000 A 
ATOM     20  C   UNL d   1      53.055  29.246  53.722  0.00  0.00     0.000 A 
ATOM     21  C   UNL d   1      53.413  29.645  54.353  0.00  0.00     0.000 A 
ATOM     22  C   UNL d   1      53.562  30.449  54.296  0.00  0.00     0.004 A 
ENDBRANCH   2  17
TORSDOF 3
ENDMDL
MODEL 2
REMARK VINA RESULT:      -8.2      1.726      2.472
REMARK  3 active torsions:
REMARK  status: ('A' for Active; 'I' for Inactive)
REMARK    1  A    between atoms: C_13  and  C_2 
REMARK    2  A    between atoms: C_10  and  C_4 
REMARK    3  A    between atoms: N_7  and  C_10 
ROOT
ATOM      1  N   UNL d   1      52.626  30.680  53.077  0.00  0.00    -0.121 NA
ATOM      2  C   UNL d   1      53.210  30.525  53.635  0.00  0.00     0.204 A 
ATOM      3  O   UNL d   1      53.723  31.169  53.652  0.00  0.00    -0.267 OA
ATOM      4  C   UNL d   1      53.456  31.728  53.102  0.00  0.00     0.222 A 
ATOM      5  N   UNL d   1      52.775  31.422  52.745  0.00  0.00    -0.119 NA
ENDROOT
BRANCH   4   6
ATOM      6  C   UNL d   1      53.803  32.457  52.935  0.00  0.00     0.127 C 
BRANCH   6   7
ATOM      7  N   UNL d   1      53.617  33.116  53.393  0.00  0.00    -0.300 N 
ATOM      8  C   UNL d   1      54.060  33.277  54.068  0.00  0.00     0.081 A 
ATOM      9  C   UNL d   1      53.881  33.930  54.527  0.00  0.00     0.053 A 
ATOM     10  C   UNL d   1      53.257  34.427  54.314  0.00  0.00     0.239 A 
ATOM     11  C   UNL d   1      52.812  34.263  53.632  0.00  0.00     0.053 A 
ATOM     12  O   UNL d   1      52.621  34.895  54.057  0.00  0.00    -0.298 OA
ATOM     13  O   UNL d   1      53.670  34.630  54.998  0.00  0.00    -0.298 OA
ATOM     14  C   UNL d   1      52.998  33.603  53.174  0.00  0.00     0.081 A 
ATOM     15  C   UNL d   1      52.564  35.503  54.611  0.00  0.00     0.146 A 
ATOM     16  C   UNL d   1      53.298  35.314  55.267  0.00  0.00     0.146 A 
ENDBRANCH   6   7
ENDBRANCH   4   6
BRANCH   2  17
ATOM     17  C   UNL d   1      53.270  29.843  54.097  0.00  0.00     0.043 A 
ATOM     18  C   UNL d   1      53.045  29.864  54.893  0.00  0.00     0.004 A 
ATOM     19  C   UNL d   1      53.101  29.193  55.355  0.00  0.00     0.000 A 
ATOM     20  C   UNL d   1      53.386  28.487  55.027  0.00  0.00     0.000 A 
ATOM     21  C   UNL d   1      53.611  28.466  54.231  0.00  0.00     0.000 A 
ATOM     22  C   UNL d   1      53.552  29.141  53.771  0.00  0.00     0.004 A 
ENDBRANCH   2  17
TORSDOF 3
ENDMDL
MODEL 3
REMARK VINA RESULT:      -8.2      1.008      4.480
REMARK  3 active torsions:
REMARK  status: ('A' for Active; 'I' for Inactive)
REMARK    1  A    between atoms: C_13  and  C_2 
REMARK    2  A    between atoms: C_10  and  C_4 
REMARK    3  A    between atoms: N_7  and  C_10 
ROOT
ATOM      1  N   UNL d   1      52.109  34.089  53.647  0.00  0.00    -0.121 NA
ATOM      2  C   UNL d   1      51.701  33.822  52.986  0.00  0.00     0.204 A 
ATOM      3  O   UNL d   1      52.137  33.213  52.646  0.00  0.00    -0.267 OA
ATOM      4  C   UNL d   1      52.821  33.100  53.098  0.00  0.00     0.222 A 
ATOM      5  N   UNL d   1      52.802  33.646  53.720  0.00  0.00    -0.119 NA
ENDROOT
BRANCH   4   6
ATOM      6  C   UNL d   1      53.417  32.547  52.959  0.00  0.00     0.127 C 
BRANCH   6   7
ATOM      7  N   UNL d   1      53.320  31.766  53.205  0.00  0.00    -0.300 N 
ATOM      8  C   UNL d   1      52.894  31.243  52.734  0.00  0.00     0.081 A 
ATOM      9  C   UNL d   1      52.794  30.467  52.974  0.00  0.00     0.053 A 
ATOM     10  C   UNL d   1      53.121  30.209  53.686  0.00  0.00     0.239 A 
ATOM     11  C   UNL d   1      53.551  30.739  54.160  0.00  0.00     0.053 A 
ATOM     12  O   UNL d   1      53.469  29.999  54.410  0.00  0.00    -0.298 OA
ATOM     13  O   UNL d   1      52.703  29.648  53.250  0.00  0.00    -0.298 OA
ATOM     14  C   UNL d   1      53.648  31.519  53.913  0.00  0.00     0.081 A 
ATOM     15  C   UNL d   1      53.286  29.201  54.513  0.00  0.00     0.146 A 
ATOM     16  C   UNL d   1      52.751  28.960  53.701  0.00  0.00     0.146 A 
ENDBRANCH   6   7
ENDBRANCH   4   6
BRANCH   2  17
ATOM     17  C   UNL d   1      50.978  34.115  52.712  0.00  0.00     0.043 A 
ATOM     18  C   UNL d   1      50.437  34.442  53.246  0.00  0.00     0.004 A 
ATOM     19  C   UNL d   1      49.721  34.734  52.983  0.00  0.00     0.000 A 
ATOM     20  C   UNL d   1      49.534  34.702  52.175  0.00  0.00     0.000 A 
ATOM     21  C   UNL d   1      50.074  34.375  51.641  0.00  0.00     0.000 A 
ATOM     22  C   UNL d   1      50.791  34.084  51.910  0.00  0.00     0.004 A 
ENDBRANCH   2  17
TORSDOF 3
ENDMDL
MODEL 4
REMARK VINA RESULT:      -7.7      1.793      4.577
REMARK  3 active torsions:
REMARK  status: ('A' for Active; 'I' for Inactive)
REMARK    1  A    between atoms: C_13  and  C_2 
REMARK    2  A    between atoms: C_10  and  C_4 
REMARK    3  A    between atoms: N_7  and  C_10 
ROOT
ATOM      1  N   UNL d   1      51.356  34.165  51.909  0.00  0.00    -0.121 NA
ATOM      2  C   UNL d   1      50.745  34.081  52.451  0.00  0.00     0.204 A 
ATOM      3  O   UNL d   1      50.974  33.520  53.009  0.00  0.00    -0.267 OA
ATOM      4  C   UNL d   1      51.733  33.254  52.812  0.00  0.00     0.222 A 
ATOM      5  N   UNL d   1      51.968  33.656  52.127  0.00  0.00    -0.119 NA
ENDROOT
BRANCH   4   6
ATOM      6  C   UNL d   1      52.177  32.691  53.219  0.00  0.00     0.127 C 
BRANCH   6   7
ATOM      7  N   UNL d   1      52.861  32.917  53.620  0.00  0.00    -0.300 N 
ATOM      8  C   UNL d   1      53.596  32.765  53.283  0.00  0.00     0.081 A 
ATOM      9  C   UNL d   1      54.279  32.987  53.676  0.00  0.00     0.053 A 
ATOM     10  C   UNL d   1      54.230  33.362  54.410  0.00  0.00     0.239 A 
ATOM     11  C   UNL d   1      53.487  33.515  54.748  0.00  0.00     0.053 A 
ATOM     12  O   UNL d   1      54.127  33.736  55.143  0.00  0.00    -0.298 OA
ATOM     13  O   UNL d   1      54.988  33.232  54.115  0.00  0.00    -0.298 OA
ATOM     14  C   UNL d   1      52.803  33.289  54.346  0.00  0.00     0.081 A 
ATOM     15  C   UNL d   1      54.891  33.897  55.412  0.00  0.00     0.146 A 
ATOM     16  C   UNL d   1      55.489  33.542  54.690  0.00  0.00     0.146 A 
ENDBRANCH   6   7
ENDBRANCH   4   6
BRANCH   2  17
ATOM     17  C   UNL d   1      50.025  34.488  52.439  0.00  0.00     0.043 A 
ATOM     18  C   UNL d   1      49.547  34.458  51.764  0.00  0.00     0.004 A 
ATOM     19  C   UNL d   1      48.835  34.858  51.745  0.00  0.00     0.000 A 
ATOM     20  C   UNL d   1      48.590  35.298  52.403  0.00  0.00     0.000 A 
ATOM     21  C   UNL d   1      49.068  35.328  53.078  0.00  0.00     0.000 A 
ATOM     22  C   UNL d   1      49.781  34.925  53.093  0.00  0.00     0.004 A 
ENDBRANCH   2  17
TORSDOF 3
ENDMDL
MODEL 5
REMARK VINA RESULT:      -7.6      1.749      4.636
REMARK  3 active torsions:
REMARK  status: ('A' for Active; 'I' for Inactive)
REMARK    1  A    between atoms: C_13  and  C_2 
REMARK    2  A    between atoms: C_10  and  C_4 
REMARK    3  A    between atoms: N_7  and  C_10 
ROOT
ATOM      1  N   UNL d   1      51.807  33.398  53.369  0.00  0.00    -0.121 NA
ATOM      2  C   UNL d   1      52.574  33.605  53.576  0.00  0.00     0.204 A 
ATOM      3  O   UNL d   1      53.081  33.020  53.297  0.00  0.00    -0.267 OA
ATOM      4  C   UNL d   1      52.626  32.444  52.914  0.00  0.00     0.222 A 
ATOM      5  N   UNL d   1      51.834  32.681  52.960  0.00  0.00    -0.119 NA
ENDROOT
BRANCH   4   6
ATOM      6  C   UNL d   1      52.904  31.758  52.551  0.00  0.00     0.127 C 
BRANCH   6   7
ATOM      7  N   UNL d   1      52.983  31.063  52.988  0.00  0.00    -0.300 N 
ATOM      8  C   UNL d   1      52.395  30.489  52.942  0.00  0.00     0.081 A 
ATOM      9  C   UNL d   1      52.467  29.797  53.373  0.00  0.00     0.053 A 
ATOM     10  C   UNL d   1      53.128  29.675  53.852  0.00  0.00     0.239 A 
ATOM     11  C   UNL d   1      53.720  30.256  53.897  0.00  0.00     0.053 A 
ATOM     12  O   UNL d   1      53.810  29.601  54.318  0.00  0.00    -0.298 OA
ATOM     13  O   UNL d   1      52.568  29.071  53.841  0.00  0.00    -0.298 OA
ATOM     14  C   UNL d   1      53.641  30.951  53.460  0.00  0.00     0.081 A 
ATOM     15  C   UNL d   1      53.741  28.865  54.686  0.00  0.00     0.146 A 
ATOM     16  C   UNL d   1      52.871  28.498  54.349  0.00  0.00     0.146 A 
ENDBRANCH   6   7
ENDBRANCH   4   6
BRANCH   2  17
ATOM     17  C   UNL d   1      52.798  34.284  53.992  0.00  0.00     0.043 A 
ATOM     18  C   UNL d   1      53.134  34.213  54.745  0.00  0.00     0.004 A 
ATOM     19  C   UNL d   1      53.357  34.879  55.161  0.00  0.00     0.000 A 
ATOM     20  C   UNL d   1      53.246  35.631  54.830  0.00  0.00     0.000 A 
ATOM     21  C   UNL d   1      52.909  35.702  54.077  0.00  0.00     0.000 A 
ATOM     22  C   UNL d   1      52.687  35.031  53.663  0.00  0.00     0.004 A 
ENDBRANCH   2  17
TORSDOF 3
ENDMDL
