MODEL 1
REMARK VINA RESULT:      20.2      0.000      0.000
REMARK  3 active torsions:
REMARK  status: ('A' for Active; 'I' for Inactive)
REMARK    1  A    between atoms: N_2  and  S_1 
REMARK    2  A    between atoms: C_3  and  S_1 
REMARK    3  A    between atoms: C_10  and  C_9 
ROOT
ATOM      1  C   UNL d   1      46.125 -18.374  44.250  0.00  0.00     0.104 A 
ATOM      2  C   UNL d   1      45.804 -16.765  44.466  0.00  0.00     0.000 A 
ATOM      3  C   UNL d   1      46.642 -17.905  44.686  0.00  0.00     0.013 A 
ATOM      4  C   UNL d   1      45.444 -18.041  43.919  0.00  0.00     0.013 A 
ATOM      5  C   UNL d   1      45.283 -17.235  44.027  0.00  0.00     0.001 A 
ATOM      6  C   UNL d   1      46.481 -17.099  44.794  0.00  0.00     0.001 A 
ENDROOT
BRANCH   1   7
ATOM      7  S   UNL d   1      46.291 -19.175  44.146  0.00  0.00     0.271 S 
ATOM      8  O   UNL d   1      46.275 -19.291  44.954  0.00  0.00    -0.200 OA
ATOM      9  O   UNL d   1      46.457 -19.971  44.035  0.00  0.00    -0.200 OA
BRANCH   7  10
ATOM     10  N   UNL d   1      46.310 -19.066  43.328  0.00  0.00    -0.226 N 
ATOM     11  C   UNL d   1      46.000 -19.658  42.834  0.00  0.00     0.111 A 
ATOM     12  C   UNL d   1      46.018 -19.550  42.016  0.00  0.00     0.100 A 
ATOM     13  N   UNL d   1      46.340 -18.863  41.703  0.00  0.00    -0.299 N 
ATOM     14  C   UNL d   1      46.646 -18.278  42.189  0.00  0.00     0.100 A 
ATOM     15  C   UNL d   1      46.355 -18.761  40.877  0.00  0.00     0.100 C 
ATOM     16  C   UNL d   1      46.630 -18.382  43.006  0.00  0.00     0.111 A 
ENDBRANCH   7  10
ENDBRANCH   1   7
BRANCH   2  17
ATOM     17  C   UNL d   1      45.652 -15.966  44.578  0.00  0.00     0.000 A 
ATOM     18  C   UNL d   1      46.242 -15.406  44.455  0.00  0.00     0.001 A 
ATOM     19  C   UNL d   1      46.081 -14.605  44.569  0.00  0.00     0.011 A 
ATOM     20  C   UNL d   1      45.330 -14.364  44.806  0.00  0.00     0.058 A 
ATOM     21  C   UNL d   1      44.734 -14.935  44.930  0.00  0.00     0.011 A 
ATOM     22 CL   UNL d   1      45.172 -13.571  44.919  0.00  0.00    -0.082 Cl
ATOM     23  C   UNL d   1      44.900 -15.726  44.815  0.00  0.00     0.001 A 
ENDBRANCH   2  17
TORSDOF 3
ENDMDL
