MODEL 1
REMARK VINA RESULT:      -8.1      0.000      0.000
REMARK  4 active torsions:
REMARK  status: ('A' for Active; 'I' for Inactive)
REMARK    1  A    between atoms: C_6  and  C_1 
REMARK    2  A    between atoms: C_8  and  N_3 
REMARK    3  A    between atoms: C_7  and  C_4 
REMARK    4  A    between atoms: O_16  and  C_13 
ROOT
ATOM      1  C   UNL d   1      52.194  33.136  53.279  0.00  0.00     0.103 A 
ATOM      2  N   UNL d   1      52.433  34.530  53.477  0.00  0.00    -0.165 NA
ATOM      3  N   UNL d   1      53.346  33.576  54.003  0.00  0.00    -0.228 N 
ATOM      4  C   UNL d   1      51.974  33.923  53.172  0.00  0.00     0.109 A 
ATOM      5  C   UNL d   1      52.886  32.969  53.698  0.00  0.00     0.108 A 
ENDROOT
BRANCH   4   6
ATOM      6  C   UNL d   1      51.287  34.097  52.757  0.00  0.00     0.020 A 
ATOM      7  C   UNL d   1      51.305  34.148  51.932  0.00  0.00     0.004 A 
ATOM      8  C   UNL d   1      50.610  34.324  51.513  0.00  0.00     0.024 A 
ATOM      9  C   UNL d   1      49.905  34.447  51.920  0.00  0.00     0.094 A 
ATOM     10  C   UNL d   1      49.887  34.397  52.745  0.00  0.00     0.024 A 
ATOM     11  C   UNL d   1      50.583  34.220  53.164  0.00  0.00     0.004 A 
BRANCH   9  12
ATOM     12  O   UNL d   1      49.189  34.628  51.490  0.00  0.00    -0.328 OA
ATOM     13  C   UNL d   1      49.120  34.406  50.677  0.00  0.00     0.181 C 
ENDBRANCH   9  12
ENDBRANCH   4   6
BRANCH   1  14
ATOM     14  C   UNL d   1      51.734  32.528  52.975  0.00  0.00     0.214 C 
ATOM     15  O   UNL d   1      51.070  32.258  53.383  0.00  0.00    -0.644 OA
ATOM     16  O   UNL d   1      51.941  32.165  52.224  0.00  0.00    -0.644 OA
ENDBRANCH   1  14
BRANCH   3  17
ATOM     17  C   UNL d   1      54.047  33.617  54.435  0.00  0.00     0.083 A 
ATOM     18  C   UNL d   1      54.771  33.643  54.045  0.00  0.00     0.019 A 
ATOM     19  C   UNL d   1      55.473  33.684  54.479  0.00  0.00     0.002 A 
ATOM     20  C   UNL d   1      55.449  33.699  55.301  0.00  0.00     0.000 A 
ATOM     21  C   UNL d   1      54.725  33.673  55.691  0.00  0.00     0.002 A 
ATOM     22  C   UNL d   1      54.024  33.632  55.258  0.00  0.00     0.019 A 
ENDBRANCH   3  17
TORSDOF 4
ENDMDL
MODEL 2
REMARK VINA RESULT:      -8.1      2.610      3.880
REMARK  4 active torsions:
REMARK  status: ('A' for Active; 'I' for Inactive)
REMARK    1  A    between atoms: C_6  and  C_1 
REMARK    2  A    between atoms: C_8  and  N_3 
REMARK    3  A    between atoms: C_7  and  C_4 
REMARK    4  A    between atoms: O_16  and  C_13 
ROOT
ATOM      1  C   UNL d   1      53.984  32.591  54.037  0.00  0.00     0.103 A 
ATOM      2  N   UNL d   1      52.575  32.511  53.812  0.00  0.00    -0.165 NA
ATOM      3  N   UNL d   1      53.361  31.328  53.789  0.00  0.00    -0.228 N 
ATOM      4  C   UNL d   1      53.246  32.955  53.968  0.00  0.00     0.109 A 
ATOM      5  C   UNL d   1      54.033  31.772  53.946  0.00  0.00     0.108 A 
ENDROOT
BRANCH   4   6
ATOM      6  C   UNL d   1      53.189  33.769  54.058  0.00  0.00     0.020 A 
ATOM      7  C   UNL d   1      53.195  34.102  54.814  0.00  0.00     0.004 A 
ATOM      8  C   UNL d   1      53.136  34.927  54.903  0.00  0.00     0.024 A 
ATOM      9  C   UNL d   1      53.072  35.408  54.239  0.00  0.00     0.094 A 
ATOM     10  C   UNL d   1      53.066  35.074  53.483  0.00  0.00     0.024 A 
ATOM     11  C   UNL d   1      53.125  34.250  53.393  0.00  0.00     0.004 A 
BRANCH   9  12
ATOM     12  O   UNL d   1      53.012  36.256  54.329  0.00  0.00    -0.328 OA
ATOM     13  C   UNL d   1      53.004  36.596  55.103  0.00  0.00     0.181 C 
ENDBRANCH   9  12
ENDBRANCH   4   6
BRANCH   1  14
ATOM     14  C   UNL d   1      54.656  33.035  54.194  0.00  0.00     0.214 C 
ATOM     15  O   UNL d   1      55.119  33.328  53.577  0.00  0.00    -0.644 OA
ATOM     16  O   UNL d   1      54.885  33.199  55.005  0.00  0.00    -0.644 OA
ENDBRANCH   1  14
BRANCH   3  17
ATOM     17  C   UNL d   1      53.206  30.527  53.669  0.00  0.00     0.083 A 
ATOM     18  C   UNL d   1      53.393  29.977  54.252  0.00  0.00     0.019 A 
ATOM     19  C   UNL d   1      53.237  29.175  54.130  0.00  0.00     0.002 A 
ATOM     20  C   UNL d   1      52.894  28.925  53.425  0.00  0.00     0.000 A 
ATOM     21  C   UNL d   1      52.706  29.474  52.842  0.00  0.00     0.002 A 
ATOM     22  C   UNL d   1      52.862  30.275  52.964  0.00  0.00     0.019 A 
ENDBRANCH   3  17
TORSDOF 4
ENDMDL
MODEL 3
REMARK VINA RESULT:      -7.8      1.886      2.480
REMARK  4 active torsions:
REMARK  status: ('A' for Active; 'I' for Inactive)
REMARK    1  A    between atoms: C_6  and  C_1 
REMARK    2  A    between atoms: C_8  and  N_3 
REMARK    3  A    between atoms: C_7  and  C_4 
REMARK    4  A    between atoms: O_16  and  C_13 
ROOT
ATOM      1  C   UNL d   1      51.956  33.692  52.940  0.00  0.00     0.103 A 
ATOM      2  N   UNL d   1      51.000  32.641  53.084  0.00  0.00    -0.165 NA
ATOM      3  N   UNL d   1      52.388  32.345  53.145  0.00  0.00    -0.228 N 
ATOM      4  C   UNL d   1      51.174  33.434  52.969  0.00  0.00     0.109 A 
ATOM      5  C   UNL d   1      52.562  33.138  53.030  0.00  0.00     0.108 A 
ENDROOT
BRANCH   4   6
ATOM      6  C   UNL d   1      50.566  33.978  52.880  0.00  0.00     0.020 A 
ATOM      7  C   UNL d   1      50.287  34.397  53.537  0.00  0.00     0.004 A 
ATOM      8  C   UNL d   1      49.672  34.948  53.446  0.00  0.00     0.024 A 
ATOM      9  C   UNL d   1      49.341  35.075  52.703  0.00  0.00     0.094 A 
ATOM     10  C   UNL d   1      49.619  34.657  52.047  0.00  0.00     0.024 A 
ATOM     11  C   UNL d   1      50.235  34.106  52.138  0.00  0.00     0.004 A 
BRANCH   9  12
ATOM     12  O   UNL d   1      48.708  35.641  52.608  0.00  0.00    -0.328 OA
ATOM     13  C   UNL d   1      48.336  35.974  53.292  0.00  0.00     0.181 C 
ENDBRANCH   9  12
ENDBRANCH   4   6
BRANCH   1  14
ATOM     14  C   UNL d   1      52.130  34.486  52.825  0.00  0.00     0.214 C 
ATOM     15  O   UNL d   1      52.213  34.792  52.063  0.00  0.00    -0.644 OA
ATOM     16  O   UNL d   1      52.229  35.009  53.499  0.00  0.00    -0.644 OA
ENDBRANCH   1  14
BRANCH   3  17
ATOM     17  C   UNL d   1      52.834  31.659  53.252  0.00  0.00     0.083 A 
ATOM     18  C   UNL d   1      53.543  31.689  53.669  0.00  0.00     0.019 A 
ATOM     19  C   UNL d   1      53.989  31.002  53.776  0.00  0.00     0.002 A 
ATOM     20  C   UNL d   1      53.724  30.287  53.465  0.00  0.00     0.000 A 
ATOM     21  C   UNL d   1      53.015  30.258  53.049  0.00  0.00     0.002 A 
ATOM     22  C   UNL d   1      52.570  30.943  52.942  0.00  0.00     0.019 A 
ENDBRANCH   3  17
TORSDOF 4
ENDMDL
MODEL 4
REMARK VINA RESULT:      -7.3      1.230      4.559
REMARK  4 active torsions:
REMARK  status: ('A' for Active; 'I' for Inactive)
REMARK    1  A    between atoms: C_6  and  C_1 
REMARK    2  A    between atoms: C_8  and  N_3 
REMARK    3  A    between atoms: C_7  and  C_4 
REMARK    4  A    between atoms: O_16  and  C_13 
ROOT
ATOM      1  C   UNL d   1      51.750  33.201  53.025  0.00  0.00     0.103 A 
ATOM      2  N   UNL d   1      51.829  34.578  53.400  0.00  0.00    -0.165 NA
ATOM      3  N   UNL d   1      50.693  34.103  52.689  0.00  0.00    -0.228 N 
ATOM      4  C   UNL d   1      52.152  33.824  53.387  0.00  0.00     0.109 A 
ATOM      5  C   UNL d   1      51.017  33.350  52.676  0.00  0.00     0.108 A 
ENDROOT
BRANCH   4   6
ATOM      6  C   UNL d   1      52.881  33.685  53.736  0.00  0.00     0.020 A 
ATOM      7  C   UNL d   1      52.930  33.550  54.550  0.00  0.00     0.004 A 
ATOM      8  C   UNL d   1      53.670  33.409  54.903  0.00  0.00     0.024 A 
ATOM      9  C   UNL d   1      54.351  33.405  54.441  0.00  0.00     0.094 A 
ATOM     10  C   UNL d   1      54.302  33.540  53.626  0.00  0.00     0.024 A 
ATOM     11  C   UNL d   1      53.562  33.681  53.274  0.00  0.00     0.004 A 
BRANCH   9  12
ATOM     12  O   UNL d   1      55.112  33.260  54.801  0.00  0.00    -0.328 OA
ATOM     13  C   UNL d   1      55.485  33.870  55.253  0.00  0.00     0.181 C 
ENDBRANCH   9  12
ENDBRANCH   4   6
BRANCH   1  14
ATOM     14  C   UNL d   1      52.074  32.447  53.012  0.00  0.00     0.214 C 
ATOM     15  O   UNL d   1      51.911  31.910  53.616  0.00  0.00    -0.644 OA
ATOM     16  O   UNL d   1      52.587  32.209  52.366  0.00  0.00    -0.644 OA
ENDBRANCH   1  14
BRANCH   3  17
ATOM     17  C   UNL d   1      49.998  34.445  52.406  0.00  0.00     0.083 A 
ATOM     18  C   UNL d   1      49.776  34.342  51.621  0.00  0.00     0.019 A 
ATOM     19  C   UNL d   1      49.080  34.684  51.338  0.00  0.00     0.002 A 
ATOM     20  C   UNL d   1      48.606  35.129  51.843  0.00  0.00     0.000 A 
ATOM     21  C   UNL d   1      48.827  35.233  52.629  0.00  0.00     0.002 A 
ATOM     22  C   UNL d   1      49.523  34.891  52.911  0.00  0.00     0.019 A 
ENDBRANCH   3  17
TORSDOF 4
ENDMDL
MODEL 5
REMARK VINA RESULT:      -6.6      2.450      4.724
REMARK  4 active torsions:
REMARK  status: ('A' for Active; 'I' for Inactive)
REMARK    1  A    between atoms: C_6  and  C_1 
REMARK    2  A    between atoms: C_8  and  N_3 
REMARK    3  A    between atoms: C_7  and  C_4 
REMARK    4  A    between atoms: O_16  and  C_13 
ROOT
ATOM      1  C   UNL d   1      52.977  32.231  53.520  0.00  0.00     0.103 A 
ATOM      2  N   UNL d   1      51.786  31.550  53.120  0.00  0.00    -0.165 NA
ATOM      3  N   UNL d   1      51.867  32.963  52.996  0.00  0.00    -0.228 N 
ATOM      4  C   UNL d   1      52.547  31.533  53.425  0.00  0.00     0.109 A 
ATOM      5  C   UNL d   1      52.628  32.946  53.301  0.00  0.00     0.108 A 
ENDROOT
BRANCH   4   6
ATOM      6  C   UNL d   1      52.887  30.818  53.640  0.00  0.00     0.020 A 
ATOM      7  C   UNL d   1      53.258  30.349  53.069  0.00  0.00     0.004 A 
ATOM      8  C   UNL d   1      53.602  29.624  53.289  0.00  0.00     0.024 A 
ATOM      9  C   UNL d   1      53.572  29.376  54.072  0.00  0.00     0.094 A 
ATOM     10  C   UNL d   1      53.201  29.845  54.643  0.00  0.00     0.024 A 
ATOM     11  C   UNL d   1      52.857  30.570  54.424  0.00  0.00     0.004 A 
BRANCH   9  12
ATOM     12  O   UNL d   1      53.925  28.632  54.299  0.00  0.00    -0.328 OA
ATOM     13  C   UNL d   1      53.608  28.199  54.953  0.00  0.00     0.181 C 
ENDBRANCH   9  12
ENDBRANCH   4   6
BRANCH   1  14
ATOM     14  C   UNL d   1      53.739  32.214  53.826  0.00  0.00     0.214 C 
ATOM     15  O   UNL d   1      54.390  32.121  53.327  0.00  0.00    -0.644 OA
ATOM     16  O   UNL d   1      53.866  32.294  54.672  0.00  0.00    -0.644 OA
ENDBRANCH   1  14
BRANCH   3  17
ATOM     17  C   UNL d   1      51.359  33.555  52.727  0.00  0.00     0.083 A 
ATOM     18  C   UNL d   1      51.476  33.896  51.988  0.00  0.00     0.019 A 
ATOM     19  C   UNL d   1      50.967  34.488  51.720  0.00  0.00     0.002 A 
ATOM     20  C   UNL d   1      50.341  34.738  52.192  0.00  0.00     0.000 A 
ATOM     21  C   UNL d   1      50.223  34.396  52.931  0.00  0.00     0.002 A 
ATOM     22  C   UNL d   1      50.731  33.805  53.199  0.00  0.00     0.019 A 
ENDBRANCH   3  17
TORSDOF 4
ENDMDL
