MODEL 1
REMARK VINA RESULT:      -3.6      0.000      0.000
REMARK  5 active torsions:
REMARK  status: ('A' for Active; 'I' for Inactive)
REMARK    1  A    between atoms: C_10  and  N_1 
REMARK    2  A    between atoms: S_7  and  C_4 
REMARK    3  A    between atoms: C_9  and  C_6 
REMARK    4  A    between atoms: C_8  and  S_7 
REMARK    5  A    between atoms: N_14  and  C_13 
ROOT
ATOM      1  N   UNL d   1     -41.769-122.539 -51.117  0.00  0.00    -0.241 N 
ATOM      2  C   UNL d   1     -41.660-121.760 -51.272  0.00  0.00     0.268 A 
ATOM      3  C   UNL d   1     -41.724-122.982 -51.802  0.00  0.00     0.273 A 
ATOM      4  C   UNL d   1     -41.579-122.450 -52.416  0.00  0.00     0.091 A 
ATOM      5  C   UNL d   1     -41.540-121.688 -52.085  0.00  0.00     0.072 A 
ATOM      6  O   UNL d   1     -41.672-121.166 -50.704  0.00  0.00    -0.267 OA
ATOM      7  O   UNL d   1     -41.811-123.817 -51.857  0.00  0.00    -0.266 OA
ENDROOT
BRANCH   4   8
ATOM      8  S   UNL d   1     -41.506-122.734 -53.175  0.00  0.00    -0.082 SA
BRANCH   8   9
ATOM      9  C   UNL d   1     -41.638-122.236 -53.841  0.00  0.00     0.035 A 
ATOM     10  C   UNL d   1     -41.788-122.566 -54.603  0.00  0.00     0.070 A 
ATOM     11  C   UNL d   1     -41.911-122.042 -55.226  0.00  0.00     0.007 A 
ATOM     12  C   UNL d   1     -41.886-121.217 -55.097  0.00  0.00     0.000 A 
ATOM     13  C   UNL d   1     -41.735-120.908 -54.330  0.00  0.00     0.001 A 
ATOM     14  C   UNL d   1     -41.612-121.421 -53.708  0.00  0.00     0.007 A 
BRANCH  10  15
ATOM     15  C   UNL d   1     -41.811-123.361 -54.718  0.00  0.00     0.211 C 
ATOM     16  O   UNL d   1     -41.146-123.750 -54.998  0.00  0.00    -0.644 OA
ATOM     17  O   UNL d   1     -42.476-123.816 -54.568  0.00  0.00    -0.644 OA
ENDBRANCH  10  15
ENDBRANCH   8   9
ENDBRANCH   4   8
BRANCH   1  18
ATOM     18  C   UNL d   1     -41.910-122.801 -50.310  0.00  0.00     0.070 A 
ATOM     19  C   UNL d   1     -41.320-123.164 -49.891  0.00  0.00     0.019 A 
ATOM     20  C   UNL d   1     -41.472-123.412 -49.112  0.00  0.00     0.019 A 
ATOM     21  C   UNL d   1     -42.215-123.286 -48.778  0.00  0.00     0.064 A 
ATOM     22  C   UNL d   1     -42.814-122.915 -49.210  0.00  0.00     0.019 A 
ATOM     23  C   UNL d   1     -42.666-122.669 -49.980  0.00  0.00     0.019 A 
BRANCH  21  24
ATOM     24  N   UNL d   1     -42.365-123.528 -48.015  0.00  0.00    -0.301 N 
ATOM     25  C   UNL d   1     -41.754-123.513 -47.458  0.00  0.00     0.100 C 
ATOM     26  C   UNL d   1     -43.115-123.781 -47.813  0.00  0.00     0.100 C 
ENDBRANCH  21  24
ENDBRANCH   1  18
TORSDOF 5
ENDMDL
MODEL 2
REMARK VINA RESULT:      -1.3      1.492      5.033
REMARK  5 active torsions:
REMARK  status: ('A' for Active; 'I' for Inactive)
REMARK    1  A    between atoms: C_10  and  N_1 
REMARK    2  A    between atoms: S_7  and  C_4 
REMARK    3  A    between atoms: C_9  and  C_6 
REMARK    4  A    between atoms: C_8  and  S_7 
REMARK    5  A    between atoms: N_14  and  C_13 
ROOT
ATOM      1  N   UNL d   1     -41.700-122.443 -52.269  0.00  0.00    -0.241 N 
ATOM      2  C   UNL d   1     -41.418-121.846 -51.815  0.00  0.00     0.268 A 
ATOM      3  C   UNL d   1     -41.951-123.069 -51.808  0.00  0.00     0.273 A 
ATOM      4  C   UNL d   1     -41.817-122.849 -51.023  0.00  0.00     0.091 A 
ATOM      5  C   UNL d   1     -41.485-122.087 -51.029  0.00  0.00     0.072 A 
ATOM      6  O   UNL d   1     -41.122-121.137 -52.107  0.00  0.00    -0.267 OA
ATOM      7  O   UNL d   1     -42.279-123.790 -52.088  0.00  0.00    -0.266 OA
ENDROOT
BRANCH   4   8
ATOM      8  S   UNL d   1     -42.015-123.368 -50.428  0.00  0.00    -0.082 SA
BRANCH   8   9
ATOM      9  C   UNL d   1     -41.969-123.142 -49.619  0.00  0.00     0.035 A 
ATOM     10  C   UNL d   1     -42.669-123.002 -49.170  0.00  0.00     0.070 A 
ATOM     11  C   UNL d   1     -42.577-122.783 -48.382  0.00  0.00     0.007 A 
ATOM     12  C   UNL d   1     -41.814-122.704 -48.050  0.00  0.00     0.000 A 
ATOM     13  C   UNL d   1     -41.129-122.847 -48.514  0.00  0.00     0.001 A 
ATOM     14  C   UNL d   1     -41.212-123.065 -49.296  0.00  0.00     0.007 A 
BRANCH  10  15
ATOM     15  C   UNL d   1     -43.399-123.081 -49.497  0.00  0.00     0.211 C 
ATOM     16  O   UNL d   1     -43.856-122.415 -49.633  0.00  0.00    -0.644 OA
ATOM     17  O   UNL d   1     -43.720-123.805 -49.708  0.00  0.00    -0.644 OA
ENDBRANCH  10  15
ENDBRANCH   8   9
ENDBRANCH   4   8
BRANCH   1  18
ATOM     18  C   UNL d   1     -41.708-122.364 -53.125  0.00  0.00     0.070 A 
ATOM     19  C   UNL d   1     -42.210-121.839 -53.482  0.00  0.00     0.019 A 
ATOM     20  C   UNL d   1     -42.205-121.775 -54.311  0.00  0.00     0.019 A 
ATOM     21  C   UNL d   1     -41.694-122.243 -54.756  0.00  0.00     0.064 A 
ATOM     22  C   UNL d   1     -41.183-122.778 -54.388  0.00  0.00     0.019 A 
ATOM     23  C   UNL d   1     -41.186-122.843 -53.570  0.00  0.00     0.019 A 
BRANCH  21  24
ATOM     24  N   UNL d   1     -41.689-122.180 -55.569  0.00  0.00    -0.301 N 
ATOM     25  C   UNL d   1     -41.231-122.707 -56.013  0.00  0.00     0.100 C 
ATOM     26  C   UNL d   1     -42.135-121.600 -55.930  0.00  0.00     0.100 C 
ENDBRANCH  21  24
ENDBRANCH   1  18
TORSDOF 5
ENDMDL
