MODEL 1
REMARK VINA RESULT:      42.7      0.000      0.000
REMARK  7 active torsions:
REMARK  status: ('A' for Active; 'I' for Inactive)
REMARK    1  A    between atoms: C_4  and  S_1 
REMARK    2  A    between atoms: N_6  and  S_1 
REMARK    3  A    between atoms: S_2  and  N_3 
REMARK    4  A    between atoms: C_8  and  S_2 
REMARK    5  A    between atoms: N_3  and  C_7 
REMARK    6  A    between atoms: C_20  and  N_13 
REMARK    7  A    between atoms: C_18  and  C_20 
ROOT
ATOM      1  C   UNL d   1      45.181 -14.931  44.288  0.00  0.00     0.105 A 
ATOM      2  C   UNL d   1      45.522 -14.271  43.931  0.00  0.00     0.029 A 
ATOM      3  C   UNL d   1      45.223 -13.517  44.083  0.00  0.00     0.076 A 
ATOM      4  C   UNL d   1      44.532 -14.833  44.805  0.00  0.00     0.013 A 
ATOM      5  C   UNL d   1      44.586 -13.422  44.590  0.00  0.00     0.017 A 
ATOM      6  C   UNL d   1      44.239 -14.076  44.952  0.00  0.00     0.002 A 
ATOM      7  C   UNL d   1      46.162 -14.370  43.422  0.00  0.00     0.002 C 
ATOM      8  C   UNL d   1      44.290 -12.666  44.740  0.00  0.00     0.002 C 
ENDROOT
BRANCH   1   9
ATOM      9  S   UNL d   1      45.480 -15.685  44.136  0.00  0.00     0.272 S 
ATOM     10  O   UNL d   1      46.267 -15.856  44.302  0.00  0.00    -0.200 OA
ATOM     11  O   UNL d   1      44.986 -16.265  43.818  0.00  0.00    -0.200 OA
BRANCH   9  12
ATOM     12  N   UNL d   1      45.771 -16.441  43.982  0.00  0.00    -0.226 N 
ATOM     13  C   UNL d   1      45.897 -16.675  43.206  0.00  0.00     0.111 A 
ATOM     14  C   UNL d   1      46.188 -17.431  43.052  0.00  0.00     0.100 A 
ATOM     15  N   UNL d   1      46.352 -17.946  43.674  0.00  0.00    -0.300 N 
ATOM     16  C   UNL d   1      46.223 -17.704  44.450  0.00  0.00     0.100 A 
ATOM     17  C   UNL d   1      45.932 -16.947  44.604  0.00  0.00     0.111 A 
BRANCH  15  18
ATOM     18  C   UNL d   1      46.643 -18.701  43.511  0.00  0.00     0.080 C 
BRANCH  18  19
ATOM     19  C   UNL d   1      46.285 -19.173  42.935  0.00  0.00     0.018 C 
ATOM     20  C   UNL d   1      46.502 -19.091  42.143  0.00  0.00     0.002 C 
ATOM     21  C   UNL d   1      45.711 -19.724  43.150  0.00  0.00     0.002 C 
ENDBRANCH  18  19
ENDBRANCH  15  18
ENDBRANCH   9  12
ENDBRANCH   1   9
BRANCH   3  22
ATOM     22  N   UNL d   1      45.569 -12.864  43.723  0.00  0.00    -0.229 N 
ATOM     23  C   UNL d   1      46.065 -12.360  44.158  0.00  0.00     0.111 C 
BRANCH  22  24
ATOM     24  S   UNL d   1      45.424 -12.707  42.926  0.00  0.00     0.271 S 
ATOM     25  O   UNL d   1      46.080 -13.160  43.143  0.00  0.00    -0.200 OA
ATOM     26  O   UNL d   1      44.917 -12.414  43.512  0.00  0.00    -0.200 OA
BRANCH  24  27
ATOM     27  C   UNL d   1      45.279 -12.550  42.129  0.00  0.00     0.104 A 
ATOM     28  C   UNL d   1      44.508 -12.423  41.867  0.00  0.00     0.013 A 
ATOM     29  C   UNL d   1      44.366 -12.269  41.082  0.00  0.00     0.001 A 
ATOM     30  C   UNL d   1      44.983 -12.237  40.548  0.00  0.00     0.000 A 
ATOM     31  C   UNL d   1      45.759 -12.362  40.797  0.00  0.00     0.001 A 
ATOM     32  C   UNL d   1      44.838 -12.080  39.752  0.00  0.00     0.000 C 
ATOM     33  C   UNL d   1      45.908 -12.519  41.593  0.00  0.00     0.013 A 
ENDBRANCH  24  27
ENDBRANCH  22  24
ENDBRANCH   3  22
TORSDOF 7
ENDMDL
MODEL 2
REMARK VINA RESULT:      44.7      1.557      5.377
REMARK  7 active torsions:
REMARK  status: ('A' for Active; 'I' for Inactive)
REMARK    1  A    between atoms: C_4  and  S_1 
REMARK    2  A    between atoms: N_6  and  S_1 
REMARK    3  A    between atoms: S_2  and  N_3 
REMARK    4  A    between atoms: C_8  and  S_2 
REMARK    5  A    between atoms: N_3  and  C_7 
REMARK    6  A    between atoms: C_20  and  N_13 
REMARK    7  A    between atoms: C_18  and  C_20 
ROOT
ATOM      1  C   UNL d   1      45.069 -16.870  44.575  0.00  0.00     0.105 A 
ATOM      2  C   UNL d   1      45.661 -17.401  44.359  0.00  0.00     0.029 A 
ATOM      3  C   UNL d   1      45.540 -18.213  44.440  0.00  0.00     0.076 A 
ATOM      4  C   UNL d   1      44.346 -17.159  44.877  0.00  0.00     0.013 A 
ATOM      5  C   UNL d   1      44.830 -18.495  44.736  0.00  0.00     0.017 A 
ATOM      6  C   UNL d   1      44.232 -17.972  44.955  0.00  0.00     0.002 A 
ATOM      7  C   UNL d   1      46.374 -17.114  44.061  0.00  0.00     0.002 C 
ATOM      8  C   UNL d   1      44.712 -19.307  44.815  0.00  0.00     0.002 C 
ENDROOT
BRANCH   1   9
ATOM      9  S   UNL d   1      45.190 -16.058  44.494  0.00  0.00     0.272 S 
ATOM     10  O   UNL d   1      44.741 -15.530  44.936  0.00  0.00    -0.200 OA
ATOM     11  O   UNL d   1      45.763 -15.779  43.968  0.00  0.00    -0.200 OA
BRANCH   9  12
ATOM     12  N   UNL d   1      45.317 -15.247  44.408  0.00  0.00    -0.226 N 
ATOM     13  C   UNL d   1      45.968 -14.983  43.987  0.00  0.00     0.111 A 
ATOM     14  C   UNL d   1      46.095 -14.172  43.900  0.00  0.00     0.100 A 
ATOM     15  N   UNL d   1      45.569 -13.634  44.236  0.00  0.00    -0.300 N 
ATOM     16  C   UNL d   1      44.917 -13.907  44.657  0.00  0.00     0.100 A 
ATOM     17  C   UNL d   1      44.790 -14.718  44.744  0.00  0.00     0.111 A 
BRANCH  15  18
ATOM     18  C   UNL d   1      45.702 -12.825  44.145  0.00  0.00     0.080 C 
BRANCH  18  19
ATOM     19  C   UNL d   1      45.339 -12.406  43.532  0.00  0.00     0.018 C 
ATOM     20  C   UNL d   1      44.536 -12.221  43.580  0.00  0.00     0.002 C 
ATOM     21  C   UNL d   1      45.776 -12.176  42.873  0.00  0.00     0.002 C 
ENDBRANCH  18  19
ENDBRANCH  15  18
ENDBRANCH   9  12
ENDBRANCH   1   9
BRANCH   3  22
ATOM     22  N   UNL d   1      46.137 -18.735  44.221  0.00  0.00    -0.229 N 
ATOM     23  C   UNL d   1      46.639 -19.060  44.797  0.00  0.00     0.111 C 
BRANCH  22  24
ATOM     24  S   UNL d   1      46.238 -18.938  43.428  0.00  0.00     0.271 S 
ATOM     25  O   UNL d   1      46.603 -19.387  44.018  0.00  0.00    -0.200 OA
ATOM     26  O   UNL d   1      45.773 -18.286  43.640  0.00  0.00    -0.200 OA
BRANCH  24  27
ATOM     27  C   UNL d   1      46.340 -19.141  42.635  0.00  0.00     0.104 A 
ATOM     28  C   UNL d   1      46.277 -19.927  42.398  0.00  0.00     0.013 A 
ATOM     29  C   UNL d   1      46.376 -20.127  41.617  0.00  0.00     0.001 A 
ATOM     30  C   UNL d   1      46.540 -19.551  41.062  0.00  0.00     0.000 A 
ATOM     31  C   UNL d   1      46.606 -18.761  41.284  0.00  0.00     0.001 A 
ATOM     32  C   UNL d   1      46.641 -19.754  40.268  0.00  0.00     0.000 C 
ATOM     33  C   UNL d   1      46.505 -18.553  42.076  0.00  0.00     0.013 A 
ENDBRANCH  24  27
ENDBRANCH  22  24
ENDBRANCH   3  22
TORSDOF 7
ENDMDL
