MODEL 1
REMARK VINA RESULT:       9.0      0.000      0.000
REMARK  3 active torsions:
REMARK  status: ('A' for Active; 'I' for Inactive)
REMARK    1  A    between atoms: C_10  and  C_4 
REMARK    2  A    between atoms: C_13  and  C_10 
REMARK    3  A    between atoms: C_11  and  C_13 
ROOT
ATOM      1  C   UNL d   1      45.879 -15.085  36.573  0.00  0.00     0.752 A 
ATOM      2  N   UNL d   1      45.421 -14.528  36.972  0.00  0.00    -0.056 N 
ATOM      3  N   UNL d   1      45.543 -15.806  36.362  0.00  0.00    -0.059 NA
ATOM      4  C   UNL d   1      44.301 -15.411  36.946  0.00  0.00     0.037 A 
ATOM      5  C   UNL d   1      44.630 -14.686  37.161  0.00  0.00     0.102 A 
ATOM      6  N   UNL d   1      46.625 -14.773  36.467  0.00  0.00    -0.035 NA
ATOM      7  C   UNL d   1      44.757 -15.971  36.546  0.00  0.00     0.101 A 
ATOM      8  N   UNL d   1      45.894 -13.869  37.111  0.00  0.00    -0.127 NA
ATOM      9  C   UNL d   1      46.646 -14.016  36.798  0.00  0.00     0.239 A 
ATOM     10  C   UNL d   1      44.181 -14.130  37.557  0.00  0.00     0.021 C 
ATOM     11  C   UNL d   1      44.427 -16.696  36.330  0.00  0.00     0.021 C 
ENDROOT
BRANCH   4  12
ATOM     12  C   UNL d   1      43.521 -15.580  37.126  0.00  0.00     0.009 C 
BRANCH  12  13
ATOM     13  C   UNL d   1      42.953 -15.608  36.529  0.00  0.00     0.070 C 
BRANCH  13  14
ATOM     14  C   UNL d   1      42.153 -15.558  36.721  0.00  0.00     0.211 C 
ATOM     15  O   UNL d   1      41.636 -16.164  36.508  0.00  0.00    -0.644 OA
ATOM     16  O   UNL d   1      41.867 -14.900  37.128  0.00  0.00    -0.644 OA
ENDBRANCH  13  14
ENDBRANCH  12  13
ENDBRANCH   4  12
TORSDOF 3
ENDMDL
MODEL 2
REMARK VINA RESULT:      11.1      7.665      7.997
REMARK  3 active torsions:
REMARK  status: ('A' for Active; 'I' for Inactive)
REMARK    1  A    between atoms: C_10  and  C_4 
REMARK    2  A    between atoms: C_13  and  C_10 
REMARK    3  A    between atoms: C_11  and  C_13 
ROOT
ATOM      1  C   UNL d   1      46.527 -19.914  42.424  0.00  0.00     0.752 A 
ATOM      2  N   UNL d   1      46.564 -19.110  42.250  0.00  0.00    -0.056 N 
ATOM      3  N   UNL d   1      46.453 -20.154  43.208  0.00  0.00    -0.059 NA
ATOM      4  C   UNL d   1      46.454 -18.792  43.636  0.00  0.00     0.037 A 
ATOM      5  C   UNL d   1      46.528 -18.543  42.853  0.00  0.00     0.102 A 
ATOM      6  N   UNL d   1      46.575 -20.329  41.723  0.00  0.00    -0.035 NA
ATOM      7  C   UNL d   1      46.417 -19.596  43.814  0.00  0.00     0.101 A 
ATOM      8  N   UNL d   1      46.635 -19.034  41.434  0.00  0.00    -0.127 NA
ATOM      9  C   UNL d   1      46.643 -19.791  41.100  0.00  0.00     0.239 A 
ATOM     10  C   UNL d   1      46.565 -17.746  42.674  0.00  0.00     0.021 C 
ATOM     11  C   UNL d   1      46.344 -19.845  44.597  0.00  0.00     0.021 C 
ENDROOT
BRANCH   4  12
ATOM     12  C   UNL d   1      46.418 -18.242  44.241  0.00  0.00     0.009 C 
BRANCH  12  13
ATOM     13  C   UNL d   1      45.778 -17.725  44.295  0.00  0.00     0.070 C 
BRANCH  13  14
ATOM     14  C   UNL d   1      45.876 -16.985  44.644  0.00  0.00     0.211 C 
ATOM     15  O   UNL d   1      46.608 -16.766  44.955  0.00  0.00    -0.644 OA
ATOM     16  O   UNL d   1      45.241 -16.461  44.684  0.00  0.00    -0.644 OA
ENDBRANCH  13  14
ENDBRANCH  12  13
ENDBRANCH   4  12
TORSDOF 3
ENDMDL
