MODEL 1
REMARK VINA RESULT:      45.8      0.000      0.000
REMARK  6 active torsions:
REMARK  status: ('A' for Active; 'I' for Inactive)
REMARK    1  A    between atoms: C_2  and  C_1 
REMARK    2  A    between atoms: C_4  and  C_1 
REMARK    3  A    between atoms: C_6  and  C_2 
REMARK    4  A    between atoms: O_12  and  C_3 
REMARK    5  A    between atoms: C_8  and  C_4 
REMARK    6  A    between atoms: O_13  and  C_10 
ROOT
ATOM      1  C   UNL d   1     -51.427  26.031  33.381  0.00  0.00     0.096 A 
ATOM      2  C   UNL d   1     -51.641  25.237  33.444  0.00  0.00     0.048 A 
ATOM      3  C   UNL d   1     -50.630  26.243  33.369  0.00  0.00     0.022 A 
ATOM      4  C   UNL d   1     -50.043  25.662  33.420  0.00  0.00     0.004 A 
ATOM      5  C   UNL d   1     -51.057  24.654  33.495  0.00  0.00     0.096 A 
ATOM      6  C   UNL d   1     -50.256  24.868  33.483  0.00  0.00     0.024 A 
ENDROOT
BRANCH   3   7
ATOM      7  C   UNL d   1     -50.417  27.036  33.306  0.00  0.00     0.005 C 
BRANCH   7   8
ATOM      8  C   UNL d   1     -49.723  27.306  33.662  0.00  0.00     0.042 C 
BRANCH   8   9
ATOM      9  C   UNL d   1     -49.668  28.073  33.952  0.00  0.00     0.196 C 
ATOM     10  O   UNL d   1     -50.145  28.670  33.634  0.00  0.00    -0.287 OA
BRANCH   9  11
ATOM     11  C   UNL d   1     -49.141  28.252  34.557  0.00  0.00     0.039 A 
ATOM     12  C   UNL d   1     -48.517  28.773  34.425  0.00  0.00     0.003 A 
ATOM     13  C   UNL d   1     -47.992  28.945  35.047  0.00  0.00     0.000 A 
ATOM     14  C   UNL d   1     -48.091  28.600  35.791  0.00  0.00     0.000 A 
ATOM     15  C   UNL d   1     -48.722  28.076  35.920  0.00  0.00     0.000 A 
ATOM     16  C   UNL d   1     -49.241  27.904  35.309  0.00  0.00     0.003 A 
ENDBRANCH   9  11
ENDBRANCH   8   9
ENDBRANCH   7   8
ENDBRANCH   3   7
BRANCH   1  17
ATOM     17  O   UNL d   1     -52.012  26.614  33.330  0.00  0.00    -0.328 OA
ATOM     18  C   UNL d   1     -52.808  26.400  33.307  0.00  0.00     0.181 C 
ENDBRANCH   1  17
BRANCH   5  19
ATOM     19  O   UNL d   1     -51.270  23.859  33.559  0.00  0.00    -0.328 OA
ATOM     20  C   UNL d   1     -50.750  23.269  33.306  0.00  0.00     0.181 C 
ENDBRANCH   5  19
TORSDOF 6
ENDMDL
