MODEL 1
REMARK VINA RESULT:      81.5      0.000      0.000
REMARK  6 active torsions:
REMARK  status: ('A' for Active; 'I' for Inactive)
REMARK    1  A    between atoms: N_13  and  C_2 
REMARK    2  A    between atoms: C_22  and  C_5 
REMARK    3  A    between atoms: C_23  and  C_6 
REMARK    4  A    between atoms: C_7  and  S_17 
REMARK       I    between atoms: C_16  and  N_13 
REMARK    5  A    between atoms: C_25  and  C_16 
REMARK    6  A    between atoms: S_17  and  C_25 
ROOT
ATOM      1  C   UNL d   1      14.213  13.841  -2.350  0.00  0.00     0.092 A 
ATOM      2  C   UNL d   1      14.877  14.577  -1.326  0.00  0.00     0.057 A 
ATOM      3  C   UNL d   1      14.561  13.873  -1.601  0.00  0.00     0.016 A 
ATOM      4  C   UNL d   1      14.186  14.516  -2.816  0.00  0.00     0.120 A 
ATOM      5  N   UNL d   1      14.504  15.227  -2.543  0.00  0.00    -0.239 NA
ATOM      6  C   UNL d   1      14.851  15.258  -1.795  0.00  0.00     0.081 A 
ATOM      7  C   UNL d   1      15.222  14.601  -0.580  0.00  0.00     0.193 A 
ATOM      8  C   UNL d   1      13.896  13.130  -2.623  0.00  0.00     0.103 C 
ATOM      9  N   UNL d   1      13.575  12.425  -2.906  0.00  0.00    -0.191 NA
ATOM     10  C   UNL d   1      15.517  15.998  -0.770  0.00  0.00     0.042 A 
ATOM     11  C   UNL d   1      15.547  15.317  -0.294  0.00  0.00     0.019 A 
ATOM     12  C   UNL d   1      15.168  15.968  -1.523  0.00  0.00    -0.003 A 
ATOM     13  O   UNL d   1      15.251  13.923  -0.107  0.00  0.00    -0.287 OA
ATOM     14  C   UNL d   1      15.598  16.766  -1.055  0.00  0.00     0.009 C 
ATOM     15  C   UNL d   1      15.865  16.021  -0.015  0.00  0.00     0.009 C 
ENDROOT
BRANCH   4  16
ATOM     16  S   UNL d   1      13.839  14.486  -3.565  0.00  0.00    -0.062 SA
BRANCH  16  17
ATOM     17  C   UNL d   1      14.264  14.731  -4.231  0.00  0.00     0.100 C 
BRANCH  17  18
ATOM     18  C   UNL d   1      13.950  15.314  -4.724  0.00  0.00     0.302 C 
ATOM     19  N   UNL d   1      14.378  15.992  -4.887  0.00  0.00    -0.018 NA
ATOM     20  O   UNL d   1      13.205  15.215  -5.053  0.00  0.00    -0.264 OA
BRANCH  19  21
ATOM     21  C   UNL d   1      14.059  16.584  -5.387  0.00  0.00     0.760 A 
ATOM     22  N   UNL d   1      14.113  17.397  -5.273  0.00  0.00    -0.051 NA
ATOM     23  C   UNL d   1      13.725  17.762  -5.893  0.00  0.00     0.147 A 
ATOM     24  S   UNL d   1      13.433  17.180  -6.386  0.00  0.00     0.052 SA
ATOM     25  N   UNL d   1      13.641  16.450  -6.071  0.00  0.00    -0.019 NA
BRANCH  23  26
ATOM     26  C   UNL d   1      13.623  18.570  -6.032  0.00  0.00     0.026 A 
ATOM     27  C   UNL d   1      12.869  18.872  -6.171  0.00  0.00     0.002 A 
ATOM     28  C   UNL d   1      12.769  19.682  -6.311  0.00  0.00     0.000 A 
ATOM     29  C   UNL d   1      13.413  20.188  -6.313  0.00  0.00     0.000 A 
ATOM     30  C   UNL d   1      14.166  19.887  -6.174  0.00  0.00     0.000 A 
ATOM     31  C   UNL d   1      14.274  19.072  -6.033  0.00  0.00     0.002 A 
ENDBRANCH  23  26
ENDBRANCH  19  21
ENDBRANCH  17  18
ENDBRANCH  16  17
ENDBRANCH   4  16
BRANCH   3  32
ATOM     32  C   UNL d   1      14.587  13.197  -1.136  0.00  0.00     0.001 A 
ATOM     33  C   UNL d   1      14.062  13.115  -0.502  0.00  0.00     0.000 A 
ATOM     34  C   UNL d   1      14.089  12.439  -0.037  0.00  0.00     0.000 A 
ATOM     35  C   UNL d   1      14.633  11.841  -0.195  0.00  0.00     0.000 A 
ATOM     36  C   UNL d   1      15.157  11.923  -0.828  0.00  0.00     0.000 A 
ATOM     37  C   UNL d   1      15.134  12.603  -1.300  0.00  0.00     0.000 A 
ENDBRANCH   3  32
TORSDOF 6
ENDMDL
