MODEL 1
REMARK VINA RESULT:      13.2      0.000      0.000
REMARK  4 active torsions:
REMARK  status: ('A' for Active; 'I' for Inactive)
REMARK    1  A    between atoms: N_3  and  S_1 
REMARK    2  A    between atoms: C_4  and  S_1 
REMARK    3  A    between atoms: C_2  and  C_5 
REMARK    4  A    between atoms: C_8  and  N_3 
ROOT
ATOM      1  N   UNL d   1      46.388 -16.580  44.659  0.00  0.00    -0.158 NA
ENDROOT
BRANCH   1   2
ATOM      2  S   UNL d   1      46.328 -17.288  44.242  0.00  0.00     0.285 S 
ATOM      3  O   UNL d   1      46.266 -17.717  44.953  0.00  0.00    -0.198 OA
ATOM      4  O   UNL d   1      46.389 -16.864  43.537  0.00  0.00    -0.198 OA
BRANCH   2   5
ATOM      5  C   UNL d   1      46.267 -18.001  43.831  0.00  0.00     0.105 A 
ATOM      6  C   UNL d   1      46.153 -18.003  43.018  0.00  0.00     0.013 A 
ATOM      7  C   UNL d   1      46.094 -18.712  42.618  0.00  0.00     0.001 A 
ATOM      8  C   UNL d   1      46.148 -19.433  43.023  0.00  0.00     0.000 A 
ATOM      9  C   UNL d   1      46.263 -19.427  43.838  0.00  0.00     0.001 A 
ATOM     10  C   UNL d   1      46.089 -20.149  42.619  0.00  0.00     0.000 C 
ATOM     11  C   UNL d   1      46.324 -18.715  44.248  0.00  0.00     0.013 A 
ENDBRANCH   2   5
ENDBRANCH   1   2
BRANCH   1  12
ATOM     12  C   UNL d   1      45.814 -15.980  44.693  0.00  0.00     0.094 A 
ATOM     13  C   UNL d   1      46.025 -15.199  44.506  0.00  0.00     0.024 A 
ATOM     14  C   UNL d   1      45.450 -14.603  44.541  0.00  0.00     0.073 A 
ATOM     15  C   UNL d   1      44.670 -14.780  44.762  0.00  0.00     0.004 A 
ATOM     16  C   UNL d   1      44.468 -15.562  44.947  0.00  0.00     0.002 A 
ATOM     17  C   UNL d   1      45.042 -16.159  44.912  0.00  0.00     0.020 A 
BRANCH  14  18
ATOM     18  C   UNL d   1      45.653 -13.825  44.356  0.00  0.00     0.419 C 
ATOM     19  F   UNL d   1      45.311 -13.453  43.703  0.00  0.00    -0.166 F 
ATOM     20  F   UNL d   1      46.195 -13.417  44.819  0.00  0.00    -0.166 F 
ATOM     21  F   UNL d   1      45.106 -14.044  43.778  0.00  0.00    -0.166 F 
ENDBRANCH  14  18
ENDBRANCH   1  12
TORSDOF 4
ENDMDL
MODEL 2
REMARK VINA RESULT:      15.8      2.227      4.343
REMARK  4 active torsions:
REMARK  status: ('A' for Active; 'I' for Inactive)
REMARK    1  A    between atoms: N_3  and  S_1 
REMARK    2  A    between atoms: C_4  and  S_1 
REMARK    3  A    between atoms: C_2  and  C_5 
REMARK    4  A    between atoms: C_8  and  N_3 
ROOT
ATOM      1  N   UNL d   1      45.103 -16.898  44.195  0.00  0.00    -0.158 NA
ENDROOT
BRANCH   1   2
ATOM      2  S   UNL d   1      45.321 -16.118  44.348  0.00  0.00     0.285 S 
ATOM      3  O   UNL d   1      44.828 -15.846  43.735  0.00  0.00    -0.198 OA
ATOM      4  O   UNL d   1      45.810 -16.387  44.955  0.00  0.00    -0.198 OA
BRANCH   2   5
ATOM      5  C   UNL d   1      45.535 -15.335  44.495  0.00  0.00     0.105 A 
ATOM      6  C   UNL d   1      46.304 -15.083  44.360  0.00  0.00     0.013 A 
ATOM      7  C   UNL d   1      46.508 -14.307  44.508  0.00  0.00     0.001 A 
ATOM      8  C   UNL d   1      45.947 -13.768  44.795  0.00  0.00     0.000 A 
ATOM      9  C   UNL d   1      45.177 -14.025  44.929  0.00  0.00     0.001 A 
ATOM     10  C   UNL d   1      46.154 -12.983  44.944  0.00  0.00     0.000 C 
ATOM     11  C   UNL d   1      44.964 -14.807  44.782  0.00  0.00     0.013 A 
ENDBRANCH   2   5
ENDBRANCH   1   2
BRANCH   1  12
ATOM     12  C   UNL d   1      45.618 -17.530  44.036  0.00  0.00     0.094 A 
ATOM     13  C   UNL d   1      45.682 -17.823  43.261  0.00  0.00     0.024 A 
ATOM     14  C   UNL d   1      46.197 -18.453  43.106  0.00  0.00     0.073 A 
ATOM     15  C   UNL d   1      46.647 -18.792  43.715  0.00  0.00     0.004 A 
ATOM     16  C   UNL d   1      46.578 -18.495  44.485  0.00  0.00     0.002 A 
ATOM     17  C   UNL d   1      46.063 -17.864  44.642  0.00  0.00     0.020 A 
BRANCH  14  18
ATOM     18  C   UNL d   1      46.265 -18.749  42.339  0.00  0.00     0.419 C 
ATOM     19  F   UNL d   1      46.096 -19.542  42.185  0.00  0.00    -0.166 F 
ATOM     20  F   UNL d   1      46.499 -18.257  41.724  0.00  0.00    -0.166 F 
ATOM     21  F   UNL d   1      46.022 -19.394  42.793  0.00  0.00    -0.166 F 
ENDBRANCH  14  18
ENDBRANCH   1  12
TORSDOF 4
ENDMDL
MODEL 3
REMARK VINA RESULT:      15.9      1.020      1.588
REMARK  4 active torsions:
REMARK  status: ('A' for Active; 'I' for Inactive)
REMARK    1  A    between atoms: N_3  and  S_1 
REMARK    2  A    between atoms: C_4  and  S_1 
REMARK    3  A    between atoms: C_2  and  C_5 
REMARK    4  A    between atoms: C_8  and  N_3 
ROOT
ATOM      1  N   UNL d   1      45.395 -15.749  44.864  0.00  0.00    -0.158 NA
ENDROOT
BRANCH   1   2
ATOM      2  S   UNL d   1      45.653 -16.427  44.474  0.00  0.00     0.285 S 
ATOM      3  O   UNL d   1      44.867 -16.676  44.357  0.00  0.00    -0.198 OA
ATOM      4  O   UNL d   1      46.432 -16.182  44.589  0.00  0.00    -0.198 OA
BRANCH   2   5
ATOM      5  C   UNL d   1      45.905 -17.109  44.083  0.00  0.00     0.105 A 
ATOM      6  C   UNL d   1      46.387 -17.652  44.465  0.00  0.00     0.013 A 
ATOM      7  C   UNL d   1      46.631 -18.324  44.071  0.00  0.00     0.001 A 
ATOM      8  C   UNL d   1      46.399 -18.466  43.289  0.00  0.00     0.000 A 
ATOM      9  C   UNL d   1      45.916 -17.919  42.909  0.00  0.00     0.001 A 
ATOM     10  C   UNL d   1      46.646 -19.145  42.891  0.00  0.00     0.000 C 
ATOM     11  C   UNL d   1      45.664 -17.238  43.300  0.00  0.00     0.013 A 
ENDBRANCH   2   5
ENDBRANCH   1   2
BRANCH   1  12
ATOM     12  C   UNL d   1      45.559 -14.965  44.645  0.00  0.00     0.094 A 
ATOM     13  C   UNL d   1      45.051 -14.570  44.120  0.00  0.00     0.024 A 
ATOM     14  C   UNL d   1      45.217 -13.787  43.904  0.00  0.00     0.073 A 
ATOM     15  C   UNL d   1      45.884 -13.398  44.206  0.00  0.00     0.004 A 
ATOM     16  C   UNL d   1      46.386 -13.798  44.730  0.00  0.00     0.002 A 
ATOM     17  C   UNL d   1      46.221 -14.581  44.947  0.00  0.00     0.020 A 
BRANCH  14  18
ATOM     18  C   UNL d   1      44.716 -13.390  43.383  0.00  0.00     0.419 C 
ATOM     19  F   UNL d   1      45.024 -12.829  42.860  0.00  0.00    -0.166 F 
ATOM     20  F   UNL d   1      43.910 -13.548  43.379  0.00  0.00    -0.166 F 
ATOM     21  F   UNL d   1      45.468 -13.088  43.225  0.00  0.00    -0.166 F 
ENDBRANCH  14  18
ENDBRANCH   1  12
TORSDOF 4
ENDMDL
