MODEL 1
REMARK VINA RESULT:      -5.5      0.000      0.000
REMARK  5 active torsions:
REMARK  status: ('A' for Active; 'I' for Inactive)
REMARK    1  A    between atoms: C_3  and  C_1 
REMARK    2  A    between atoms: C_5  and  C_3 
REMARK    3  A    between atoms: C_13  and  C_5 
REMARK    4  A    between atoms: C_10  and  C_11 
REMARK    5  A    between atoms: O_16  and  C_10 
ROOT
ATOM      1  C   UNL d   1     -41.378-122.372 -52.104  0.00  0.00     0.092 C 
ATOM      2  C   UNL d   1     -41.250-121.669 -51.687  0.00  0.00     0.103 C 
ATOM      3  N   UNL d   1     -41.123-120.965 -51.275  0.00  0.00    -0.191 NA
ENDROOT
BRANCH   1   4
ATOM      4  C   UNL d   1     -41.562-122.348 -52.908  0.00  0.00     0.120 A 
ATOM      5  N   UNL d   1     -42.082-121.810 -53.267  0.00  0.00    -0.238 NA
ATOM      6  C   UNL d   1     -42.103-121.985 -54.078  0.00  0.00     0.088 A 
ATOM      7  C   UNL d   1     -42.517-121.638 -54.700  0.00  0.00     0.020 A 
ATOM      8  C   UNL d   1     -41.599-122.624 -54.212  0.00  0.00     0.049 A 
ATOM      9  C   UNL d   1     -42.424-121.938 -55.465  0.00  0.00     0.002 A 
ATOM     10  C   UNL d   1     -41.923-122.577 -55.608  0.00  0.00     0.001 A 
ATOM     11  C   UNL d   1     -41.509-122.923 -54.986  0.00  0.00     0.008 A 
ATOM     12  S   UNL d   1     -41.266-122.847 -53.489  0.00  0.00    -0.066 SA
ENDBRANCH   1   4
BRANCH   1  13
ATOM     13  C   UNL d   1     -41.320-123.092 -51.709  0.00  0.00     0.012 C 
BRANCH  13  14
ATOM     14  C   UNL d   1     -41.646-123.182 -50.961  0.00  0.00     0.001 A 
ATOM     15  C   UNL d   1     -41.163-123.218 -50.301  0.00  0.00     0.000 A 
ATOM     16  C   UNL d   1     -41.487-123.308 -49.548  0.00  0.00     0.005 A 
ATOM     17  C   UNL d   1     -42.306-123.362 -49.455  0.00  0.00     0.063 A 
ATOM     18  C   UNL d   1     -42.799-123.327 -50.114  0.00  0.00     0.005 A 
ATOM     19  C   UNL d   1     -42.473-123.236 -50.872  0.00  0.00     0.000 A 
BRANCH  17  20
ATOM     20  C   UNL d   1     -42.629-123.452 -48.702  0.00  0.00     0.296 C 
ATOM     21  O   UNL d   1     -43.399-123.753 -48.616  0.00  0.00    -0.259 OA
BRANCH  20  22
ATOM     22  O   UNL d   1     -42.191-123.245 -48.036  0.00  0.00    -0.296 OA
ATOM     23  C   UNL d   1     -42.502-123.374 -47.280  0.00  0.00     0.185 C 
ENDBRANCH  20  22
ENDBRANCH  17  20
ENDBRANCH  13  14
ENDBRANCH   1  13
TORSDOF 5
ENDMDL
MODEL 2
REMARK VINA RESULT:      -4.5      2.331      4.937
REMARK  5 active torsions:
REMARK  status: ('A' for Active; 'I' for Inactive)
REMARK    1  A    between atoms: C_3  and  C_1 
REMARK    2  A    between atoms: C_5  and  C_3 
REMARK    3  A    between atoms: C_13  and  C_5 
REMARK    4  A    between atoms: C_10  and  C_11 
REMARK    5  A    between atoms: O_16  and  C_10 
ROOT
ATOM      1  C   UNL d   1     -41.337-122.466 -51.146  0.00  0.00     0.092 C 
ATOM      2  C   UNL d   1     -41.229-121.654 -51.260  0.00  0.00     0.103 C 
ATOM      3  N   UNL d   1     -41.123-120.843 -51.370  0.00  0.00    -0.191 NA
ENDROOT
BRANCH   1   4
ATOM      4  C   UNL d   1     -41.657-122.745 -50.438  0.00  0.00     0.120 A 
ATOM      5  N   UNL d   1     -42.463-122.743 -50.241  0.00  0.00    -0.238 NA
ATOM      6  C   UNL d   1     -42.535-123.072 -49.482  0.00  0.00     0.088 A 
ATOM      7  C   UNL d   1     -43.195-123.209 -49.008  0.00  0.00     0.020 A 
ATOM      8  C   UNL d   1     -41.779-123.272 -49.219  0.00  0.00     0.049 A 
ATOM      9  C   UNL d   1     -43.093-123.551 -48.262  0.00  0.00     0.002 A 
ATOM     10  C   UNL d   1     -42.341-123.754 -47.992  0.00  0.00     0.001 A 
ATOM     11  C   UNL d   1     -41.682-123.617 -48.466  0.00  0.00     0.008 A 
ATOM     12  S   UNL d   1     -41.239-123.069 -49.811  0.00  0.00    -0.066 SA
ENDBRANCH   1   4
BRANCH   1  13
ATOM     13  C   UNL d   1     -41.123-122.990 -51.744  0.00  0.00     0.012 C 
BRANCH  13  14
ATOM     14  C   UNL d   1     -41.357-122.853 -52.519  0.00  0.00     0.001 A 
ATOM     15  C   UNL d   1     -41.123-123.360 -53.117  0.00  0.00     0.000 A 
ATOM     16  C   UNL d   1     -41.356-123.225 -53.897  0.00  0.00     0.005 A 
ATOM     17  C   UNL d   1     -41.831-122.574 -54.079  0.00  0.00     0.063 A 
ATOM     18  C   UNL d   1     -42.071-122.059 -53.482  0.00  0.00     0.005 A 
ATOM     19  C   UNL d   1     -41.836-122.195 -52.698  0.00  0.00     0.000 A 
BRANCH  17  20
ATOM     20  C   UNL d   1     -42.064-122.439 -54.858  0.00  0.00     0.296 C 
ATOM     21  O   UNL d   1     -42.484-123.026 -55.271  0.00  0.00    -0.259 OA
BRANCH  20  22
ATOM     22  O   UNL d   1     -41.883-121.726 -55.227  0.00  0.00    -0.296 OA
ATOM     23  C   UNL d   1     -42.083-121.608 -56.021  0.00  0.00     0.185 C 
ENDBRANCH  20  22
ENDBRANCH  17  20
ENDBRANCH  13  14
ENDBRANCH   1  13
TORSDOF 5
ENDMDL
