MODEL 1
REMARK VINA RESULT:      -3.1      0.000      0.000
REMARK  6 active torsions:
REMARK  status: ('A' for Active; 'I' for Inactive)
REMARK    1  A    between atoms: N_2  and  S_1 
REMARK    2  A    between atoms: C_4  and  S_1 
REMARK    3  A    between atoms: C_3  and  N_2 
REMARK    4  A    between atoms: N_7  and  C_3 
REMARK    5  A    between atoms: C_11  and  N_7 
REMARK    6  A    between atoms: C_15  and  C_14 
ROOT
ATOM      1  S   UNL d   1      33.130  19.717 -22.562  0.00  0.00     0.287 S 
ATOM      2  O   UNL d   1      33.113  20.112 -23.286  0.00  0.00    -0.198 OA
ATOM      3  O   UNL d   1      33.146  19.319 -21.835  0.00  0.00    -0.198 OA
ENDROOT
BRANCH   1   4
ATOM      4  N   UNL d   1      33.240  20.439 -22.170  0.00  0.00    -0.128 NA
BRANCH   4   5
ATOM      5  C   UNL d   1      32.968  21.200 -22.003  0.00  0.00     0.232 C 
ATOM      6  S   UNL d   1      33.219  21.842 -22.457  0.00  0.00    -0.036 SA
BRANCH   5   7
ATOM      7  N   UNL d   1      32.443  21.316 -21.379  0.00  0.00    -0.217 NA
BRANCH   7   8
ATOM      8  C   UNL d   1      32.543  21.969 -20.882  0.00  0.00     0.084 A 
ATOM      9  C   UNL d   1      32.118  22.659 -21.031  0.00  0.00     0.019 A 
ATOM     10  C   UNL d   1      32.212  23.313 -20.541  0.00  0.00     0.002 A 
ATOM     11  C   UNL d   1      32.726  23.278 -19.906  0.00  0.00     0.000 A 
ATOM     12  C   UNL d   1      33.149  22.585 -19.761  0.00  0.00     0.002 A 
ATOM     13  C   UNL d   1      33.056  21.935 -20.247  0.00  0.00     0.019 A 
ENDBRANCH   7   8
ENDBRANCH   5   7
ENDBRANCH   4   5
ENDBRANCH   1   4
BRANCH   1  14
ATOM     14  C   UNL d   1      33.018  18.991 -22.957  0.00  0.00     0.105 A 
ATOM     15  C   UNL d   1      32.818  18.990 -23.757  0.00  0.00     0.013 A 
ATOM     16  C   UNL d   1      32.706  18.264 -24.152  0.00  0.00     0.001 A 
ATOM     17  C   UNL d   1      32.796  17.543 -23.743  0.00  0.00     0.000 A 
ATOM     18  C   UNL d   1      32.998  17.550 -22.938  0.00  0.00     0.001 A 
ATOM     19  C   UNL d   1      33.108  18.269 -22.548  0.00  0.00     0.013 A 
BRANCH  17  20
ATOM     20  C   UNL d   1      32.683  16.831 -24.143  0.00  0.00     0.000 C 
ATOM     21  C   UNL d   1      32.030  16.363 -23.979  0.00  0.00     0.000 C 
ENDBRANCH  17  20
ENDBRANCH   1  14
TORSDOF 6
ENDMDL
MODEL 2
REMARK VINA RESULT:      -3.1      0.900      4.976
REMARK  6 active torsions:
REMARK  status: ('A' for Active; 'I' for Inactive)
REMARK    1  A    between atoms: N_2  and  S_1 
REMARK    2  A    between atoms: C_4  and  S_1 
REMARK    3  A    between atoms: C_3  and  N_2 
REMARK    4  A    between atoms: N_7  and  C_3 
REMARK    5  A    between atoms: C_11  and  N_7 
REMARK    6  A    between atoms: C_15  and  C_14 
ROOT
ATOM      1  S   UNL d   1      33.060  20.348 -22.205  0.00  0.00     0.287 S 
ATOM      2  O   UNL d   1      33.240  20.748 -22.904  0.00  0.00    -0.198 OA
ATOM      3  O   UNL d   1      32.878  19.947 -21.503  0.00  0.00    -0.198 OA
ENDROOT
BRANCH   1   4
ATOM      4  N   UNL d   1      33.214  19.624 -22.579  0.00  0.00    -0.128 NA
BRANCH   4   5
ATOM      5  C   UNL d   1      32.976  19.041 -23.112  0.00  0.00     0.232 C 
ATOM      6  S   UNL d   1      33.210  19.078 -23.903  0.00  0.00    -0.036 SA
BRANCH   5   7
ATOM      7  N   UNL d   1      32.503  18.419 -22.850  0.00  0.00    -0.217 NA
BRANCH   7   8
ATOM      8  C   UNL d   1      32.546  17.688 -23.234  0.00  0.00     0.084 A 
ATOM      9  C   UNL d   1      33.192  17.196 -23.096  0.00  0.00     0.019 A 
ATOM     10  C   UNL d   1      33.241  16.467 -23.474  0.00  0.00     0.002 A 
ATOM     11  C   UNL d   1      32.649  16.231 -23.986  0.00  0.00     0.000 A 
ATOM     12  C   UNL d   1      32.004  16.727 -24.120  0.00  0.00     0.002 A 
ATOM     13  C   UNL d   1      31.954  17.452 -23.745  0.00  0.00     0.019 A 
ENDBRANCH   7   8
ENDBRANCH   5   7
ENDBRANCH   4   5
ENDBRANCH   1   4
BRANCH   1  14
ATOM     14  C   UNL d   1      32.904  21.076 -21.830  0.00  0.00     0.105 A 
ATOM     15  C   UNL d   1      33.036  21.780 -22.239  0.00  0.00     0.013 A 
ATOM     16  C   UNL d   1      32.881  22.508 -21.863  0.00  0.00     0.001 A 
ATOM     17  C   UNL d   1      32.595  22.527 -21.080  0.00  0.00     0.000 A 
ATOM     18  C   UNL d   1      32.464  21.815 -20.674  0.00  0.00     0.001 A 
ATOM     19  C   UNL d   1      32.618  21.095 -21.047  0.00  0.00     0.013 A 
BRANCH  17  20
ATOM     20  C   UNL d   1      32.445  23.253 -20.719  0.00  0.00     0.000 C 
ATOM     21  C   UNL d   1      31.762  23.671 -20.898  0.00  0.00     0.000 C 
ENDBRANCH  17  20
ENDBRANCH   1  14
TORSDOF 6
ENDMDL
MODEL 3
REMARK VINA RESULT:      -2.9      0.879      4.986
REMARK  6 active torsions:
REMARK  status: ('A' for Active; 'I' for Inactive)
REMARK    1  A    between atoms: N_2  and  S_1 
REMARK    2  A    between atoms: C_4  and  S_1 
REMARK    3  A    between atoms: C_3  and  N_2 
REMARK    4  A    between atoms: N_7  and  C_3 
REMARK    5  A    between atoms: C_11  and  N_7 
REMARK    6  A    between atoms: C_15  and  C_14 
ROOT
ATOM      1  S   UNL d   1      33.133  20.252 -22.002  0.00  0.00     0.287 S 
ATOM      2  O   UNL d   1      33.233  20.704 -22.685  0.00  0.00    -0.198 OA
ATOM      3  O   UNL d   1      33.034  19.798 -21.315  0.00  0.00    -0.198 OA
ENDROOT
BRANCH   1   4
ATOM      4  N   UNL d   1      33.226  19.559 -22.447  0.00  0.00    -0.128 NA
BRANCH   4   5
ATOM      5  C   UNL d   1      32.958  19.070 -23.056  0.00  0.00     0.232 C 
ATOM      6  S   UNL d   1      33.241  19.169 -23.824  0.00  0.00    -0.036 SA
BRANCH   5   7
ATOM      7  N   UNL d   1      32.406  18.481 -22.891  0.00  0.00    -0.217 NA
BRANCH   7   8
ATOM      8  C   UNL d   1      32.488  17.738 -23.245  0.00  0.00     0.084 A 
ATOM      9  C   UNL d   1      31.889  17.454 -23.733  0.00  0.00     0.019 A 
ATOM     10  C   UNL d   1      31.963  16.716 -24.088  0.00  0.00     0.002 A 
ATOM     11  C   UNL d   1      32.632  16.265 -23.957  0.00  0.00     0.000 A 
ATOM     12  C   UNL d   1      33.230  16.554 -23.467  0.00  0.00     0.002 A 
ATOM     13  C   UNL d   1      33.156  17.287 -23.114  0.00  0.00     0.019 A 
ENDBRANCH   7   8
ENDBRANCH   5   7
ENDBRANCH   4   5
ENDBRANCH   1   4
BRANCH   1  14
ATOM     14  C   UNL d   1      33.040  20.950 -21.555  0.00  0.00     0.105 A 
ATOM     15  C   UNL d   1      33.117  20.919 -20.734  0.00  0.00     0.013 A 
ATOM     16  C   UNL d   1      33.023  21.617 -20.287  0.00  0.00     0.001 A 
ATOM     17  C   UNL d   1      32.854  22.341 -20.665  0.00  0.00     0.000 A 
ATOM     18  C   UNL d   1      32.779  22.365 -21.491  0.00  0.00     0.001 A 
ATOM     19  C   UNL d   1      32.871  21.674 -21.932  0.00  0.00     0.013 A 
BRANCH  17  20
ATOM     20  C   UNL d   1      32.764  23.025 -20.213  0.00  0.00     0.000 C 
ATOM     21  C   UNL d   1      32.968  23.026 -19.419  0.00  0.00     0.000 C 
ENDBRANCH  17  20
ENDBRANCH   1  14
TORSDOF 6
ENDMDL
MODEL 4
REMARK VINA RESULT:      -2.3      1.915      2.915
REMARK  6 active torsions:
REMARK  status: ('A' for Active; 'I' for Inactive)
REMARK    1  A    between atoms: N_2  and  S_1 
REMARK    2  A    between atoms: C_4  and  S_1 
REMARK    3  A    between atoms: C_3  and  N_2 
REMARK    4  A    between atoms: N_7  and  C_3 
REMARK    5  A    between atoms: C_11  and  N_7 
REMARK    6  A    between atoms: C_15  and  C_14 
ROOT
ATOM      1  S   UNL d   1      32.454  21.630 -20.707  0.00  0.00     0.287 S 
ATOM      2  O   UNL d   1      31.675  21.368 -20.640  0.00  0.00    -0.198 OA
ATOM      3  O   UNL d   1      33.237  21.894 -20.776  0.00  0.00    -0.198 OA
ENDROOT
BRANCH   1   4
ATOM      4  N   UNL d   1      32.304  22.222 -20.146  0.00  0.00    -0.128 NA
BRANCH   4   5
ATOM      5  C   UNL d   1      32.332  23.019 -19.937  0.00  0.00     0.232 C 
ATOM      6  S   UNL d   1      31.802  23.557 -20.269  0.00  0.00    -0.036 SA
BRANCH   5   7
ATOM      7  N   UNL d   1      32.894  23.277 -19.392  0.00  0.00    -0.217 NA
BRANCH   7   8
ATOM      8  C   UNL d   1      32.680  23.361 -18.598  0.00  0.00     0.084 A 
ATOM      9  C   UNL d   1      33.228  23.181 -18.010  0.00  0.00     0.019 A 
ATOM     10  C   UNL d   1      33.022  23.262 -17.218  0.00  0.00     0.002 A 
ATOM     11  C   UNL d   1      32.275  23.522 -17.014  0.00  0.00     0.000 A 
ATOM     12  C   UNL d   1      31.730  23.702 -17.607  0.00  0.00     0.002 A 
ATOM     13  C   UNL d   1      31.933  23.622 -18.394  0.00  0.00     0.019 A 
ENDBRANCH   7   8
ENDBRANCH   5   7
ENDBRANCH   4   5
ENDBRANCH   1   4
BRANCH   1  14
ATOM     14  C   UNL d   1      32.605  21.035 -21.272  0.00  0.00     0.105 A 
ATOM     15  C   UNL d   1      32.655  20.249 -21.029  0.00  0.00     0.013 A 
ATOM     16  C   UNL d   1      32.805  19.654 -21.594  0.00  0.00     0.001 A 
ATOM     17  C   UNL d   1      32.905  19.850 -22.398  0.00  0.00     0.000 A 
ATOM     18  C   UNL d   1      32.853  20.644 -22.636  0.00  0.00     0.001 A 
ATOM     19  C   UNL d   1      32.704  21.231 -22.076  0.00  0.00     0.013 A 
BRANCH  17  20
ATOM     20  C   UNL d   1      33.053  19.253 -22.948  0.00  0.00     0.000 C 
ATOM     21  C   UNL d   1      32.432  18.892 -23.343  0.00  0.00     0.000 C 
ENDBRANCH  17  20
ENDBRANCH   1  14
TORSDOF 6
ENDMDL
