MODEL 1
REMARK VINA RESULT:       4.5      0.000      0.000
REMARK  3 active torsions:
REMARK  status: ('A' for Active; 'I' for Inactive)
REMARK    1  A    between atoms: C_6  and  C_3 
REMARK    2  A    between atoms: C_9  and  C_6 
REMARK    3  A    between atoms: C_10  and  C_9 
ROOT
ATOM      1  N   UNL d   1      44.846 -14.340  43.999  0.00  0.00    -0.225 NA
ATOM      2  N   UNL d   1      45.752 -14.045  44.952  0.00  0.00    -0.225 NA
ATOM      3  C   UNL d   1      45.271 -14.655  44.661  0.00  0.00     0.163 A 
ATOM      4  C   UNL d   1      45.067 -13.573  43.901  0.00  0.00     0.101 A 
ATOM      5  C   UNL d   1      45.639 -13.386  44.502  0.00  0.00     0.101 A 
ATOM      6  C   UNL d   1      44.880 -12.958  43.383  0.00  0.00     0.021 A 
ATOM      7  C   UNL d   1      45.967 -12.631  44.539  0.00  0.00     0.021 A 
ATOM      8  C   UNL d   1      45.184 -12.261  43.419  0.00  0.00     0.002 A 
ATOM      9  C   UNL d   1      45.739 -12.080  44.002  0.00  0.00     0.002 A 
ENDROOT
BRANCH   3  10
ATOM     10  C   UNL d   1      45.212 -15.423  44.955  0.00  0.00     0.039 C 
BRANCH  10  11
ATOM     11  C   UNL d   1      45.717 -16.012  44.674  0.00  0.00     0.003 C 
BRANCH  11  12
ATOM     12  C   UNL d   1      45.602 -16.797  44.901  0.00  0.00     0.000 C 
ATOM     13  C   UNL d   1      46.018 -17.402  44.517  0.00  0.00     0.000 C 
ENDBRANCH  11  12
ENDBRANCH  10  11
ENDBRANCH   3  10
TORSDOF 3
ENDMDL
MODEL 2
REMARK VINA RESULT:       6.7      7.348      8.245
REMARK  3 active torsions:
REMARK  status: ('A' for Active; 'I' for Inactive)
REMARK    1  A    between atoms: C_6  and  C_3 
REMARK    2  A    between atoms: C_9  and  C_6 
REMARK    3  A    between atoms: C_10  and  C_9 
ROOT
ATOM      1  N   UNL d   1      44.011 -14.982  37.037  0.00  0.00    -0.225 NA
ATOM      2  N   UNL d   1      44.219 -16.247  36.621  0.00  0.00    -0.225 NA
ATOM      3  C   UNL d   1      44.606 -15.571  36.907  0.00  0.00     0.163 A 
ATOM      4  C   UNL d   1      43.298 -15.297  36.836  0.00  0.00     0.101 A 
ATOM      5  C   UNL d   1      43.429 -16.095  36.574  0.00  0.00     0.101 A 
ATOM      6  C   UNL d   1      42.513 -15.041  36.825  0.00  0.00     0.021 A 
ATOM      7  C   UNL d   1      42.793 -16.559  36.330  0.00  0.00     0.021 A 
ATOM      8  C   UNL d   1      41.927 -15.472  36.600  0.00  0.00     0.002 A 
ATOM      9  C   UNL d   1      42.054 -16.246  36.345  0.00  0.00     0.002 A 
ENDROOT
BRANCH   3  10
ATOM     10  C   UNL d   1      45.414 -15.483  37.041  0.00  0.00     0.039 C 
BRANCH  10  11
ATOM     11  C   UNL d   1      45.847 -14.931  36.606  0.00  0.00     0.003 C 
BRANCH  11  12
ATOM     12  C   UNL d   1      46.586 -14.682  36.874  0.00  0.00     0.000 C 
ATOM     13  C   UNL d   1      46.647 -13.998  37.339  0.00  0.00     0.000 C 
ENDBRANCH  11  12
ENDBRANCH  10  11
ENDBRANCH   3  10
TORSDOF 3
ENDMDL
MODEL 3
REMARK VINA RESULT:       6.7      4.986      6.066
REMARK  3 active torsions:
REMARK  status: ('A' for Active; 'I' for Inactive)
REMARK    1  A    between atoms: C_6  and  C_3 
REMARK    2  A    between atoms: C_9  and  C_6 
REMARK    3  A    between atoms: C_10  and  C_9 
ROOT
ATOM      1  N   UNL d   1      46.341 -20.058  42.602  0.00  0.00    -0.225 NA
ATOM      2  N   UNL d   1      46.646 -18.756  42.773  0.00  0.00    -0.225 NA
ATOM      3  C   UNL d   1      46.548 -19.344  42.195  0.00  0.00     0.163 A 
ATOM      4  C   UNL d   1      46.317 -19.899  43.391  0.00  0.00     0.101 A 
ATOM      5  C   UNL d   1      46.509 -19.078  43.498  0.00  0.00     0.101 A 
ATOM      6  C   UNL d   1      46.158 -20.323  44.081  0.00  0.00     0.021 A 
ATOM      7  C   UNL d   1      46.528 -18.756  44.257  0.00  0.00     0.021 A 
ATOM      8  C   UNL d   1      46.176 -20.023  44.780  0.00  0.00     0.002 A 
ATOM      9  C   UNL d   1      46.363 -19.226  44.885  0.00  0.00     0.002 A 
ENDROOT
BRANCH   3  10
ATOM     10  C   UNL d   1      46.634 -19.257  41.380  0.00  0.00     0.039 C 
BRANCH  10  11
ATOM     11  C   UNL d   1      46.347 -18.580  41.004  0.00  0.00     0.003 C 
BRANCH  11  12
ATOM     12  C   UNL d   1      46.616 -18.381  40.250  0.00  0.00     0.000 C 
ATOM     13  C   UNL d   1      46.108 -17.999  39.719  0.00  0.00     0.000 C 
ENDBRANCH  11  12
ENDBRANCH  10  11
ENDBRANCH   3  10
TORSDOF 3
ENDMDL
MODEL 4
REMARK VINA RESULT:       7.2      1.044      3.244
REMARK  3 active torsions:
REMARK  status: ('A' for Active; 'I' for Inactive)
REMARK    1  A    between atoms: C_6  and  C_3 
REMARK    2  A    between atoms: C_9  and  C_6 
REMARK    3  A    between atoms: C_10  and  C_9 
ROOT
ATOM      1  N   UNL d   1      44.471 -13.548  44.037  0.00  0.00    -0.225 NA
ATOM      2  N   UNL d   1      45.760 -13.153  44.069  0.00  0.00    -0.225 NA
ATOM      3  C   UNL d   1      44.998 -12.911  43.848  0.00  0.00     0.163 A 
ATOM      4  C   UNL d   1      44.906 -14.145  44.358  0.00  0.00     0.101 A 
ATOM      5  C   UNL d   1      45.718 -13.896  44.378  0.00  0.00     0.101 A 
ATOM      6  C   UNL d   1      44.755 -14.900  44.655  0.00  0.00     0.021 A 
ATOM      7  C   UNL d   1      46.296 -14.400  44.681  0.00  0.00     0.021 A 
ATOM      8  C   UNL d   1      45.291 -15.363  44.935  0.00  0.00     0.002 A 
ATOM      9  C   UNL d   1      46.079 -15.122  44.954  0.00  0.00     0.002 A 
ENDROOT
BRANCH   3  10
ATOM     10  C   UNL d   1      44.786 -12.190  43.509  0.00  0.00     0.039 C 
BRANCH  10  11
ATOM     11  C   UNL d   1      44.734 -12.119  42.688  0.00  0.00     0.003 C 
BRANCH  11  12
ATOM     12  C   UNL d   1      45.422 -12.082  42.233  0.00  0.00     0.000 C 
ATOM     13  C   UNL d   1      45.386 -12.230  41.419  0.00  0.00     0.000 C 
ENDBRANCH  11  12
ENDBRANCH  10  11
ENDBRANCH   3  10
TORSDOF 3
ENDMDL
