MODEL 1
REMARK VINA RESULT:      -8.2      0.000      0.000
REMARK  4 active torsions:
REMARK  status: ('A' for Active; 'I' for Inactive)
REMARK    1  A    between atoms: C_2  and  S_1 
REMARK    2  A    between atoms: N_4  and  S_1 
REMARK    3  A    between atoms: C_16  and  N_4 
REMARK    4  A    between atoms: C_17  and  C_16 
ROOT
ATOM      1  S   UNL d   1     -48.653  12.049  22.881  0.00  0.00     0.287 S 
ATOM      2  O   UNL d   1     -48.841  11.320  22.543  0.00  0.00    -0.198 OA
ATOM      3  O   UNL d   1     -48.457  12.778  23.219  0.00  0.00    -0.198 OA
ENDROOT
BRANCH   1   4
ATOM      4  C   UNL d   1     -49.456  12.215  22.969  0.00  0.00     0.123 A 
ATOM      5  C   UNL d   1     -49.856  12.670  22.403  0.00  0.00     0.094 A 
ATOM      6  N   UNL d   1     -49.446  12.959  21.748  0.00  0.00    -0.243 NA
ATOM      7  C   UNL d   1     -50.647  12.838  22.483  0.00  0.00     0.018 A 
ATOM      8  C   UNL d   1     -49.828  13.402  21.193  0.00  0.00     0.099 A 
ATOM      9  C   UNL d   1     -50.631  13.569  21.280  0.00  0.00     0.021 A 
ATOM     10  C   UNL d   1     -51.053  13.293  21.920  0.00  0.00     0.003 A 
ATOM     11  C   UNL d   1     -51.063  12.550  23.141  0.00  0.00     0.002 A 
ATOM     12  C   UNL d   1     -50.674  12.106  23.694  0.00  0.00     0.001 A 
ATOM     13  C   UNL d   1     -49.871  11.939  23.607  0.00  0.00     0.015 A 
ENDBRANCH   1   4
BRANCH   1  14
ATOM     14  N   UNL d   1     -47.849  11.876  22.790  0.00  0.00    -0.157 NA
BRANCH  14  15
ATOM     15  C   UNL d   1     -47.312  12.084  23.388  0.00  0.00     0.112 C 
BRANCH  15  16
ATOM     16  C   UNL d   1     -46.528  11.882  23.327  0.00  0.00     0.022 A 
ATOM     17  C   UNL d   1     -46.250  11.135  23.574  0.00  0.00     0.028 A 
ATOM     18  C   UNL d   1     -45.466  10.950  23.507  0.00  0.00     0.119 A 
ATOM     19  O   UNL d   1     -45.050  10.284  23.697  0.00  0.00    -0.300 OA
ATOM     20  C   UNL d   1     -44.928  11.509  23.188  0.00  0.00     0.119 A 
ATOM     21  C   UNL d   1     -44.250  10.412  23.502  0.00  0.00     0.304 A 
ATOM     22  O   UNL d   1     -44.194  11.167  23.192  0.00  0.00    -0.300 OA
ATOM     23  C   UNL d   1     -45.196  12.224  22.952  0.00  0.00     0.026 A 
ATOM     24  C   UNL d   1     -46.010  12.420  23.020  0.00  0.00     0.004 A 
ENDBRANCH  15  16
ENDBRANCH  14  15
ENDBRANCH   1  14
TORSDOF 4
ENDMDL
MODEL 2
REMARK VINA RESULT:      -8.1      1.237      1.562
REMARK  4 active torsions:
REMARK  status: ('A' for Active; 'I' for Inactive)
REMARK    1  A    between atoms: C_2  and  S_1 
REMARK    2  A    between atoms: N_4  and  S_1 
REMARK    3  A    between atoms: C_16  and  N_4 
REMARK    4  A    between atoms: C_17  and  C_16 
ROOT
ATOM      1  S   UNL d   1     -48.320  13.588  22.592  0.00  0.00     0.287 S 
ATOM      2  O   UNL d   1     -48.069  13.873  21.859  0.00  0.00    -0.198 OA
ATOM      3  O   UNL d   1     -48.565  13.298  23.326  0.00  0.00    -0.198 OA
ENDROOT
BRANCH   1   4
ATOM      4  C   UNL d   1     -48.958  14.111  22.577  0.00  0.00     0.123 A 
ATOM      5  C   UNL d   1     -49.669  13.897  22.209  0.00  0.00     0.094 A 
ATOM      6  N   UNL d   1     -49.737  13.155  21.855  0.00  0.00    -0.243 NA
ATOM      7  C   UNL d   1     -50.301  14.407  22.190  0.00  0.00     0.018 A 
ATOM      8  C   UNL d   1     -50.426  12.939  21.494  0.00  0.00     0.099 A 
ATOM      9  C   UNL d   1     -51.064  13.461  21.479  0.00  0.00     0.021 A 
ATOM     10  C   UNL d   1     -51.016  14.198  21.823  0.00  0.00     0.003 A 
ATOM     11  C   UNL d   1     -50.237  15.155  22.545  0.00  0.00     0.002 A 
ATOM     12  C   UNL d   1     -49.544  15.365  22.905  0.00  0.00     0.001 A 
ATOM     13  C   UNL d   1     -48.905  14.842  22.920  0.00  0.00     0.015 A 
ENDBRANCH   1   4
BRANCH   1  14
ATOM     14  N   UNL d   1     -47.678  13.066  22.600  0.00  0.00    -0.157 NA
BRANCH  14  15
ATOM     15  C   UNL d   1     -46.962  13.300  22.949  0.00  0.00     0.112 C 
BRANCH  15  16
ATOM     16  C   UNL d   1     -46.323  12.798  22.957  0.00  0.00     0.022 A 
ATOM     17  C   UNL d   1     -46.351  12.067  23.360  0.00  0.00     0.028 A 
ATOM     18  C   UNL d   1     -45.707  11.579  23.359  0.00  0.00     0.119 A 
ATOM     19  O   UNL d   1     -45.578  10.855  23.694  0.00  0.00    -0.300 OA
ATOM     20  C   UNL d   1     -45.008  11.804  22.953  0.00  0.00     0.119 A 
ATOM     21  C   UNL d   1     -44.801  10.615  23.505  0.00  0.00     0.304 A 
ATOM     22  O   UNL d   1     -44.468  11.208  23.052  0.00  0.00    -0.300 OA
ATOM     23  C   UNL d   1     -44.984  12.505  22.568  0.00  0.00     0.026 A 
ATOM     24  C   UNL d   1     -45.651  13.015  22.567  0.00  0.00     0.004 A 
ENDBRANCH  15  16
ENDBRANCH  14  15
ENDBRANCH   1  14
TORSDOF 4
ENDMDL
MODEL 3
REMARK VINA RESULT:      -6.1      8.793     10.563
REMARK  4 active torsions:
REMARK  status: ('A' for Active; 'I' for Inactive)
REMARK    1  A    between atoms: C_2  and  S_1 
REMARK    2  A    between atoms: N_4  and  S_1 
REMARK    3  A    between atoms: C_16  and  N_4 
REMARK    4  A    between atoms: C_17  and  C_16 
ROOT
ATOM      1  S   UNL d   1     -39.512  14.956  19.532  0.00  0.00     0.287 S 
ATOM      2  O   UNL d   1     -39.465  15.721  19.226  0.00  0.00    -0.198 OA
ATOM      3  O   UNL d   1     -39.555  14.187  19.831  0.00  0.00    -0.198 OA
ENDROOT
BRANCH   1   4
ATOM      4  C   UNL d   1     -39.922  15.243  20.188  0.00  0.00     0.123 A 
ATOM      5  C   UNL d   1     -39.517  15.440  20.884  0.00  0.00     0.094 A 
ATOM      6  N   UNL d   1     -38.698  15.347  20.919  0.00  0.00    -0.243 NA
ATOM      7  C   UNL d   1     -39.914  15.723  21.533  0.00  0.00     0.018 A 
ATOM      8  C   UNL d   1     -38.296  15.537  21.593  0.00  0.00     0.099 A 
ATOM      9  C   UNL d   1     -38.705  15.824  22.249  0.00  0.00     0.021 A 
ATOM     10  C   UNL d   1     -39.514  15.922  22.234  0.00  0.00     0.003 A 
ATOM     11  C   UNL d   1     -40.738  15.818  21.502  0.00  0.00     0.002 A 
ATOM     12  C   UNL d   1     -41.134  15.626  20.824  0.00  0.00     0.001 A 
ATOM     13  C   UNL d   1     -40.725  15.339  20.167  0.00  0.00     0.015 A 
ENDBRANCH   1   4
BRANCH   1  14
ATOM     14  N   UNL d   1     -39.100  14.676  18.871  0.00  0.00    -0.157 NA
BRANCH  14  15
ATOM     15  C   UNL d   1     -39.520  14.415  18.205  0.00  0.00     0.112 C 
BRANCH  15  16
ATOM     16  C   UNL d   1     -39.126  14.147  17.546  0.00  0.00     0.022 A 
ATOM     17  C   UNL d   1     -38.955  14.654  16.906  0.00  0.00     0.028 A 
ATOM     18  C   UNL d   1     -38.562  14.372  16.259  0.00  0.00     0.119 A 
ATOM     19  O   UNL d   1     -38.326  14.728  15.572  0.00  0.00    -0.300 OA
ATOM     20  C   UNL d   1     -38.324  13.568  16.227  0.00  0.00     0.119 A 
ATOM     21  C   UNL d   1     -37.940  14.158  15.102  0.00  0.00     0.304 A 
ATOM     22  O   UNL d   1     -37.948  13.454  15.519  0.00  0.00    -0.300 OA
ATOM     23  C   UNL d   1     -38.489  13.085  16.843  0.00  0.00     0.026 A 
ATOM     24  C   UNL d   1     -38.897  13.374  17.517  0.00  0.00     0.004 A 
ENDBRANCH  15  16
ENDBRANCH  14  15
ENDBRANCH   1  14
TORSDOF 4
ENDMDL
MODEL 4
REMARK VINA RESULT:      -5.9      9.506     10.474
REMARK  4 active torsions:
REMARK  status: ('A' for Active; 'I' for Inactive)
REMARK    1  A    between atoms: C_2  and  S_1 
REMARK    2  A    between atoms: N_4  and  S_1 
REMARK    3  A    between atoms: C_16  and  N_4 
REMARK    4  A    between atoms: C_17  and  C_16 
ROOT
ATOM      1  S   UNL d   1     -38.946  14.471  20.641  0.00  0.00     0.287 S 
ATOM      2  O   UNL d   1     -39.693  14.156  20.799  0.00  0.00    -0.198 OA
ATOM      3  O   UNL d   1     -38.202  14.789  20.475  0.00  0.00    -0.198 OA
ENDROOT
BRANCH   1   4
ATOM      4  C   UNL d   1     -38.644  14.090  21.307  0.00  0.00     0.123 A 
ATOM      5  C   UNL d   1     -38.648  14.466  22.045  0.00  0.00     0.094 A 
ATOM      6  N   UNL d   1     -38.958  15.228  22.113  0.00  0.00    -0.243 NA
ATOM      7  C   UNL d   1     -38.353  14.097  22.705  0.00  0.00     0.018 A 
ATOM      8  C   UNL d   1     -38.966  15.602  22.828  0.00  0.00     0.099 A 
ATOM      9  C   UNL d   1     -38.664  15.222  23.494  0.00  0.00     0.021 A 
ATOM     10  C   UNL d   1     -38.354  14.469  23.448  0.00  0.00     0.003 A 
ATOM     11  C   UNL d   1     -38.040  13.331  22.643  0.00  0.00     0.002 A 
ATOM     12  C   UNL d   1     -38.035  12.962  21.923  0.00  0.00     0.001 A 
ATOM     13  C   UNL d   1     -38.338  13.343  21.256  0.00  0.00     0.015 A 
ENDBRANCH   1   4
BRANCH   1  14
ATOM     14  N   UNL d   1     -39.257  14.850  19.974  0.00  0.00    -0.157 NA
BRANCH  14  15
ATOM     15  C   UNL d   1     -39.215  14.479  19.233  0.00  0.00     0.112 C 
BRANCH  15  16
ATOM     16  C   UNL d   1     -39.524  14.839  18.573  0.00  0.00     0.022 A 
ATOM     17  C   UNL d   1     -40.293  14.663  18.301  0.00  0.00     0.028 A 
ATOM     18  C   UNL d   1     -40.584  15.031  17.642  0.00  0.00     0.119 A 
ATOM     19  O   UNL d   1     -41.294  14.970  17.260  0.00  0.00    -0.300 OA
ATOM     20  C   UNL d   1     -40.116  15.591  17.230  0.00  0.00     0.119 A 
ATOM     21  C   UNL d   1     -41.283  15.488  16.606  0.00  0.00     0.304 A 
ATOM     22  O   UNL d   1     -40.554  15.859  16.604  0.00  0.00    -0.300 OA
ATOM     23  C   UNL d   1     -39.379  15.757  17.493  0.00  0.00     0.026 A 
ATOM     24  C   UNL d   1     -39.073  15.378  18.176  0.00  0.00     0.004 A 
ENDBRANCH  15  16
ENDBRANCH  14  15
ENDBRANCH   1  14
TORSDOF 4
ENDMDL
MODEL 5
REMARK VINA RESULT:      -5.9      9.021     10.392
REMARK  4 active torsions:
REMARK  status: ('A' for Active; 'I' for Inactive)
REMARK    1  A    between atoms: C_2  and  S_1 
REMARK    2  A    between atoms: N_4  and  S_1 
REMARK    3  A    between atoms: C_16  and  N_4 
REMARK    4  A    between atoms: C_17  and  C_16 
ROOT
ATOM      1  S   UNL d   1     -39.340  14.299  18.574  0.00  0.00     0.287 S 
ATOM      2  O   UNL d   1     -38.733  14.839  18.718  0.00  0.00    -0.198 OA
ATOM      3  O   UNL d   1     -39.947  13.756  18.436  0.00  0.00    -0.198 OA
ENDROOT
BRANCH   1   4
ATOM      4  C   UNL d   1     -39.428  14.602  17.811  0.00  0.00     0.123 A 
ATOM      5  C   UNL d   1     -38.978  14.298  17.184  0.00  0.00     0.094 A 
ATOM      6  N   UNL d   1     -38.441  13.688  17.326  0.00  0.00    -0.243 NA
ATOM      7  C   UNL d   1     -39.059  14.591  16.431  0.00  0.00     0.018 A 
ATOM      8  C   UNL d   1     -38.000  13.387  16.720  0.00  0.00     0.099 A 
ATOM      9  C   UNL d   1     -38.086  13.689  15.958  0.00  0.00     0.021 A 
ATOM     10  C   UNL d   1     -38.612  14.290  15.798  0.00  0.00     0.003 A 
ATOM     11  C   UNL d   1     -39.599  15.204  16.284  0.00  0.00     0.002 A 
ATOM     12  C   UNL d   1     -40.038  15.501  16.894  0.00  0.00     0.001 A 
ATOM     13  C   UNL d   1     -39.951  15.199  17.658  0.00  0.00     0.015 A 
ENDBRANCH   1   4
BRANCH   1  14
ATOM     14  N   UNL d   1     -39.247  14.001  19.340  0.00  0.00    -0.157 NA
BRANCH  14  15
ATOM     15  C   UNL d   1     -39.306  14.513  19.991  0.00  0.00     0.112 C 
BRANCH  15  16
ATOM     16  C   UNL d   1     -39.251  14.225  20.749  0.00  0.00     0.022 A 
ATOM     17  C   UNL d   1     -38.562  13.841  21.019  0.00  0.00     0.028 A 
ATOM     18  C   UNL d   1     -38.523  13.560  21.776  0.00  0.00     0.119 A 
ATOM     19  O   UNL d   1     -37.940  13.173  22.180  0.00  0.00    -0.300 OA
ATOM     20  C   UNL d   1     -39.177  13.654  22.293  0.00  0.00     0.119 A 
ATOM     21  C   UNL d   1     -38.215  13.019  22.952  0.00  0.00     0.304 A 
ATOM     22  O   UNL d   1     -38.974  13.320  23.003  0.00  0.00    -0.300 OA
ATOM     23  C   UNL d   1     -39.836  14.023  22.032  0.00  0.00     0.026 A 
ATOM     24  C   UNL d   1     -39.880  14.316  21.246  0.00  0.00     0.004 A 
ENDBRANCH  15  16
ENDBRANCH  14  15
ENDBRANCH   1  14
TORSDOF 4
ENDMDL
