MODEL 1
REMARK VINA RESULT:      10.8      0.000      0.000
REMARK  1 active torsions:
REMARK  status: ('A' for Active; 'I' for Inactive)
REMARK    1  A    between atoms: C_6  and  C_3 
ROOT
ATOM      1  O   UNL d   1      58.869  49.676  50.966  0.00  0.00    -0.260 OA
ATOM      2  N   UNL d   1      59.062  49.707  49.623  0.00  0.00    -0.120 NA
ATOM      3  C   UNL d   1      58.491  49.688  50.253  0.00  0.00     0.205 A 
ATOM      4  N   UNL d   1      59.779  49.707  49.959  0.00  0.00    -0.109 NA
ATOM      5  C   UNL d   1      59.726  49.689  50.763  0.00  0.00     0.262 A 
ATOM      6  S   UNL d   1      60.373  49.685  51.247  0.00  0.00    -0.029 SA
ENDROOT
BRANCH   3   7
ATOM      7  C   UNL d   1      57.690  49.682  50.169  0.00  0.00     0.043 A 
ATOM      8  C   UNL d   1      57.360  49.699  49.399  0.00  0.00     0.004 A 
ATOM      9  C   UNL d   1      56.542  49.693  49.304  0.00  0.00     0.000 A 
ATOM     10  C   UNL d   1      56.046  49.670  49.980  0.00  0.00     0.000 A 
ATOM     11  C   UNL d   1      56.392  49.654  50.729  0.00  0.00     0.000 A 
ATOM     12  C   UNL d   1      57.203  49.659  50.844  0.00  0.00     0.004 A 
ENDBRANCH   3   7
TORSDOF 1
ENDMDL
MODEL 2
REMARK VINA RESULT:      12.3      1.563      3.021
REMARK  1 active torsions:
REMARK  status: ('A' for Active; 'I' for Inactive)
REMARK    1  A    between atoms: C_6  and  C_3 
ROOT
ATOM      1  O   UNL d   1      57.714  49.669  51.031  0.00  0.00    -0.260 OA
ATOM      2  N   UNL d   1      57.980  49.674  49.701  0.00  0.00    -0.120 NA
ATOM      3  C   UNL d   1      58.309  49.673  50.485  0.00  0.00     0.205 A 
ATOM      4  N   UNL d   1      57.193  49.671  49.778  0.00  0.00    -0.109 NA
ATOM      5  C   UNL d   1      56.974  49.668  50.555  0.00  0.00     0.262 A 
ATOM      6  S   UNL d   1      56.203  49.665  50.795  0.00  0.00    -0.029 SA
ENDROOT
BRANCH   3   7
ATOM      7  C   UNL d   1      59.092  49.675  50.673  0.00  0.00     0.043 A 
ATOM      8  C   UNL d   1      59.318  49.645  51.479  0.00  0.00     0.004 A 
ATOM      9  C   UNL d   1      60.117  49.647  51.680  0.00  0.00     0.000 A 
ATOM     10  C   UNL d   1      60.697  49.679  51.075  0.00  0.00     0.000 A 
ATOM     11  C   UNL d   1      60.451  49.708  50.288  0.00  0.00     0.000 A 
ATOM     12  C   UNL d   1      59.663  49.707  50.067  0.00  0.00     0.004 A 
ENDBRANCH   3   7
TORSDOF 1
ENDMDL
