MODEL 1
REMARK VINA RESULT:      68.7      0.000      0.000
REMARK  5 active torsions:
REMARK  status: ('A' for Active; 'I' for Inactive)
REMARK    1  A    between atoms: C_9  and  N_1 
REMARK    2  A    between atoms: S_8  and  C_2 
REMARK    3  A    between atoms: C_6  and  C_10 
REMARK       I    between atoms: N_7  and  C_6 
REMARK    4  A    between atoms: C_10  and  S_8 
REMARK    5  A    between atoms: C_13  and  C_9 
ROOT
ATOM      1  N   UNL d   1      59.351  49.297  50.919  0.00  0.00    -0.303 N 
ATOM      2  C   UNL d   1      60.443  48.704  50.436  0.00  0.00     0.049 A 
ATOM      3  C   UNL d   1      59.647  48.900  50.279  0.00  0.00     0.087 A 
ATOM      4  C   UNL d   1      60.616  48.996  51.190  0.00  0.00     0.024 A 
ATOM      5  C   UNL d   1      59.940  49.362  51.489  0.00  0.00     0.065 A 
ATOM      6  C   UNL d   1      61.304  48.971  51.637  0.00  0.00     0.002 A 
ATOM      7  C   UNL d   1      59.953  49.704  52.235  0.00  0.00     0.018 A 
ATOM      8  C   UNL d   1      61.319  49.314  52.387  0.00  0.00     0.000 A 
ATOM      9  C   UNL d   1      60.643  49.681  52.686  0.00  0.00     0.002 A 
ENDROOT
BRANCH   2  10
ATOM     10  S   UNL d   1      60.960  48.299  49.940  0.00  0.00    -0.080 SA
BRANCH  10  11
ATOM     11  C   UNL d   1      61.194  47.523  50.122  0.00  0.00     0.097 C 
BRANCH  11  12
ATOM     12  C   UNL d   1      61.828  47.170  49.736  0.00  0.00     0.272 C 
ATOM     13  N   UNL d   1      61.811  46.371  49.530  0.00  0.00    -0.267 N 
ATOM     14  C   UNL d   1      61.142  45.921  49.717  0.00  0.00     0.110 A 
ATOM     15  C   UNL d   1      62.452  46.027  49.144  0.00  0.00     0.110 A 
ATOM     16  C   UNL d   1      61.113  45.128  49.518  0.00  0.00     0.142 A 
ATOM     17  O   UNL d   1      61.764  44.772  49.124  0.00  0.00    -0.300 OA
ATOM     18  C   UNL d   1      62.429  45.223  48.940  0.00  0.00     0.142 A 
ATOM     19  O   UNL d   1      62.486  47.622  49.556  0.00  0.00    -0.266 OA
ENDBRANCH  11  12
ENDBRANCH  10  11
ENDBRANCH   2  10
BRANCH   1  20
ATOM     20  C   UNL d   1      58.568  49.593  50.989  0.00  0.00     0.080 C 
BRANCH  20  21
ATOM     21  C   UNL d   1      58.067  49.599  50.339  0.00  0.00     0.018 A 
ATOM     22  C   UNL d   1      58.367  49.697  49.576  0.00  0.00     0.002 A 
ATOM     23  C   UNL d   1      57.861  49.702  48.926  0.00  0.00     0.000 A 
ATOM     24  C   UNL d   1      57.055  49.610  49.030  0.00  0.00     0.000 A 
ATOM     25  C   UNL d   1      56.742  49.510  49.800  0.00  0.00     0.000 A 
ATOM     26  C   UNL d   1      57.256  49.506  50.449  0.00  0.00     0.002 A 
ENDBRANCH  20  21
ENDBRANCH   1  20
TORSDOF 5
ENDMDL
