MODEL 1
REMARK VINA RESULT:      22.0      0.000      0.000
REMARK  2 active torsions:
REMARK  status: ('A' for Active; 'I' for Inactive)
REMARK    1  A    between atoms: C_6  and  C_1 
REMARK    2  A    between atoms: C_7  and  C_4 
ROOT
ATOM      1  C   UNL d   1     -50.160  26.428  33.765  0.00  0.00     0.169 A 
ATOM      2  C   UNL d   1     -50.974  26.535  33.843  0.00  0.00     0.048 A 
ATOM      3  N   UNL d   1     -50.360  25.051  33.481  0.00  0.00    -0.148 NA
ATOM      4  C   UNL d   1     -51.175  25.153  33.559  0.00  0.00     0.105 A 
ATOM      5  N   UNL d   1     -49.844  25.689  33.583  0.00  0.00    -0.142 NA
ENDROOT
BRANCH   4   6
ATOM      6  C   UNL d   1     -51.837  24.664  33.498  0.00  0.00     0.019 A 
ATOM      7  C   UNL d   1     -51.738  23.847  33.467  0.00  0.00     0.002 A 
ATOM      8  C   UNL d   1     -52.392  23.358  33.407  0.00  0.00     0.000 A 
ATOM      9  C   UNL d   1     -50.977  23.523  33.497  0.00  0.00     0.000 C 
ATOM     10  C   UNL d   1     -53.154  23.682  33.377  0.00  0.00     0.000 A 
ATOM     11  C   UNL d   1     -53.251  24.503  33.409  0.00  0.00     0.000 A 
ATOM     12  C   UNL d   1     -53.812  23.189  33.317  0.00  0.00     0.000 C 
ATOM     13  C   UNL d   1     -52.598  24.993  33.469  0.00  0.00     0.002 A 
ENDBRANCH   4   6
BRANCH   1  14
ATOM     14  C   UNL d   1     -49.652  27.072  33.869  0.00  0.00     0.231 C 
ATOM     15  O   UNL d   1     -49.716  27.730  33.375  0.00  0.00    -0.643 OA
ATOM     16  O   UNL d   1     -49.084  27.058  34.465  0.00  0.00    -0.643 OA
ENDBRANCH   1  14
TORSDOF 2
ENDMDL
MODEL 2
REMARK VINA RESULT:      24.0      2.349      3.802
REMARK  2 active torsions:
REMARK  status: ('A' for Active; 'I' for Inactive)
REMARK    1  A    between atoms: C_6  and  C_1 
REMARK    2  A    between atoms: C_7  and  C_4 
ROOT
ATOM      1  C   UNL d   1     -53.137  24.528  33.567  0.00  0.00     0.169 A 
ATOM      2  C   UNL d   1     -53.088  25.349  33.640  0.00  0.00     0.048 A 
ATOM      3  N   UNL d   1     -51.733  24.456  33.361  0.00  0.00    -0.148 NA
ATOM      4  C   UNL d   1     -51.680  25.276  33.434  0.00  0.00     0.105 A 
ATOM      5  N   UNL d   1     -52.464  24.074  33.427  0.00  0.00    -0.142 NA
ENDROOT
BRANCH   4   6
ATOM      6  C   UNL d   1     -51.069  25.831  33.402  0.00  0.00     0.019 A 
ATOM      7  C   UNL d   1     -50.287  25.574  33.396  0.00  0.00     0.002 A 
ATOM      8  C   UNL d   1     -49.678  26.120  33.364  0.00  0.00     0.000 A 
ATOM      9  C   UNL d   1     -50.118  24.765  33.423  0.00  0.00     0.000 C 
ATOM     10  C   UNL d   1     -49.846  26.931  33.338  0.00  0.00     0.000 A 
ATOM     11  C   UNL d   1     -50.633  27.187  33.344  0.00  0.00     0.000 A 
ATOM     12  C   UNL d   1     -49.232  27.481  33.306  0.00  0.00     0.000 C 
ATOM     13  C   UNL d   1     -51.243  26.641  33.376  0.00  0.00     0.002 A 
ENDBRANCH   4   6
BRANCH   1  14
ATOM     14  C   UNL d   1     -53.872  24.155  33.634  0.00  0.00     0.231 C 
ATOM     15  O   UNL d   1     -54.542  24.507  33.307  0.00  0.00    -0.643 OA
ATOM     16  O   UNL d   1     -53.934  23.435  34.027  0.00  0.00    -0.643 OA
ENDBRANCH   1  14
TORSDOF 2
ENDMDL
MODEL 3
REMARK VINA RESULT:      24.0      0.209      1.011
REMARK  2 active torsions:
REMARK  status: ('A' for Active; 'I' for Inactive)
REMARK    1  A    between atoms: C_6  and  C_1 
REMARK    2  A    between atoms: C_7  and  C_4 
ROOT
ATOM      1  C   UNL d   1     -50.160  26.428  33.765  0.00  0.00     0.169 A 
ATOM      2  C   UNL d   1     -50.974  26.535  33.843  0.00  0.00     0.048 A 
ATOM      3  N   UNL d   1     -50.360  25.051  33.481  0.00  0.00    -0.148 NA
ATOM      4  C   UNL d   1     -51.175  25.153  33.559  0.00  0.00     0.105 A 
ATOM      5  N   UNL d   1     -49.844  25.689  33.583  0.00  0.00    -0.142 NA
ENDROOT
BRANCH   4   6
ATOM      6  C   UNL d   1     -51.837  24.664  33.498  0.00  0.00     0.019 A 
ATOM      7  C   UNL d   1     -52.587  24.999  33.441  0.00  0.00     0.002 A 
ATOM      8  C   UNL d   1     -53.247  24.518  33.381  0.00  0.00     0.000 A 
ATOM      9  C   UNL d   1     -52.672  25.823  33.445  0.00  0.00     0.000 C 
ATOM     10  C   UNL d   1     -53.163  23.694  33.377  0.00  0.00     0.000 A 
ATOM     11  C   UNL d   1     -52.408  23.359  33.434  0.00  0.00     0.000 A 
ATOM     12  C   UNL d   1     -53.828  23.210  33.316  0.00  0.00     0.000 C 
ATOM     13  C   UNL d   1     -51.748  23.840  33.494  0.00  0.00     0.002 A 
ENDBRANCH   4   6
BRANCH   1  14
ATOM     14  C   UNL d   1     -49.652  27.072  33.869  0.00  0.00     0.231 C 
ATOM     15  O   UNL d   1     -49.718  27.731  33.377  0.00  0.00    -0.643 OA
ATOM     16  O   UNL d   1     -49.082  27.056  34.463  0.00  0.00    -0.643 OA
ENDBRANCH   1  14
TORSDOF 2
ENDMDL
