MODEL 1
REMARK VINA RESULT:      -5.9      0.000      0.000
REMARK  6 active torsions:
REMARK  status: ('A' for Active; 'I' for Inactive)
REMARK    1  A    between atoms: C_3  and  N_1 
REMARK       I    between atoms: C_2  and  N_5 
REMARK       I    between atoms: N_10  and  C_2 
REMARK    2  A    between atoms: N_5  and  C_8 
REMARK    3  A    between atoms: C_17  and  N_10 
REMARK    4  A    between atoms: O_18  and  C_11 
REMARK    5  A    between atoms: C_12  and  C_22 
REMARK    6  A    between atoms: C_22  and  C_17 
ROOT
ATOM      1  C   UNL d   1     -41.506-122.969 -52.273  0.00  0.00     0.369 C 
ATOM      2  N   UNL d   1     -41.127-122.621 -52.922  0.00  0.00    -0.191 NA
ATOM      3  O   UNL d   1     -42.131-123.497 -52.399  0.00  0.00    -0.242 OA
ATOM      4  N   UNL d   1     -41.263-122.791 -51.517  0.00  0.00    -0.189 NA
ENDROOT
BRANCH   2   5
ATOM      5  C   UNL d   1     -41.372-122.800 -53.689  0.00  0.00     0.088 A 
ATOM      6  C   UNL d   1     -41.844-122.275 -54.105  0.00  0.00     0.043 A 
ATOM      7  C   UNL d   1     -42.089-122.447 -54.863  0.00  0.00     0.128 A 
ATOM      8  C   UNL d   1     -41.860-123.158 -55.220  0.00  0.00     0.024 A 
ATOM      9  C   UNL d   1     -41.385-123.690 -54.804  0.00  0.00     0.003 A 
ATOM     10  C   UNL d   1     -41.140-123.511 -54.037  0.00  0.00     0.019 A 
BRANCH   7  11
ATOM     11  N   UNL d   1     -42.566-121.916 -55.282  0.00  0.00    -0.114 N 
ATOM     12  O   UNL d   1     -42.307-121.604 -55.996  0.00  0.00    -0.532 OA
ATOM     13  O   UNL d   1     -43.297-121.703 -54.980  0.00  0.00    -0.532 OA
ENDBRANCH   7  11
ENDBRANCH   2   5
BRANCH   4  14
ATOM     14  C   UNL d   1     -41.642-123.139 -50.869  0.00  0.00     0.104 C 
BRANCH  14  15
ATOM     15  C   UNL d   1     -41.922-122.669 -50.251  0.00  0.00     0.021 C 
BRANCH  15  16
ATOM     16  C   UNL d   1     -41.913-122.954 -49.484  0.00  0.00     0.002 A 
ATOM     17  C   UNL d   1     -42.614-123.006 -49.059  0.00  0.00     0.002 A 
ATOM     18  C   UNL d   1     -42.608-123.295 -48.282  0.00  0.00     0.024 A 
ATOM     19  C   UNL d   1     -41.898-123.525 -47.944  0.00  0.00     0.094 A 
ATOM     20  C   UNL d   1     -41.201-123.473 -48.367  0.00  0.00     0.024 A 
ATOM     21  C   UNL d   1     -41.206-123.185 -49.143  0.00  0.00     0.002 A 
BRANCH  19  22
ATOM     22  O   UNL d   1     -41.889-123.812 -47.172  0.00  0.00    -0.328 OA
ATOM     23  C   UNL d   1     -42.565-123.753 -46.703  0.00  0.00     0.181 C 
ENDBRANCH  19  22
ENDBRANCH  15  16
ENDBRANCH  14  15
ENDBRANCH   4  14
TORSDOF 6
ENDMDL
MODEL 2
REMARK VINA RESULT:      -4.8      1.244      6.012
REMARK  6 active torsions:
REMARK  status: ('A' for Active; 'I' for Inactive)
REMARK    1  A    between atoms: C_3  and  N_1 
REMARK       I    between atoms: C_2  and  N_5 
REMARK       I    between atoms: N_10  and  C_2 
REMARK    2  A    between atoms: N_5  and  C_8 
REMARK    3  A    between atoms: C_17  and  N_10 
REMARK    4  A    between atoms: O_18  and  C_11 
REMARK    5  A    between atoms: C_12  and  C_22 
REMARK    6  A    between atoms: C_22  and  C_17 
ROOT
ATOM      1  C   UNL d   1     -41.634-122.863 -50.647  0.00  0.00     0.369 C 
ATOM      2  N   UNL d   1     -41.302-123.070 -49.917  0.00  0.00    -0.191 NA
ATOM      3  O   UNL d   1     -42.457-122.855 -50.734  0.00  0.00    -0.242 OA
ATOM      4  N   UNL d   1     -41.152-122.670 -51.273  0.00  0.00    -0.189 NA
ENDROOT
BRANCH   2   5
ATOM      5  C   UNL d   1     -41.790-123.267 -49.282  0.00  0.00     0.088 A 
ATOM      6  C   UNL d   1     -41.549-123.111 -48.514  0.00  0.00     0.043 A 
ATOM      7  C   UNL d   1     -42.027-123.304 -47.882  0.00  0.00     0.128 A 
ATOM      8  C   UNL d   1     -42.762-123.659 -48.013  0.00  0.00     0.024 A 
ATOM      9  C   UNL d   1     -43.009-123.817 -48.785  0.00  0.00     0.003 A 
ATOM     10  C   UNL d   1     -42.522-123.621 -49.421  0.00  0.00     0.019 A 
BRANCH   7  11
ATOM     11  N   UNL d   1     -41.783-123.146 -47.107  0.00  0.00    -0.114 N 
ATOM     12  O   UNL d   1     -42.129-122.536 -46.681  0.00  0.00    -0.532 OA
ATOM     13  O   UNL d   1     -41.194-123.603 -46.766  0.00  0.00    -0.532 OA
ENDBRANCH   7  11
ENDBRANCH   2   5
BRANCH   4  14
ATOM     14  C   UNL d   1     -41.484-122.463 -52.002  0.00  0.00     0.104 C 
BRANCH  14  15
ATOM     15  C   UNL d   1     -41.123-122.700 -52.705  0.00  0.00     0.021 C 
BRANCH  15  16
ATOM     16  C   UNL d   1     -41.430-122.460 -53.424  0.00  0.00     0.002 A 
ATOM     17  C   UNL d   1     -41.794-121.727 -53.489  0.00  0.00     0.002 A 
ATOM     18  C   UNL d   1     -42.106-121.481 -54.216  0.00  0.00     0.024 A 
ATOM     19  C   UNL d   1     -42.047-121.975 -54.867  0.00  0.00     0.094 A 
ATOM     20  C   UNL d   1     -41.685-122.705 -54.803  0.00  0.00     0.024 A 
ATOM     21  C   UNL d   1     -41.373-122.951 -54.076  0.00  0.00     0.002 A 
BRANCH  19  22
ATOM     22  O   UNL d   1     -42.357-121.733 -55.591  0.00  0.00    -0.328 OA
ATOM     23  C   UNL d   1     -42.769-122.270 -56.063  0.00  0.00     0.181 C 
ENDBRANCH  19  22
ENDBRANCH  15  16
ENDBRANCH  14  15
ENDBRANCH   4  14
TORSDOF 6
ENDMDL
MODEL 3
REMARK VINA RESULT:      -4.0      1.354      5.922
REMARK  6 active torsions:
REMARK  status: ('A' for Active; 'I' for Inactive)
REMARK    1  A    between atoms: C_3  and  N_1 
REMARK       I    between atoms: C_2  and  N_5 
REMARK       I    between atoms: N_10  and  C_2 
REMARK    2  A    between atoms: N_5  and  C_8 
REMARK    3  A    between atoms: C_17  and  N_10 
REMARK    4  A    between atoms: O_18  and  C_11 
REMARK    5  A    between atoms: C_12  and  C_22 
REMARK    6  A    between atoms: C_22  and  C_17 
ROOT
ATOM      1  C   UNL d   1     -41.688-122.566 -50.577  0.00  0.00     0.369 C 
ATOM      2  N   UNL d   1     -41.833-122.270 -49.817  0.00  0.00    -0.191 NA
ATOM      3  O   UNL d   1     -41.546-123.375 -50.680  0.00  0.00    -0.242 OA
ATOM      4  N   UNL d   1     -41.685-122.063 -51.215  0.00  0.00    -0.189 NA
ENDROOT
BRANCH   2   5
ATOM      5  C   UNL d   1     -41.837-122.779 -49.168  0.00  0.00     0.088 A 
ATOM      6  C   UNL d   1     -42.545-122.992 -48.814  0.00  0.00     0.043 A 
ATOM      7  C   UNL d   1     -42.554-123.495 -48.173  0.00  0.00     0.128 A 
ATOM      8  C   UNL d   1     -41.844-123.795 -47.873  0.00  0.00     0.024 A 
ATOM      9  C   UNL d   1     -41.128-123.583 -48.226  0.00  0.00     0.003 A 
ATOM     10  C   UNL d   1     -41.125-123.074 -48.875  0.00  0.00     0.019 A 
BRANCH   7  11
ATOM     11  N   UNL d   1     -43.270-123.709 -47.816  0.00  0.00    -0.114 N 
ATOM     12  O   UNL d   1     -43.942-123.817 -48.274  0.00  0.00    -0.532 OA
ATOM     13  O   UNL d   1     -43.303-123.813 -47.005  0.00  0.00    -0.532 OA
ENDBRANCH   7  11
ENDBRANCH   2   5
BRANCH   4  14
ATOM     14  C   UNL d   1     -41.539-122.359 -51.974  0.00  0.00     0.104 C 
BRANCH  14  15
ATOM     15  C   UNL d   1     -41.312-121.849 -52.582  0.00  0.00     0.021 C 
BRANCH  15  16
ATOM     16  C   UNL d   1     -41.548-121.999 -53.352  0.00  0.00     0.002 A 
ATOM     17  C   UNL d   1     -41.135-122.543 -53.807  0.00  0.00     0.002 A 
ATOM     18  C   UNL d   1     -41.372-122.697 -54.586  0.00  0.00     0.024 A 
ATOM     19  C   UNL d   1     -42.020-122.302 -54.895  0.00  0.00     0.094 A 
ATOM     20  C   UNL d   1     -42.431-121.761 -54.442  0.00  0.00     0.024 A 
ATOM     21  C   UNL d   1     -42.195-121.607 -53.663  0.00  0.00     0.002 A 
BRANCH  19  22
ATOM     22  O   UNL d   1     -42.258-122.453 -55.670  0.00  0.00    -0.328 OA
ATOM     23  C   UNL d   1     -42.335-121.830 -56.205  0.00  0.00     0.181 C 
ENDBRANCH  19  22
ENDBRANCH  15  16
ENDBRANCH  14  15
ENDBRANCH   4  14
TORSDOF 6
ENDMDL
