MODEL 1
REMARK VINA RESULT:      93.1      0.000      0.000
REMARK  9 active torsions:
REMARK  status: ('A' for Active; 'I' for Inactive)
REMARK    1  A    between atoms: C_6  and  N_1 
REMARK    2  A    between atoms: S_11  and  C_2 
REMARK    3  A    between atoms: C_14  and  C_3 
REMARK       I    between atoms: C_7  and  N_12 
REMARK    4  A    between atoms: C_8  and  C_7 
REMARK    5  A    between atoms: C_9  and  N_10 
REMARK       I    between atoms: N_10  and  C_13 
REMARK    6  A    between atoms: C_24  and  S_11 
REMARK    7  A    between atoms: N_12  and  C_14 
REMARK    8  A    between atoms: C_13  and  C_24 
REMARK    9  A    between atoms: O_28  and  C_19 
ROOT
ATOM      1  N   UNL d   1     -55.629-100.260 -42.971  0.00  0.00    -0.266 N 
ATOM      2  C   UNL d   1     -56.021 -99.568 -42.738  0.00  0.00     0.201 A 
ATOM      3  C   UNL d   1     -55.253-100.582 -42.303  0.00  0.00     0.190 A 
ATOM      4  N   UNL d   1     -55.888 -99.459 -41.920  0.00  0.00    -0.121 NA
ATOM      5  N   UNL d   1     -55.415-100.083 -41.652  0.00  0.00    -0.126 NA
ENDROOT
BRANCH   2   6
ATOM      6  S   UNL d   1     -56.460 -99.076 -43.220  0.00  0.00    -0.043 SA
BRANCH   6   7
ATOM      7  C   UNL d   1     -57.209 -98.811 -42.984  0.00  0.00     0.101 C 
BRANCH   7   8
ATOM      8  C   UNL d   1     -57.838 -98.824 -43.505  0.00  0.00     0.286 C 
ATOM      9  N   UNL d   1     -57.707 -98.759 -44.314  0.00  0.00    -0.208 NA
ATOM     10  O   UNL d   1     -58.612 -98.904 -43.218  0.00  0.00    -0.265 OA
BRANCH   9  11
ATOM     11  C   UNL d   1     -58.344 -98.772 -44.839  0.00  0.00     0.085 A 
ATOM     12  C   UNL d   1     -59.113 -98.790 -44.562  0.00  0.00     0.018 A 
ATOM     13  C   UNL d   1     -59.750 -98.803 -45.088  0.00  0.00     0.002 A 
ATOM     14  C   UNL d   1     -59.259 -98.795 -43.752  0.00  0.00     0.002 C 
ATOM     15  C   UNL d   1     -59.602 -98.798 -45.901  0.00  0.00     0.000 A 
ATOM     16  C   UNL d   1     -58.816 -98.780 -46.189  0.00  0.00     0.002 A 
ATOM     17  C   UNL d   1     -58.194 -98.767 -45.648  0.00  0.00     0.019 A 
ATOM     18  C   UNL d   1     -58.676 -98.775 -46.984  0.00  0.00     0.000 C 
ENDBRANCH   9  11
ENDBRANCH   7   8
ENDBRANCH   6   7
ENDBRANCH   2   6
BRANCH   1  19
ATOM     19  C   UNL d   1     -55.614-100.571 -43.724  0.00  0.00     0.090 A 
ATOM     20  C   UNL d   1     -55.450-100.076 -44.364  0.00  0.00     0.110 A 
ATOM     21  C   UNL d   1     -55.434-100.387 -45.125  0.00  0.00     0.026 A 
ATOM     22  C   UNL d   1     -55.582-101.194 -45.249  0.00  0.00     0.002 A 
ATOM     23  C   UNL d   1     -55.747-101.683 -44.595  0.00  0.00     0.002 A 
ATOM     24  C   UNL d   1     -55.762-101.368 -43.835  0.00  0.00     0.020 A 
BRANCH  20  25
ATOM     25  O   UNL d   1     -55.302 -99.277 -44.249  0.00  0.00    -0.327 OA
ATOM     26  C   UNL d   1     -54.725 -99.029 -43.721  0.00  0.00     0.181 C 
ENDBRANCH  20  25
ENDBRANCH   1  19
BRANCH   3  27
ATOM     27  C   UNL d   1     -54.800-101.272 -42.283  0.00  0.00     0.141 C 
BRANCH  27  28
ATOM     28  N   UNL d   1     -54.716-101.690 -41.576  0.00  0.00    -0.202 NA
ATOM     29  C   UNL d   1     -55.219-101.518 -40.941  0.00  0.00     0.302 C 
ATOM     30  O   UNL d   1     -55.797-100.932 -41.021  0.00  0.00    -0.263 OA
BRANCH  29  31
ATOM     31  C   UNL d   1     -55.146-101.930 -40.225  0.00  0.00     0.158 A 
ATOM     32  O   UNL d   1     -54.782-101.640 -39.550  0.00  0.00    -0.300 OA
ATOM     33  C   UNL d   1     -54.829-102.221 -38.966  0.00  0.00     0.123 A 
ATOM     34  C   UNL d   1     -55.228-102.871 -39.296  0.00  0.00     0.029 A 
ATOM     35  C   UNL d   1     -55.422-102.687 -40.075  0.00  0.00     0.032 A 
ENDBRANCH  29  31
ENDBRANCH  27  28
ENDBRANCH   3  27
TORSDOF 9
ENDMDL
