MODEL 1
REMARK VINA RESULT:      -6.1      0.000      0.000
REMARK  2 active torsions:
REMARK  status: ('A' for Active; 'I' for Inactive)
REMARK    1  A    between atoms: CA_2  and  C_1 
REMARK    2  A    between atoms: C_3  and  CA_2 
ROOT
ATOM      1  C   UNL d   1     -47.575  13.241  22.589  0.00  0.00     0.025 A 
ATOM      2  C   UNL d   1     -47.798  13.286  21.798  0.00  0.00     0.002 A 
ATOM      3  C   UNL d   1     -48.054  12.838  23.134  0.00  0.00     0.002 A 
ATOM      4  C   UNL d   1     -48.497  12.930  21.548  0.00  0.00     0.000 A 
ATOM      5  C   UNL d   1     -48.753  12.482  22.884  0.00  0.00     0.000 A 
ATOM      6  C   UNL d   1     -48.976  12.527  22.093  0.00  0.00     0.000 A 
ATOM      7  C   UNL d   1     -49.678  12.171  21.840  0.00  0.00     0.000 C 
ENDROOT
BRANCH   1   8
ATOM      8  CA  UNL d   1     -46.871  13.601  22.834  0.00  0.00     0.167 C 
ATOM      9  N   UNL d   1     -46.846  14.423  22.947  0.00  0.00    -0.142 N 
BRANCH   8  10
ATOM     10  C   UNL d   1     -46.194  13.148  22.967  0.00  0.00     0.231 C 
ATOM     11  O   UNL d   1     -46.082  12.778  23.698  0.00  0.00    -0.643 OA
ATOM     12  OXT UNL d   1     -45.630  13.065  22.373  0.00  0.00    -0.643 OA
ENDBRANCH   8  10
ENDBRANCH   1   8
TORSDOF 2
ENDMDL
MODEL 2
REMARK VINA RESULT:      -6.0      1.874      2.664
REMARK  2 active torsions:
REMARK  status: ('A' for Active; 'I' for Inactive)
REMARK    1  A    between atoms: CA_2  and  C_1 
REMARK    2  A    between atoms: C_3  and  CA_2 
ROOT
ATOM      1  C   UNL d   1     -48.034  12.727  23.116  0.00  0.00     0.025 A 
ATOM      2  C   UNL d   1     -47.969  13.320  22.550  0.00  0.00     0.002 A 
ATOM      3  C   UNL d   1     -47.356  12.447  23.505  0.00  0.00     0.002 A 
ATOM      4  C   UNL d   1     -47.230  13.637  22.370  0.00  0.00     0.000 A 
ATOM      5  C   UNL d   1     -46.618  12.763  23.325  0.00  0.00     0.000 A 
ATOM      6  C   UNL d   1     -46.553  13.358  22.759  0.00  0.00     0.000 A 
ATOM      7  C   UNL d   1     -45.812  13.676  22.577  0.00  0.00     0.000 C 
ENDROOT
BRANCH   1   8
ATOM      8  CA  UNL d   1     -48.779  12.413  23.292  0.00  0.00     0.167 C 
ATOM      9  N   UNL d   1     -49.354  12.893  23.651  0.00  0.00    -0.142 N 
BRANCH   8  10
ATOM     10  C   UNL d   1     -48.955  11.627  23.114  0.00  0.00     0.231 C 
ATOM     11  O   UNL d   1     -48.885  11.045  23.698  0.00  0.00    -0.643 OA
ATOM     12  OXT UNL d   1     -49.200  11.420  22.355  0.00  0.00    -0.643 OA
ENDBRANCH   8  10
ENDBRANCH   1   8
TORSDOF 2
ENDMDL
MODEL 3
REMARK VINA RESULT:      -5.7      1.834      2.467
REMARK  2 active torsions:
REMARK  status: ('A' for Active; 'I' for Inactive)
REMARK    1  A    between atoms: CA_2  and  C_1 
REMARK    2  A    between atoms: C_3  and  CA_2 
ROOT
ATOM      1  C   UNL d   1     -47.955  13.231  22.696  0.00  0.00     0.025 A 
ATOM      2  C   UNL d   1     -48.284  12.548  23.014  0.00  0.00     0.002 A 
ATOM      3  C   UNL d   1     -47.132  13.342  22.711  0.00  0.00     0.002 A 
ATOM      4  C   UNL d   1     -47.796  11.974  23.347  0.00  0.00     0.000 A 
ATOM      5  C   UNL d   1     -46.645  12.769  23.043  0.00  0.00     0.000 A 
ATOM      6  C   UNL d   1     -46.974  12.085  23.362  0.00  0.00     0.000 A 
ATOM      7  C   UNL d   1     -46.486  11.508  23.696  0.00  0.00     0.000 C 
ENDROOT
BRANCH   1   8
ATOM      8  CA  UNL d   1     -48.450  13.804  22.362  0.00  0.00     0.167 C 
ATOM      9  N   UNL d   1     -48.817  13.657  21.632  0.00  0.00    -0.142 N 
BRANCH   8  10
ATOM     10  C   UNL d   1     -48.583  14.520  22.751  0.00  0.00     0.231 C 
ATOM     11  O   UNL d   1     -49.181  14.577  23.320  0.00  0.00    -0.643 OA
ATOM     12  OXT UNL d   1     -48.121  15.178  22.572  0.00  0.00    -0.643 OA
ENDBRANCH   8  10
ENDBRANCH   1   8
TORSDOF 2
ENDMDL
