MODEL 1
REMARK VINA RESULT:      98.7      0.000      0.000
REMARK  12 active torsions:
REMARK  status: ('A' for Active; 'I' for Inactive)
REMARK    1  A    between atoms: C_18  and  N_1 
REMARK    2  A    between atoms: C_9  and  N_3 
REMARK    3  A    between atoms: C_12  and  C_9 
REMARK       I    between atoms: N_19  and  C_12 
REMARK    4  A    between atoms: C_14  and  C_22 
REMARK       I    between atoms: N_15  and  C_14 
REMARK    5  A    between atoms: C_20  and  N_15 
REMARK    6  A    between atoms: C_27  and  C_18 
REMARK    7  A    between atoms: C_23  and  N_19 
REMARK    8  A    between atoms: O_21  and  C_24 
REMARK    9  A    between atoms: C_22  and  C_29 
REMARK   10  A    between atoms: C_24  and  C_23 
REMARK   11  A    between atoms: C_30  and  C_27 
REMARK   12  A    between atoms: C_29  and  C_30 
ROOT
ATOM      1  N   UNL d   1      60.170  49.108  52.538  0.00  0.00    -0.225 N 
ATOM      2  C   UNL d   1      60.302  48.876  51.759  0.00  0.00     0.342 A 
ATOM      3  N   UNL d   1      61.063  48.926  51.424  0.00  0.00    -0.253 N 
ATOM      4  C   UNL d   1      61.548  49.444  52.672  0.00  0.00     0.102 A 
ATOM      5  C   UNL d   1      60.794  49.390  52.988  0.00  0.00     0.276 A 
ATOM      6  C   UNL d   1      61.694  49.212  51.881  0.00  0.00     0.080 A 
ATOM      7  S   UNL d   1      62.279  49.708  53.000  0.00  0.00    -0.080 SA
ATOM      8  C   UNL d   1      62.509  49.328  51.712  0.00  0.00     0.025 A 
ATOM      9  O   UNL d   1      59.684  48.591  51.294  0.00  0.00    -0.245 OA
ATOM     10  C   UNL d   1      62.871  49.635  52.404  0.00  0.00     0.037 A 
ATOM     11  O   UNL d   1      60.654  49.618  53.764  0.00  0.00    -0.266 OA
ENDROOT
BRANCH   1  12
ATOM     12  C   UNL d   1      59.421  49.053  52.850  0.00  0.00     0.087 C 
BRANCH  12  13
ATOM     13  C   UNL d   1      58.912  49.707  52.814  0.00  0.00     0.019 C 
BRANCH  13  14
ATOM     14  C   UNL d   1      58.258  49.689  52.315  0.00  0.00     0.002 C 
BRANCH  14  15
ATOM     15  C   UNL d   1      57.499  49.682  52.628  0.00  0.00     0.005 C 
BRANCH  15  16
ATOM     16  C   UNL d   1      56.960  49.106  52.400  0.00  0.00     0.062 C 
BRANCH  16  17
ATOM     17  C   UNL d   1      56.707  49.061  51.614  0.00  0.00     0.279 C 
ATOM     18  N   UNL d   1      56.834  48.367  51.178  0.00  0.00    -0.208 NA
ATOM     19  O   UNL d   1      56.329  49.707  51.268  0.00  0.00    -0.265 OA
BRANCH  18  20
ATOM     20  C   UNL d   1      56.582  48.325  50.400  0.00  0.00     0.085 A 
ATOM     21  C   UNL d   1      56.601  49.000  49.933  0.00  0.00     0.019 A 
ATOM     22  C   UNL d   1      56.347  48.961  49.147  0.00  0.00     0.002 A 
ATOM     23  C   UNL d   1      56.076  48.241  48.838  0.00  0.00     0.000 A 
ATOM     24  C   UNL d   1      56.060  47.571  49.311  0.00  0.00     0.002 A 
ATOM     25  C   UNL d   1      56.312  47.608  50.093  0.00  0.00     0.019 A 
ENDBRANCH  18  20
ENDBRANCH  16  17
ENDBRANCH  15  16
ENDBRANCH  14  15
ENDBRANCH  13  14
ENDBRANCH  12  13
ENDBRANCH   1  12
BRANCH   3  26
ATOM     26  C   UNL d   1      61.183  48.691  50.642  0.00  0.00     0.147 C 
BRANCH  26  27
ATOM     27  C   UNL d   1      61.026  47.908  50.416  0.00  0.00     0.297 C 
ATOM     28  O   UNL d   1      61.165  47.655  49.652  0.00  0.00    -0.264 OA
ATOM     29  N   UNL d   1      60.721  47.368  50.979  0.00  0.00    -0.203 NA
BRANCH  29  30
ATOM     30  C   UNL d   1      60.560  46.577  50.758  0.00  0.00     0.129 C 
BRANCH  30  31
ATOM     31  C   UNL d   1      61.166  46.097  50.468  0.00  0.00     0.137 C 
BRANCH  31  32
ATOM     32  O   UNL d   1      61.110  45.763  49.721  0.00  0.00    -0.325 OA
ATOM     33  C   UNL d   1      61.768  45.395  49.387  0.00  0.00     0.182 C 
ENDBRANCH  31  32
ENDBRANCH  30  31
ENDBRANCH  29  30
ENDBRANCH  26  27
ENDBRANCH   3  26
TORSDOF 12
ENDMDL
MODEL 2
REMARK VINA RESULT:     101.4      4.749      6.978
REMARK  12 active torsions:
REMARK  status: ('A' for Active; 'I' for Inactive)
REMARK    1  A    between atoms: C_18  and  N_1 
REMARK    2  A    between atoms: C_9  and  N_3 
REMARK    3  A    between atoms: C_12  and  C_9 
REMARK       I    between atoms: N_19  and  C_12 
REMARK    4  A    between atoms: C_14  and  C_22 
REMARK       I    between atoms: N_15  and  C_14 
REMARK    5  A    between atoms: C_20  and  N_15 
REMARK    6  A    between atoms: C_27  and  C_18 
REMARK    7  A    between atoms: C_23  and  N_19 
REMARK    8  A    between atoms: O_21  and  C_24 
REMARK    9  A    between atoms: C_22  and  C_29 
REMARK   10  A    between atoms: C_24  and  C_23 
REMARK   11  A    between atoms: C_30  and  C_27 
REMARK   12  A    between atoms: C_29  and  C_30 
ROOT
ATOM      1  N   UNL d   1      61.362  44.159  51.413  0.00  0.00    -0.225 N 
ATOM      2  C   UNL d   1      60.931  44.862  51.410  0.00  0.00     0.342 A 
ATOM      3  N   UNL d   1      60.905  45.342  50.729  0.00  0.00    -0.253 N 
ATOM      4  C   UNL d   1      61.750  44.393  50.062  0.00  0.00     0.102 A 
ATOM      5  C   UNL d   1      61.768  43.931  50.738  0.00  0.00     0.276 A 
ATOM      6  C   UNL d   1      61.316  45.109  50.048  0.00  0.00     0.080 A 
ATOM      7  S   UNL d   1      62.108  44.296  49.304  0.00  0.00    -0.080 SA
ATOM      8  C   UNL d   1      61.400  45.460  49.289  0.00  0.00     0.025 A 
ATOM      9  O   UNL d   1      60.519  45.105  52.080  0.00  0.00    -0.245 OA
ATOM     10  C   UNL d   1      61.890  44.958  48.828  0.00  0.00     0.037 A 
ATOM     11  O   UNL d   1      62.193  43.230  50.748  0.00  0.00    -0.266 OA
ENDROOT
BRANCH   1  12
ATOM     12  C   UNL d   1      61.377  43.702  52.085  0.00  0.00     0.087 C 
BRANCH  12  13
ATOM     13  C   UNL d   1      60.955  42.989  52.107  0.00  0.00     0.019 C 
BRANCH  13  14
ATOM     14  C   UNL d   1      61.120  42.434  52.692  0.00  0.00     0.002 C 
BRANCH  14  15
ATOM     15  C   UNL d   1      60.508  42.093  53.121  0.00  0.00     0.005 C 
BRANCH  15  16
ATOM     16  C   UNL d   1      60.528  41.293  53.308  0.00  0.00     0.062 C 
BRANCH  16  17
ATOM     17  C   UNL d   1      60.122  41.011  53.971  0.00  0.00     0.279 C 
ATOM     18  N   UNL d   1      59.763  40.265  53.947  0.00  0.00    -0.208 NA
ATOM     19  O   UNL d   1      60.077  41.475  54.652  0.00  0.00    -0.265 OA
BRANCH  18  20
ATOM     20  C   UNL d   1      59.361  39.987  54.606  0.00  0.00     0.085 A 
ATOM     21  C   UNL d   1      58.611  39.666  54.514  0.00  0.00     0.019 A 
ATOM     22  C   UNL d   1      58.203  39.385  55.176  0.00  0.00     0.002 A 
ATOM     23  C   UNL d   1      58.554  39.430  55.926  0.00  0.00     0.000 A 
ATOM     24  C   UNL d   1      59.305  39.753  56.009  0.00  0.00     0.002 A 
ATOM     25  C   UNL d   1      59.711  40.032  55.351  0.00  0.00     0.019 A 
ENDBRANCH  18  20
ENDBRANCH  16  17
ENDBRANCH  15  16
ENDBRANCH  14  15
ENDBRANCH  13  14
ENDBRANCH  12  13
ENDBRANCH   1  12
BRANCH   3  26
ATOM     26  C   UNL d   1      60.471  46.044  50.740  0.00  0.00     0.147 C 
BRANCH  26  27
ATOM     27  C   UNL d   1      60.810  46.736  51.047  0.00  0.00     0.297 C 
ATOM     28  O   UNL d   1      61.310  46.708  51.693  0.00  0.00    -0.264 OA
ATOM     29  N   UNL d   1      60.638  47.474  50.692  0.00  0.00    -0.203 NA
BRANCH  29  30
ATOM     30  C   UNL d   1      60.977  48.176  50.998  0.00  0.00     0.129 C 
BRANCH  30  31
ATOM     31  C   UNL d   1      60.769  48.909  50.681  0.00  0.00     0.137 C 
BRANCH  31  32
ATOM     32  O   UNL d   1      60.678  49.562  51.170  0.00  0.00    -0.325 OA
ATOM     33  C   UNL d   1      61.219  49.698  51.776  0.00  0.00     0.182 C 
ENDBRANCH  31  32
ENDBRANCH  30  31
ENDBRANCH  29  30
ENDBRANCH  26  27
ENDBRANCH   3  26
TORSDOF 12
ENDMDL
