MODEL 1
REMARK VINA RESULT:      33.6      0.000      0.000
REMARK  2 active torsions:
REMARK  status: ('A' for Active; 'I' for Inactive)
REMARK    1  A    between atoms: N_2  and  S_1 
REMARK    2  A    between atoms: C_3  and  S_1 
ROOT
ATOM      1  N   UNL d   1      13.910  13.772  -2.691  0.00  0.00    -0.231 N 
ATOM      2  C   UNL d   1      13.512  13.579  -3.394  0.00  0.00     0.075 A 
ATOM      3  C   UNL d   1      14.103  14.591  -2.753  0.00  0.00     0.092 A 
ATOM      4  C   UNL d   1      13.471  14.280  -3.867  0.00  0.00     0.018 A 
ATOM      5  C   UNL d   1      13.843  14.882  -3.445  0.00  0.00     0.021 A 
ATOM      6  C   UNL d   1      13.184  12.891  -3.679  0.00  0.00     0.018 A 
ATOM      7  C   UNL d   1      13.108  14.261  -4.594  0.00  0.00     0.002 A 
ATOM      8  C   UNL d   1      12.815  12.867  -4.416  0.00  0.00     0.002 A 
ATOM      9  C   UNL d   1      12.779  13.558  -4.875  0.00  0.00     0.000 A 
ENDROOT
BRANCH   1  10
ATOM     10  S   UNL d   1      14.118  13.340  -2.029  0.00  0.00     0.277 S 
ATOM     11  O   UNL d   1      13.538  12.756  -2.213  0.00  0.00    -0.199 OA
ATOM     12  O   UNL d   1      14.707  13.914  -1.823  0.00  0.00    -0.199 OA
BRANCH  10  13
ATOM     13  C   UNL d   1      14.317  12.897  -1.367  0.00  0.00     0.133 A 
ATOM     14  S   UNL d   1      14.550  13.180  -0.609  0.00  0.00    -0.074 SA
ATOM     15  C   UNL d   1      14.694  12.541  -0.124  0.00  0.00     0.036 A 
ATOM     16  C   UNL d   1      14.564  11.838  -0.532  0.00  0.00     0.008 A 
ATOM     17  C   UNL d   1      14.331  12.056  -1.300  0.00  0.00     0.020 A 
ENDBRANCH  10  13
ENDBRANCH   1  10
TORSDOF 2
ENDMDL
