MODEL 1
REMARK VINA RESULT:      -5.7      0.000      0.000
REMARK  6 active torsions:
REMARK  status: ('A' for Active; 'I' for Inactive)
REMARK    1  A    between atoms: C_2  and  S_1 
REMARK    2  A    between atoms: N_3  and  S_1 
REMARK    3  A    between atoms: C_5  and  C_6 
REMARK    4  A    between atoms: O_13  and  C_5 
REMARK    5  A    between atoms: C_22  and  O_13 
REMARK    6  A    between atoms: C_21  and  C_22 
ROOT
ATOM      1  C   UNL d   1      59.141  -1.088  29.150  0.00  0.00     0.104 A 
ATOM      2  C   UNL d   1      58.473  -0.846  29.569  0.00  0.00     0.018 A 
ATOM      3  C   UNL d   1      58.342  -0.042  29.710  0.00  0.00     0.064 A 
ATOM      4  C   UNL d   1      59.672  -0.530  28.877  0.00  0.00     0.012 A 
ATOM      5  C   UNL d   1      58.880   0.519  29.433  0.00  0.00     0.005 A 
ATOM      6  C   UNL d   1      59.543   0.267  29.017  0.00  0.00     0.001 A 
ATOM      7  C   UNL d   1      60.340  -0.772  28.459  0.00  0.00     0.001 C 
ENDROOT
BRANCH   3   8
ATOM      8  C   UNL d   1      57.674   0.201  30.129  0.00  0.00     0.300 C 
ATOM      9  O   UNL d   1      57.111   0.682  29.761  0.00  0.00    -0.259 OA
BRANCH   8  10
ATOM     10  O   UNL d   1      57.568  -0.034  30.910  0.00  0.00    -0.271 OA
BRANCH  10  11
ATOM     11  C   UNL d   1      57.170   0.456  31.435  0.00  0.00     0.126 C 
BRANCH  11  12
ATOM     12  C   UNL d   1      56.677   0.134  32.013  0.00  0.00     0.027 A 
ATOM     13  C   UNL d   1      56.210   0.622  32.468  0.00  0.00     0.028 A 
ATOM     14  C   UNL d   1      55.715   0.305  33.048  0.00  0.00     0.119 A 
ATOM     15  O   UNL d   1      55.186   0.653  33.588  0.00  0.00    -0.300 OA
ATOM     16  C   UNL d   1      55.697  -0.514  33.163  0.00  0.00     0.119 A 
ATOM     17  C   UNL d   1      54.844   0.042  34.034  0.00  0.00     0.304 A 
ATOM     18  O   UNL d   1      55.159  -0.674  33.772  0.00  0.00    -0.300 OA
ATOM     19  C   UNL d   1      56.172  -1.014  32.700  0.00  0.00     0.026 A 
ATOM     20  C   UNL d   1      56.662  -0.685  32.125  0.00  0.00     0.004 A 
ENDBRANCH  11  12
ENDBRANCH  10  11
ENDBRANCH   8  10
ENDBRANCH   3   8
BRANCH   1  21
ATOM     21  S   UNL d   1      59.270  -1.889  29.009  0.00  0.00     0.271 S 
ATOM     22  O   UNL d   1      58.643  -1.893  28.458  0.00  0.00    -0.200 OA
ATOM     23  O   UNL d   1      59.979  -1.884  29.632  0.00  0.00    -0.200 OA
BRANCH  21  24
ATOM     24  N   UNL d   1      59.441  -2.684  28.905  0.00  0.00    -0.229 N 
ATOM     25  C   UNL d   1      58.869  -3.197  28.607  0.00  0.00     0.092 A 
ATOM     26  C   UNL d   1      59.048  -3.996  28.505  0.00  0.00     0.020 A 
ATOM     27  C   UNL d   1      59.792  -4.278  28.700  0.00  0.00     0.003 A 
ATOM     28  C   UNL d   1      60.359  -3.765  28.997  0.00  0.00     0.020 A 
ATOM     29  C   UNL d   1      60.186  -2.974  29.099  0.00  0.00     0.092 A 
ENDBRANCH  21  24
ENDBRANCH   1  21
TORSDOF 6
ENDMDL
MODEL 2
REMARK VINA RESULT:      -3.1      1.830      5.533
REMARK  6 active torsions:
REMARK  status: ('A' for Active; 'I' for Inactive)
REMARK    1  A    between atoms: C_2  and  S_1 
REMARK    2  A    between atoms: N_3  and  S_1 
REMARK    3  A    between atoms: C_5  and  C_6 
REMARK    4  A    between atoms: O_13  and  C_5 
REMARK    5  A    between atoms: C_22  and  O_13 
REMARK    6  A    between atoms: C_21  and  C_22 
ROOT
ATOM      1  C   UNL d   1      57.068   0.209  32.453  0.00  0.00     0.104 A 
ATOM      2  C   UNL d   1      57.118   0.048  31.646  0.00  0.00     0.018 A 
ATOM      3  C   UNL d   1      57.823   0.189  31.238  0.00  0.00     0.064 A 
ATOM      4  C   UNL d   1      57.720   0.509  32.847  0.00  0.00     0.012 A 
ATOM      5  C   UNL d   1      58.478   0.492  31.638  0.00  0.00     0.005 A 
ATOM      6  C   UNL d   1      58.418   0.649  32.443  0.00  0.00     0.001 A 
ATOM      7  C   UNL d   1      57.670   0.670  33.654  0.00  0.00     0.001 C 
ENDROOT
BRANCH   3   8
ATOM      8  C   UNL d   1      57.873   0.028  30.431  0.00  0.00     0.300 C 
ATOM      9  O   UNL d   1      57.270   0.281  29.924  0.00  0.00    -0.259 OA
BRANCH   8  10
ATOM     10  O   UNL d   1      58.520  -0.382  30.130  0.00  0.00    -0.271 OA
BRANCH  10  11
ATOM     11  C   UNL d   1      58.501  -0.670  29.361  0.00  0.00     0.126 C 
BRANCH  11  12
ATOM     12  C   UNL d   1      58.847  -1.397  29.180  0.00  0.00     0.027 A 
ATOM     13  C   UNL d   1      59.551  -1.611  29.531  0.00  0.00     0.028 A 
ATOM     14  C   UNL d   1      59.902  -2.337  29.354  0.00  0.00     0.119 A 
ATOM     15  O   UNL d   1      60.601  -2.702  29.616  0.00  0.00    -0.300 OA
ATOM     16  C   UNL d   1      59.533  -2.846  28.816  0.00  0.00     0.119 A 
ATOM     17  C   UNL d   1      60.659  -3.439  29.235  0.00  0.00     0.304 A 
ATOM     18  O   UNL d   1      60.001  -3.525  28.745  0.00  0.00    -0.300 OA
ATOM     19  C   UNL d   1      58.815  -2.630  28.457  0.00  0.00     0.026 A 
ATOM     20  C   UNL d   1      58.475  -1.902  28.643  0.00  0.00     0.004 A 
ENDBRANCH  11  12
ENDBRANCH  10  11
ENDBRANCH   8  10
ENDBRANCH   3   8
BRANCH   1  21
ATOM     21  S   UNL d   1      56.366   0.068  32.859  0.00  0.00     0.271 S 
ATOM     22  O   UNL d   1      56.763  -0.471  33.359  0.00  0.00    -0.200 OA
ATOM     23  O   UNL d   1      55.918   0.677  32.295  0.00  0.00    -0.200 OA
BRANCH  21  24
ATOM     24  N   UNL d   1      55.643  -0.037  33.230  0.00  0.00    -0.229 N 
ATOM     25  C   UNL d   1      55.388  -0.791  33.441  0.00  0.00     0.092 A 
ATOM     26  C   UNL d   1      54.658  -0.889  33.813  0.00  0.00     0.020 A 
ATOM     27  C   UNL d   1      54.188  -0.236  33.973  0.00  0.00     0.003 A 
ATOM     28  C   UNL d   1      54.445   0.514  33.762  0.00  0.00     0.020 A 
ATOM     29  C   UNL d   1      55.166   0.615  33.393  0.00  0.00     0.092 A 
ENDBRANCH  21  24
ENDBRANCH   1  21
TORSDOF 6
ENDMDL
