MODEL 1
REMARK VINA RESULT:       2.3      0.000      0.000
REMARK  3 active torsions:
REMARK  status: ('A' for Active; 'I' for Inactive)
REMARK    1  A    between atoms: N_9  and  C_7 
REMARK       I    between atoms: C_10  and  N_9 
REMARK    2  A    between atoms: C_13  and  C_10 
REMARK    3  A    between atoms: O_23  and  C_18 
ROOT
ATOM      1  C   UNL d   1     -41.640-121.349 -53.217  0.00  0.00     0.081 A 
ATOM      2  C   UNL d   1     -41.661-120.933 -53.922  0.00  0.00     0.301 A 
ATOM      3  C   UNL d   1     -41.662-122.171 -53.203  0.00  0.00     0.090 A 
ATOM      4  O   UNL d   1     -41.705-121.352 -54.639  0.00  0.00    -0.273 OA
ATOM      5  N   UNL d   1     -41.641-122.581 -52.485  0.00  0.00    -0.226 NA
ATOM      6  C   UNL d   1     -41.706-122.584 -53.917  0.00  0.00     0.041 A 
ATOM      7  C   UNL d   1     -41.597-122.154 -51.772  0.00  0.00     0.166 A 
ATOM      8  C   UNL d   1     -41.597-120.929 -52.502  0.00  0.00     0.010 A 
ATOM      9  C   UNL d   1     -41.728-122.177 -54.638  0.00  0.00     0.105 A 
ATOM     10  C   UNL d   1     -41.575-121.331 -51.779  0.00  0.00     0.039 A 
ATOM     11  O   UNL d   1     -41.639-120.104 -53.930  0.00  0.00    -0.259 OA
ATOM     12  C   UNL d   1     -41.728-123.410 -53.912  0.00  0.00     0.004 A 
ATOM     13  C   UNL d   1     -41.575-120.105 -52.519  0.00  0.00     0.000 C 
ATOM     14  C   UNL d   1     -41.771-122.583 -55.344  0.00  0.00     0.025 A 
ATOM     15  C   UNL d   1     -41.772-123.816 -54.627  0.00  0.00     0.000 A 
ATOM     16  C   UNL d   1     -41.793-123.402 -55.343  0.00  0.00     0.002 A 
ENDROOT
BRANCH   7  17
ATOM     17  N   UNL d   1     -41.575-122.565 -51.044  0.00  0.00    -0.189 NA
ATOM     18  C   UNL d   1     -41.892-122.216 -50.369  0.00  0.00     0.281 C 
ATOM     19  O   UNL d   1     -42.232-121.459 -50.413  0.00  0.00    -0.265 OA
BRANCH  18  20
ATOM     20  C   UNL d   1     -41.873-122.613 -49.659  0.00  0.00     0.058 A 
ATOM     21  C   UNL d   1     -41.146-122.878 -49.345  0.00  0.00     0.007 A 
ATOM     22  C   UNL d   1     -41.126-123.281 -48.623  0.00  0.00     0.024 A 
ATOM     23  C   UNL d   1     -41.845-123.410 -48.228  0.00  0.00     0.094 A 
ATOM     24  C   UNL d   1     -42.559-123.151 -48.535  0.00  0.00     0.024 A 
ATOM     25  C   UNL d   1     -42.567-122.753 -49.251  0.00  0.00     0.007 A 
BRANCH  23  26
ATOM     26  O   UNL d   1     -41.837-123.817 -47.498  0.00  0.00    -0.328 OA
ATOM     27  C   UNL d   1     -42.436-123.707 -46.939  0.00  0.00     0.181 C 
ENDBRANCH  23  26
ENDBRANCH  18  20
ENDBRANCH   7  17
TORSDOF 3
ENDMDL
