MODEL 1
REMARK VINA RESULT:      -7.4      0.000      0.000
REMARK  5 active torsions:
REMARK  status: ('A' for Active; 'I' for Inactive)
REMARK    1  A    between atoms: C_2  and  N_1 
REMARK    2  A    between atoms: C_5  and  N_1 
REMARK    3  A    between atoms: C_7  and  C_2 
REMARK    4  A    between atoms: C_4  and  O_6 
REMARK    5  A    between atoms: O_6  and  C_8 
ROOT
ATOM      1  C   UNL d   1     -47.361  13.117  23.128  0.00  0.00     0.020 A 
ATOM      2  C   UNL d   1     -45.802  13.336  22.628  0.00  0.00     0.105 A 
ATOM      3  C   UNL d   1     -47.146  13.821  22.753  0.00  0.00     0.004 A 
ATOM      4  C   UNL d   1     -46.813  12.522  23.257  0.00  0.00     0.004 A 
ATOM      5  C   UNL d   1     -46.372  13.925  22.507  0.00  0.00     0.025 A 
ATOM      6  C   UNL d   1     -46.039  12.625  23.011  0.00  0.00     0.025 A 
ENDROOT
BRANCH   1   7
ATOM      7  C   UNL d   1     -48.157  13.010  23.380  0.00  0.00     0.108 C 
BRANCH   7   8
ATOM      8  N   UNL d   1     -48.701  12.665  22.857  0.00  0.00    -0.184 N 
ATOM      9  O   UNL d   1     -48.469  12.424  22.104  0.00  0.00    -0.080 OA
BRANCH   8  10
ATOM     10  C   UNL d   1     -49.480  12.567  23.101  0.00  0.00     0.090 A 
ATOM     11  C   UNL d   1     -50.018  13.188  22.984  0.00  0.00     0.020 A 
ATOM     12  C   UNL d   1     -50.800  13.089  23.230  0.00  0.00     0.002 A 
ATOM     13  C   UNL d   1     -51.045  12.369  23.593  0.00  0.00     0.000 A 
ATOM     14  C   UNL d   1     -50.485  11.765  23.698  0.00  0.00     0.002 A 
ATOM     15  C   UNL d   1     -49.704  11.864  23.452  0.00  0.00     0.020 A 
ENDBRANCH   8  10
ENDBRANCH   7   8
ENDBRANCH   1   7
BRANCH   2  16
ATOM     16  O   UNL d   1     -45.031  13.447  22.379  0.00  0.00    -0.260 OA
BRANCH  16  17
ATOM     17  C   UNL d   1     -44.692  12.921  21.853  0.00  0.00     0.391 C 
ATOM     18  F   UNL d   1     -44.143  12.372  22.131  0.00  0.00    -0.145 F 
ATOM     19  F   UNL d   1     -44.898  12.942  21.060  0.00  0.00    -0.145 F 
ENDBRANCH  16  17
ENDBRANCH   2  16
TORSDOF 5
ENDMDL
MODEL 2
REMARK VINA RESULT:      -5.5      8.620      9.125
REMARK  5 active torsions:
REMARK  status: ('A' for Active; 'I' for Inactive)
REMARK    1  A    between atoms: C_2  and  N_1 
REMARK    2  A    between atoms: C_5  and  N_1 
REMARK    3  A    between atoms: C_7  and  C_2 
REMARK    4  A    between atoms: C_4  and  O_6 
REMARK    5  A    between atoms: O_6  and  C_8 
ROOT
ATOM      1  C   UNL d   1     -40.019  14.978  19.238  0.00  0.00     0.020 A 
ATOM      2  C   UNL d   1     -40.775  14.913  17.771  0.00  0.00     0.105 A 
ATOM      3  C   UNL d   1     -39.846  14.361  18.715  0.00  0.00     0.004 A 
ATOM      4  C   UNL d   1     -40.560  15.560  19.042  0.00  0.00     0.004 A 
ATOM      5  C   UNL d   1     -40.224  14.334  17.989  0.00  0.00     0.025 A 
ATOM      6  C   UNL d   1     -40.938  15.532  18.316  0.00  0.00     0.025 A 
ENDROOT
BRANCH   1   7
ATOM      7  C   UNL d   1     -39.630  15.006  19.984  0.00  0.00     0.108 C 
BRANCH   7   8
ATOM      8  N   UNL d   1     -40.014  14.687  20.648  0.00  0.00    -0.184 N 
ATOM      9  O   UNL d   1     -40.803  14.454  20.609  0.00  0.00    -0.080 OA
BRANCH   8  10
ATOM     10  C   UNL d   1     -39.592  14.607  21.349  0.00  0.00     0.090 A 
ATOM     11  C   UNL d   1     -39.334  15.291  21.743  0.00  0.00     0.020 A 
ATOM     12  C   UNL d   1     -38.911  15.210  22.446  0.00  0.00     0.002 A 
ATOM     13  C   UNL d   1     -38.745  14.445  22.759  0.00  0.00     0.000 A 
ATOM     14  C   UNL d   1     -39.016  13.779  22.345  0.00  0.00     0.002 A 
ATOM     15  C   UNL d   1     -39.438  13.859  21.641  0.00  0.00     0.020 A 
ENDBRANCH   8  10
ENDBRANCH   7   8
ENDBRANCH   1   7
BRANCH   2  16
ATOM     16  O   UNL d   1     -41.148  14.878  17.044  0.00  0.00    -0.260 OA
BRANCH  16  17
ATOM     17  C   UNL d   1     -41.228  15.556  16.593  0.00  0.00     0.391 C 
ATOM     18  F   UNL d   1     -41.965  15.922  16.547  0.00  0.00    -0.145 F 
ATOM     19  F   UNL d   1     -40.582  15.863  16.195  0.00  0.00    -0.145 F 
ENDBRANCH  16  17
ENDBRANCH   2  16
TORSDOF 5
ENDMDL
MODEL 3
REMARK VINA RESULT:      -5.2      8.125      9.817
REMARK  5 active torsions:
REMARK  status: ('A' for Active; 'I' for Inactive)
REMARK    1  A    between atoms: C_2  and  N_1 
REMARK    2  A    between atoms: C_5  and  N_1 
REMARK    3  A    between atoms: C_7  and  C_2 
REMARK    4  A    between atoms: C_4  and  O_6 
REMARK    5  A    between atoms: O_6  and  C_8 
ROOT
ATOM      1  C   UNL d   1     -39.270  15.052  17.788  0.00  0.00     0.020 A 
ATOM      2  C   UNL d   1     -38.382  14.522  16.501  0.00  0.00     0.105 A 
ATOM      3  C   UNL d   1     -38.522  14.725  17.914  0.00  0.00     0.004 A 
ATOM      4  C   UNL d   1     -39.581  15.120  17.033  0.00  0.00     0.004 A 
ATOM      5  C   UNL d   1     -38.086  14.463  17.272  0.00  0.00     0.025 A 
ATOM      6  C   UNL d   1     -39.145  14.858  16.391  0.00  0.00     0.025 A 
ENDROOT
BRANCH   1   7
ATOM      7  C   UNL d   1     -39.718  15.321  18.448  0.00  0.00     0.108 C 
BRANCH   7   8
ATOM      8  N   UNL d   1     -40.253  14.799  18.809  0.00  0.00    -0.184 N 
ATOM      9  O   UNL d   1     -40.487  14.105  18.431  0.00  0.00    -0.080 OA
BRANCH   8  10
ATOM     10  C   UNL d   1     -40.548  14.984  19.553  0.00  0.00     0.090 A 
ATOM     11  C   UNL d   1     -40.531  14.405  20.147  0.00  0.00     0.020 A 
ATOM     12  C   UNL d   1     -40.827  14.591  20.894  0.00  0.00     0.002 A 
ATOM     13  C   UNL d   1     -41.141  15.358  21.050  0.00  0.00     0.000 A 
ATOM     14  C   UNL d   1     -41.146  15.918  20.437  0.00  0.00     0.002 A 
ATOM     15  C   UNL d   1     -40.850  15.731  19.690  0.00  0.00     0.020 A 
ENDBRANCH   8  10
ENDBRANCH   7   8
ENDBRANCH   1   7
BRANCH   2  16
ATOM     16  O   UNL d   1     -37.940  14.258  15.865  0.00  0.00    -0.260 OA
BRANCH  16  17
ATOM     17  C   UNL d   1     -38.130  13.551  15.501  0.00  0.00     0.391 C 
ATOM     18  F   UNL d   1     -37.943  12.843  15.878  0.00  0.00    -0.145 F 
ATOM     19  F   UNL d   1     -38.501  13.552  14.770  0.00  0.00    -0.145 F 
ENDBRANCH  16  17
ENDBRANCH   2  16
TORSDOF 5
ENDMDL
MODEL 4
REMARK VINA RESULT:      -5.2      7.495     10.021
REMARK  5 active torsions:
REMARK  status: ('A' for Active; 'I' for Inactive)
REMARK    1  A    between atoms: C_2  and  N_1 
REMARK    2  A    between atoms: C_5  and  N_1 
REMARK    3  A    between atoms: C_7  and  C_2 
REMARK    4  A    between atoms: C_4  and  O_6 
REMARK    5  A    between atoms: O_6  and  C_8 
ROOT
ATOM      1  C   UNL d   1     -39.492  15.140  18.890  0.00  0.00     0.020 A 
ATOM      2  C   UNL d   1     -40.314  15.485  20.280  0.00  0.00     0.105 A 
ATOM      3  C   UNL d   1     -40.056  15.744  18.893  0.00  0.00     0.004 A 
ATOM      4  C   UNL d   1     -39.332  14.706  19.566  0.00  0.00     0.004 A 
ATOM      5  C   UNL d   1     -40.461  15.911  19.585  0.00  0.00     0.025 A 
ATOM      6  C   UNL d   1     -39.737  14.873  20.258  0.00  0.00     0.025 A 
ENDROOT
BRANCH   1   7
ATOM      7  C   UNL d   1     -39.076  14.968  18.179  0.00  0.00     0.108 C 
BRANCH   7   8
ATOM      8  N   UNL d   1     -39.354  14.359  17.688  0.00  0.00    -0.184 N 
ATOM      9  O   UNL d   1     -40.088  14.009  17.823  0.00  0.00    -0.080 OA
BRANCH   8  10
ATOM     10  C   UNL d   1     -38.884  14.107  17.062  0.00  0.00     0.090 A 
ATOM     11  C   UNL d   1     -38.792  14.606  16.405  0.00  0.00     0.020 A 
ATOM     12  C   UNL d   1     -38.320  14.353  15.777  0.00  0.00     0.002 A 
ATOM     13  C   UNL d   1     -37.940  13.602  15.804  0.00  0.00     0.000 A 
ATOM     14  C   UNL d   1     -38.050  13.124  16.474  0.00  0.00     0.002 A 
ATOM     15  C   UNL d   1     -38.521  13.376  17.102  0.00  0.00     0.020 A 
ENDBRANCH   8  10
ENDBRANCH   7   8
ENDBRANCH   1   7
BRANCH   2  16
ATOM     16  O   UNL d   1     -40.723  15.658  20.967  0.00  0.00    -0.260 OA
BRANCH  16  17
ATOM     17  C   UNL d   1     -41.487  15.384  21.067  0.00  0.00     0.391 C 
ATOM     18  F   UNL d   1     -42.112  15.922  21.043  0.00  0.00    -0.145 F 
ATOM     19  F   UNL d   1     -41.626  14.586  21.190  0.00  0.00    -0.145 F 
ENDBRANCH  16  17
ENDBRANCH   2  16
TORSDOF 5
ENDMDL
MODEL 5
REMARK VINA RESULT:      -5.2      8.034      9.032
REMARK  5 active torsions:
REMARK  status: ('A' for Active; 'I' for Inactive)
REMARK    1  A    between atoms: C_2  and  N_1 
REMARK    2  A    between atoms: C_5  and  N_1 
REMARK    3  A    between atoms: C_7  and  C_2 
REMARK    4  A    between atoms: C_4  and  O_6 
REMARK    5  A    between atoms: O_6  and  C_8 
ROOT
ATOM      1  C   UNL d   1     -40.191  15.110  20.036  0.00  0.00     0.020 A 
ATOM      2  C   UNL d   1     -39.578  14.615  21.487  0.00  0.00     0.105 A 
ATOM      3  C   UNL d   1     -39.398  15.257  20.217  0.00  0.00     0.004 A 
ATOM      4  C   UNL d   1     -40.681  14.721  20.564  0.00  0.00     0.004 A 
ATOM      5  C   UNL d   1     -39.100  15.010  20.939  0.00  0.00     0.025 A 
ATOM      6  C   UNL d   1     -40.383  14.474  21.285  0.00  0.00     0.025 A 
ENDROOT
BRANCH   1   7
ATOM      7  C   UNL d   1     -40.498  15.364  19.294  0.00  0.00     0.108 C 
BRANCH   7   8
ATOM      8  N   UNL d   1     -40.532  14.822  18.667  0.00  0.00    -0.184 N 
ATOM      9  O   UNL d   1     -40.530  14.010  18.809  0.00  0.00    -0.080 OA
BRANCH   8  10
ATOM     10  C   UNL d   1     -40.567  15.107  17.897  0.00  0.00     0.090 A 
ATOM     11  C   UNL d   1     -40.000  14.849  17.347  0.00  0.00     0.020 A 
ATOM     12  C   UNL d   1     -40.035  15.136  16.574  0.00  0.00     0.002 A 
ATOM     13  C   UNL d   1     -40.638  15.680  16.348  0.00  0.00     0.000 A 
ATOM     14  C   UNL d   1     -41.191  15.921  16.918  0.00  0.00     0.002 A 
ATOM     15  C   UNL d   1     -41.156  15.634  17.691  0.00  0.00     0.020 A 
ENDBRANCH   8  10
ENDBRANCH   7   8
ENDBRANCH   1   7
BRANCH   2  16
ATOM     16  O   UNL d   1     -39.272  14.371  22.206  0.00  0.00    -0.260 OA
BRANCH  16  17
ATOM     17  C   UNL d   1     -39.110  13.580  22.333  0.00  0.00     0.391 C 
ATOM     18  F   UNL d   1     -38.396  13.268  22.062  0.00  0.00    -0.145 F 
ATOM     19  F   UNL d   1     -39.652  13.106  22.724  0.00  0.00    -0.145 F 
ENDBRANCH  16  17
ENDBRANCH   2  16
TORSDOF 5
ENDMDL
