MODEL 1
REMARK VINA RESULT:      -6.2      0.000      0.000
REMARK  6 active torsions:
REMARK  status: ('A' for Active; 'I' for Inactive)
REMARK    1  A    between atoms: N_6  and  C_1 
REMARK    2  A    between atoms: C_7  and  C_2 
REMARK       I    between atoms: C_8  and  N_6 
REMARK    3  A    between atoms: O_14  and  C_7 
REMARK    4  A    between atoms: C_10  and  C_8 
REMARK    5  A    between atoms: N_9  and  C_10 
REMARK    6  A    between atoms: C_21  and  O_14 
ROOT
ATOM      1  C   UNL d   1     -39.535  14.105  18.191  0.00  0.00     0.119 A 
ATOM      2  C   UNL d   1     -39.501  14.496  17.465  0.00  0.00     0.088 A 
ATOM      3  S   UNL d   1     -39.057  13.450  18.160  0.00  0.00    -0.068 SA
ATOM      4  C   UNL d   1     -38.995  14.071  16.984  0.00  0.00     0.013 A 
ATOM      5  C   UNL d   1     -38.718  13.419  17.417  0.00  0.00     0.031 A 
ATOM      6  C   UNL d   1     -38.732  14.170  16.205  0.00  0.00     0.001 A 
ATOM      7  C   UNL d   1     -38.182  12.875  17.067  0.00  0.00     0.006 A 
ATOM      8  C   UNL d   1     -38.217  13.653  15.858  0.00  0.00     0.000 A 
ATOM      9  C   UNL d   1     -37.940  13.001  16.291  0.00  0.00     0.001 A 
ENDROOT
BRANCH   1  10
ATOM     10  N   UNL d   1     -39.983  14.347  18.840  0.00  0.00    -0.200 NA
ATOM     11  C   UNL d   1     -39.764  14.147  19.609  0.00  0.00     0.297 C 
ATOM     12  O   UNL d   1     -39.080  13.697  19.705  0.00  0.00    -0.264 OA
BRANCH  11  13
ATOM     13  C   UNL d   1     -40.226  14.398  20.245  0.00  0.00     0.144 C 
BRANCH  13  14
ATOM     14  N   UNL d   1     -39.829  14.630  20.933  0.00  0.00    -0.295 N 
ATOM     15  C   UNL d   1     -39.637  15.432  21.030  0.00  0.00     0.107 A 
ATOM     16  C   UNL d   1     -39.240  15.671  21.714  0.00  0.00     0.142 A 
ATOM     17  O   UNL d   1     -39.037  15.136  22.289  0.00  0.00    -0.300 OA
ATOM     18  C   UNL d   1     -39.229  14.334  22.192  0.00  0.00     0.142 A 
ATOM     19  C   UNL d   1     -39.617  14.097  21.523  0.00  0.00     0.107 A 
ENDBRANCH  13  14
ENDBRANCH  11  13
ENDBRANCH   1  10
BRANCH   2  20
ATOM     20  C   UNL d   1     -39.903  15.195  17.245  0.00  0.00     0.302 C 
ATOM     21  O   UNL d   1     -39.496  15.922  17.289  0.00  0.00    -0.259 OA
BRANCH  20  22
ATOM     22  O   UNL d   1     -40.681  15.157  16.992  0.00  0.00    -0.271 OA
BRANCH  22  23
ATOM     23  C   UNL d   1     -41.072  15.834  16.754  0.00  0.00     0.126 C 
ATOM     24  C   UNL d   1     -41.785  15.775  16.348  0.00  0.00     0.029 C 
ENDBRANCH  22  23
ENDBRANCH  20  22
ENDBRANCH   2  20
TORSDOF 6
ENDMDL
MODEL 2
REMARK VINA RESULT:      -6.2      8.525      9.913
REMARK  6 active torsions:
REMARK  status: ('A' for Active; 'I' for Inactive)
REMARK    1  A    between atoms: N_6  and  C_1 
REMARK    2  A    between atoms: C_7  and  C_2 
REMARK       I    between atoms: C_8  and  N_6 
REMARK    3  A    between atoms: O_14  and  C_7 
REMARK    4  A    between atoms: C_10  and  C_8 
REMARK    5  A    between atoms: N_9  and  C_10 
REMARK    6  A    between atoms: C_21  and  O_14 
ROOT
ATOM      1  C   UNL d   1     -47.806  13.070  22.914  0.00  0.00     0.119 A 
ATOM      2  C   UNL d   1     -48.592  13.191  22.695  0.00  0.00     0.088 A 
ATOM      3  S   UNL d   1     -47.421  13.784  22.919  0.00  0.00    -0.068 SA
ATOM      4  C   UNL d   1     -48.687  13.992  22.563  0.00  0.00     0.013 A 
ATOM      5  C   UNL d   1     -47.957  14.362  22.702  0.00  0.00     0.031 A 
ATOM      6  C   UNL d   1     -49.331  14.458  22.334  0.00  0.00     0.001 A 
ATOM      7  C   UNL d   1     -47.880  15.193  22.611  0.00  0.00     0.006 A 
ATOM      8  C   UNL d   1     -49.268  15.260  22.243  0.00  0.00     0.000 A 
ATOM      9  C   UNL d   1     -48.538  15.630  22.382  0.00  0.00     0.001 A 
ENDROOT
BRANCH   1  10
ATOM     10  N   UNL d   1     -47.471  12.339  23.099  0.00  0.00    -0.200 NA
ATOM     11  C   UNL d   1     -46.709  12.284  23.408  0.00  0.00     0.297 C 
ATOM     12  O   UNL d   1     -46.294  12.987  23.525  0.00  0.00    -0.264 OA
BRANCH  11  13
ATOM     13  C   UNL d   1     -46.391  11.543  23.586  0.00  0.00     0.144 C 
BRANCH  13  14
ATOM     14  N   UNL d   1     -45.601  11.410  23.380  0.00  0.00    -0.295 N 
ATOM     15  C   UNL d   1     -45.215  10.744  23.690  0.00  0.00     0.107 A 
ATOM     16  C   UNL d   1     -44.426  10.606  23.488  0.00  0.00     0.142 A 
ATOM     17  O   UNL d   1     -44.026  11.109  22.993  0.00  0.00    -0.300 OA
ATOM     18  C   UNL d   1     -44.412  11.775  22.683  0.00  0.00     0.142 A 
ATOM     19  C   UNL d   1     -45.184  11.913  22.879  0.00  0.00     0.107 A 
ENDBRANCH  13  14
ENDBRANCH  11  13
ENDBRANCH   1  10
BRANCH   2  20
ATOM     20  C   UNL d   1     -49.192  12.614  22.617  0.00  0.00     0.302 C 
ATOM     21  O   UNL d   1     -49.220  12.157  21.919  0.00  0.00    -0.259 OA
BRANCH  20  22
ATOM     22  O   UNL d   1     -49.737  12.507  23.218  0.00  0.00    -0.271 OA
BRANCH  22  23
ATOM     23  C   UNL d   1     -50.247  11.868  23.207  0.00  0.00     0.126 C 
ATOM     24  C   UNL d   1     -50.931  11.880  23.662  0.00  0.00     0.029 C 
ENDBRANCH  22  23
ENDBRANCH  20  22
ENDBRANCH   2  20
TORSDOF 6
ENDMDL
MODEL 3
REMARK VINA RESULT:      -5.8      1.418      2.550
REMARK  6 active torsions:
REMARK  status: ('A' for Active; 'I' for Inactive)
REMARK    1  A    between atoms: N_6  and  C_1 
REMARK    2  A    between atoms: C_7  and  C_2 
REMARK       I    between atoms: C_8  and  N_6 
REMARK    3  A    between atoms: O_14  and  C_7 
REMARK    4  A    between atoms: C_10  and  C_8 
REMARK    5  A    between atoms: N_9  and  C_10 
REMARK    6  A    between atoms: C_21  and  O_14 
ROOT
ATOM      1  C   UNL d   1     -39.255  15.157  18.822  0.00  0.00     0.119 A 
ATOM      2  C   UNL d   1     -39.253  14.825  18.068  0.00  0.00     0.088 A 
ATOM      3  S   UNL d   1     -39.922  15.612  18.909  0.00  0.00    -0.068 SA
ATOM      4  C   UNL d   1     -39.929  15.081  17.687  0.00  0.00     0.013 A 
ATOM      5  C   UNL d   1     -40.346  15.571  18.211  0.00  0.00     0.031 A 
ATOM      6  C   UNL d   1     -40.244  14.947  16.934  0.00  0.00     0.001 A 
ATOM      7  C   UNL d   1     -41.073  15.921  17.975  0.00  0.00     0.006 A 
ATOM      8  C   UNL d   1     -40.942  15.278  16.696  0.00  0.00     0.000 A 
ATOM      9  C   UNL d   1     -41.359  15.769  17.220  0.00  0.00     0.001 A 
ENDROOT
BRANCH   1  10
ATOM     10  N   UNL d   1     -38.671  15.043  19.394  0.00  0.00    -0.200 NA
ATOM     11  C   UNL d   1     -38.821  15.184  20.193  0.00  0.00     0.297 C 
ATOM     12  O   UNL d   1     -39.576  15.444  20.398  0.00  0.00    -0.264 OA
BRANCH  11  13
ATOM     13  C   UNL d   1     -38.223  15.064  20.749  0.00  0.00     0.144 C 
BRANCH  13  14
ATOM     14  N   UNL d   1     -38.381  14.536  21.366  0.00  0.00    -0.295 N 
ATOM     15  C   UNL d   1     -38.704  14.833  22.071  0.00  0.00     0.107 A 
ATOM     16  C   UNL d   1     -38.864  14.311  22.691  0.00  0.00     0.142 A 
ATOM     17  O   UNL d   1     -38.712  13.517  22.621  0.00  0.00    -0.300 OA
ATOM     18  C   UNL d   1     -38.389  13.221  21.916  0.00  0.00     0.142 A 
ATOM     19  C   UNL d   1     -38.231  13.729  21.307  0.00  0.00     0.107 A 
ENDBRANCH  13  14
ENDBRANCH  11  13
ENDBRANCH   1  10
BRANCH   2  20
ATOM     20  C   UNL d   1     -38.675  14.319  17.737  0.00  0.00     0.302 C 
ATOM     21  O   UNL d   1     -38.023  14.660  17.342  0.00  0.00    -0.259 OA
BRANCH  20  22
ATOM     22  O   UNL d   1     -38.755  13.507  17.805  0.00  0.00    -0.271 OA
BRANCH  22  23
ATOM     23  C   UNL d   1     -38.189  13.007  17.492  0.00  0.00     0.126 C 
ATOM     24  C   UNL d   1     -38.258  12.194  17.593  0.00  0.00     0.029 C 
ENDBRANCH  22  23
ENDBRANCH  20  22
ENDBRANCH   2  20
TORSDOF 6
ENDMDL
MODEL 4
REMARK VINA RESULT:      -5.4      8.991     10.405
REMARK  6 active torsions:
REMARK  status: ('A' for Active; 'I' for Inactive)
REMARK    1  A    between atoms: N_6  and  C_1 
REMARK    2  A    between atoms: C_7  and  C_2 
REMARK       I    between atoms: C_8  and  N_6 
REMARK    3  A    between atoms: O_14  and  C_7 
REMARK    4  A    between atoms: C_10  and  C_8 
REMARK    5  A    between atoms: N_9  and  C_10 
REMARK    6  A    between atoms: C_21  and  O_14 
ROOT
ATOM      1  C   UNL d   1     -48.619  13.782  22.953  0.00  0.00     0.119 A 
ATOM      2  C   UNL d   1     -49.327  13.468  22.671  0.00  0.00     0.088 A 
ATOM      3  S   UNL d   1     -48.681  14.591  22.977  0.00  0.00    -0.068 SA
ATOM      4  C   UNL d   1     -49.829  14.095  22.521  0.00  0.00     0.013 A 
ATOM      5  C   UNL d   1     -49.426  14.795  22.712  0.00  0.00     0.031 A 
ATOM      6  C   UNL d   1     -50.605  14.148  22.236  0.00  0.00     0.001 A 
ATOM      7  C   UNL d   1     -49.803  15.540  22.615  0.00  0.00     0.006 A 
ATOM      8  C   UNL d   1     -50.977  14.860  22.139  0.00  0.00     0.000 A 
ATOM      9  C   UNL d   1     -50.574  15.560  22.330  0.00  0.00     0.001 A 
ENDROOT
BRANCH   1  10
ATOM     10  N   UNL d   1     -47.958  13.341  23.173  0.00  0.00    -0.200 NA
ATOM     11  C   UNL d   1     -47.210  13.686  23.219  0.00  0.00     0.297 C 
ATOM     12  O   UNL d   1     -47.148  14.488  23.037  0.00  0.00    -0.264 OA
BRANCH  11  13
ATOM     13  C   UNL d   1     -46.560  13.228  23.441  0.00  0.00     0.144 C 
BRANCH  13  14
ATOM     14  N   UNL d   1     -45.948  13.147  22.890  0.00  0.00    -0.295 N 
ATOM     15  C   UNL d   1     -45.677  12.384  22.706  0.00  0.00     0.107 A 
ATOM     16  C   UNL d   1     -45.067  12.296  22.157  0.00  0.00     0.142 A 
ATOM     17  O   UNL d   1     -44.730  12.940  21.796  0.00  0.00    -0.300 OA
ATOM     18  C   UNL d   1     -45.001  13.703  21.980  0.00  0.00     0.142 A 
ATOM     19  C   UNL d   1     -45.599  13.793  22.518  0.00  0.00     0.107 A 
ENDBRANCH  13  14
ENDBRANCH  11  13
ENDBRANCH   1  10
BRANCH   2  20
ATOM     20  C   UNL d   1     -49.514  12.661  22.554  0.00  0.00     0.302 C 
ATOM     21  O   UNL d   1     -49.381  12.324  21.803  0.00  0.00    -0.259 OA
BRANCH  20  22
ATOM     22  O   UNL d   1     -49.821  12.219  23.171  0.00  0.00    -0.271 OA
BRANCH  22  23
ATOM     23  C   UNL d   1     -50.046  11.442  23.053  0.00  0.00     0.126 C 
ATOM     24  C   UNL d   1     -50.184  10.952  23.698  0.00  0.00     0.029 C 
ENDBRANCH  22  23
ENDBRANCH  20  22
ENDBRANCH   2  20
TORSDOF 6
ENDMDL
MODEL 5
REMARK VINA RESULT:      -5.3      1.633      4.558
REMARK  6 active torsions:
REMARK  status: ('A' for Active; 'I' for Inactive)
REMARK    1  A    between atoms: N_6  and  C_1 
REMARK    2  A    between atoms: C_7  and  C_2 
REMARK       I    between atoms: C_8  and  N_6 
REMARK    3  A    between atoms: O_14  and  C_7 
REMARK    4  A    between atoms: C_10  and  C_8 
REMARK    5  A    between atoms: N_9  and  C_10 
REMARK    6  A    between atoms: C_21  and  O_14 
ROOT
ATOM      1  C   UNL d   1     -39.565  15.708  20.072  0.00  0.00     0.119 A 
ATOM      2  C   UNL d   1     -39.954  15.527  20.776  0.00  0.00     0.088 A 
ATOM      3  S   UNL d   1     -38.789  15.881  20.235  0.00  0.00    -0.068 SA
ATOM      4  C   UNL d   1     -39.406  15.591  21.380  0.00  0.00     0.013 A 
ATOM      5  C   UNL d   1     -38.680  15.812  21.043  0.00  0.00     0.031 A 
ATOM      6  C   UNL d   1     -39.447  15.484  22.199  0.00  0.00     0.001 A 
ATOM      7  C   UNL d   1     -38.004  15.922  21.529  0.00  0.00     0.006 A 
ATOM      8  C   UNL d   1     -38.802  15.587  22.677  0.00  0.00     0.000 A 
ATOM      9  C   UNL d   1     -38.077  15.807  22.340  0.00  0.00     0.001 A 
ENDROOT
BRANCH   1  10
ATOM     10  N   UNL d   1     -39.913  15.710  19.324  0.00  0.00    -0.200 NA
ATOM     11  C   UNL d   1     -39.455  15.755  18.639  0.00  0.00     0.297 C 
ATOM     12  O   UNL d   1     -38.636  15.796  18.730  0.00  0.00    -0.264 OA
BRANCH  11  13
ATOM     13  C   UNL d   1     -39.822  15.756  17.900  0.00  0.00     0.144 C 
BRANCH  13  14
ATOM     14  N   UNL d   1     -39.433  15.364  17.284  0.00  0.00    -0.295 N 
ATOM     15  C   UNL d   1     -39.019  15.815  16.723  0.00  0.00     0.107 A 
ATOM     16  C   UNL d   1     -38.629  15.429  16.106  0.00  0.00     0.142 A 
ATOM     17  O   UNL d   1     -38.644  14.621  16.039  0.00  0.00    -0.300 OA
ATOM     18  C   UNL d   1     -39.058  14.170  16.600  0.00  0.00     0.142 A 
ATOM     19  C   UNL d   1     -39.442  14.544  17.206  0.00  0.00     0.107 A 
ENDBRANCH  13  14
ENDBRANCH  11  13
ENDBRANCH   1  10
BRANCH   2  20
ATOM     20  C   UNL d   1     -40.757  15.316  20.873  0.00  0.00     0.302 C 
ATOM     21  O   UNL d   1     -41.319  15.922  20.992  0.00  0.00    -0.259 OA
BRANCH  20  22
ATOM     22  O   UNL d   1     -40.978  14.528  20.851  0.00  0.00    -0.271 OA
BRANCH  22  23
ATOM     23  C   UNL d   1     -41.763  14.316  20.935  0.00  0.00     0.126 C 
ATOM     24  C   UNL d   1     -41.968  13.524  21.014  0.00  0.00     0.029 C 
ENDBRANCH  22  23
ENDBRANCH  20  22
ENDBRANCH   2  20
TORSDOF 6
ENDMDL
MODEL 6
REMARK VINA RESULT:      -5.1      8.510      9.847
REMARK  6 active torsions:
REMARK  status: ('A' for Active; 'I' for Inactive)
REMARK    1  A    between atoms: N_6  and  C_1 
REMARK    2  A    between atoms: C_7  and  C_2 
REMARK       I    between atoms: C_8  and  N_6 
REMARK    3  A    between atoms: O_14  and  C_7 
REMARK    4  A    between atoms: C_10  and  C_8 
REMARK    5  A    between atoms: N_9  and  C_10 
REMARK    6  A    between atoms: C_21  and  O_14 
ROOT
ATOM      1  C   UNL d   1     -47.194  12.034  23.401  0.00  0.00     0.119 A 
ATOM      2  C   UNL d   1     -46.521  12.347  23.043  0.00  0.00     0.088 A 
ATOM      3  S   UNL d   1     -47.017  11.299  23.698  0.00  0.00    -0.068 SA
ATOM      4  C   UNL d   1     -45.924  11.795  23.122  0.00  0.00     0.013 A 
ATOM      5  C   UNL d   1     -46.233  11.142  23.530  0.00  0.00     0.031 A 
ATOM      6  C   UNL d   1     -45.131  11.776  22.885  0.00  0.00     0.001 A 
ATOM      7  C   UNL d   1     -45.746  10.477  23.696  0.00  0.00     0.006 A 
ATOM      8  C   UNL d   1     -44.653  11.142  23.040  0.00  0.00     0.000 A 
ATOM      9  C   UNL d   1     -44.962  10.489  23.448  0.00  0.00     0.001 A 
ENDROOT
BRANCH   1  10
ATOM     10  N   UNL d   1     -47.927  12.410  23.449  0.00  0.00    -0.200 NA
ATOM     11  C   UNL d   1     -48.631  11.985  23.388  0.00  0.00     0.297 C 
ATOM     12  O   UNL d   1     -48.575  11.170  23.279  0.00  0.00    -0.264 OA
BRANCH  11  13
ATOM     13  C   UNL d   1     -49.354  12.380  23.438  0.00  0.00     0.144 C 
BRANCH  13  14
ATOM     14  N   UNL d   1     -49.680  12.663  22.732  0.00  0.00    -0.295 N 
ATOM     15  C   UNL d   1     -49.885  12.116  22.142  0.00  0.00     0.107 A 
ATOM     16  C   UNL d   1     -50.211  12.392  21.435  0.00  0.00     0.142 A 
ATOM     17  O   UNL d   1     -50.333  13.184  21.309  0.00  0.00    -0.300 OA
ATOM     18  C   UNL d   1     -50.128  13.730  21.900  0.00  0.00     0.142 A 
ATOM     19  C   UNL d   1     -49.809  13.464  22.594  0.00  0.00     0.107 A 
ENDBRANCH  13  14
ENDBRANCH  11  13
ENDBRANCH   1  10
BRANCH   2  20
ATOM     20  C   UNL d   1     -46.446  13.089  22.664  0.00  0.00     0.302 C 
ATOM     21  O   UNL d   1     -46.475  13.119  21.831  0.00  0.00    -0.259 OA
BRANCH  20  22
ATOM     22  O   UNL d   1     -46.345  13.768  23.111  0.00  0.00    -0.271 OA
BRANCH  22  23
ATOM     23  C   UNL d   1     -46.333  14.502  22.753  0.00  0.00     0.126 C 
ATOM     24  C   UNL d   1     -46.163  15.173  23.196  0.00  0.00     0.029 C 
ENDBRANCH  22  23
ENDBRANCH  20  22
ENDBRANCH   2  20
TORSDOF 6
ENDMDL
MODEL 7
REMARK VINA RESULT:      -4.9      1.606      4.526
REMARK  6 active torsions:
REMARK  status: ('A' for Active; 'I' for Inactive)
REMARK    1  A    between atoms: N_6  and  C_1 
REMARK    2  A    between atoms: C_7  and  C_2 
REMARK       I    between atoms: C_8  and  N_6 
REMARK    3  A    between atoms: O_14  and  C_7 
REMARK    4  A    between atoms: C_10  and  C_8 
REMARK    5  A    between atoms: N_9  and  C_10 
REMARK    6  A    between atoms: C_21  and  O_14 
ROOT
ATOM      1  C   UNL d   1     -38.345  14.155  20.825  0.00  0.00     0.119 A 
ATOM      2  C   UNL d   1     -38.803  14.500  21.418  0.00  0.00     0.088 A 
ATOM      3  S   UNL d   1     -37.960  13.509  21.129  0.00  0.00    -0.068 SA
ATOM      4  C   UNL d   1     -38.695  14.056  22.096  0.00  0.00     0.013 A 
ATOM      5  C   UNL d   1     -38.170  13.439  21.916  0.00  0.00     0.031 A 
ATOM      6  C   UNL d   1     -38.994  14.111  22.866  0.00  0.00     0.001 A 
ATOM      7  C   UNL d   1     -37.950  12.884  22.508  0.00  0.00     0.006 A 
ATOM      8  C   UNL d   1     -38.789  13.583  23.443  0.00  0.00     0.000 A 
ATOM      9  C   UNL d   1     -38.264  12.966  23.263  0.00  0.00     0.001 A 
ENDROOT
BRANCH   1  10
ATOM     10  N   UNL d   1     -38.291  14.428  20.048  0.00  0.00    -0.200 NA
ATOM     11  C   UNL d   1     -38.087  13.921  19.430  0.00  0.00     0.297 C 
ATOM     12  O   UNL d   1     -37.940  13.132  19.618  0.00  0.00    -0.264 OA
BRANCH  11  13
ATOM     13  C   UNL d   1     -38.038  14.213  18.659  0.00  0.00     0.144 C 
BRANCH  13  14
ATOM     14  N   UNL d   1     -38.560  13.896  18.101  0.00  0.00    -0.295 N 
ATOM     15  C   UNL d   1     -39.298  14.260  17.993  0.00  0.00     0.107 A 
ATOM     16  C   UNL d   1     -39.823  13.948  17.437  0.00  0.00     0.142 A 
ATOM     17  O   UNL d   1     -39.629  13.295  16.997  0.00  0.00    -0.300 OA
ATOM     18  C   UNL d   1     -38.890  12.931  17.104  0.00  0.00     0.142 A 
ATOM     19  C   UNL d   1     -38.374  13.234  17.648  0.00  0.00     0.107 A 
ENDBRANCH  13  14
ENDBRANCH  11  13
ENDBRANCH   1  10
BRANCH   2  20
ATOM     20  C   UNL d   1     -39.291  15.175  21.355  0.00  0.00     0.302 C 
ATOM     21  O   UNL d   1     -38.968  15.922  21.541  0.00  0.00    -0.259 OA
BRANCH  20  22
ATOM     22  O   UNL d   1     -40.070  15.096  21.116  0.00  0.00    -0.271 OA
BRANCH  22  23
ATOM     23  C   UNL d   1     -40.610  15.694  21.258  0.00  0.00     0.126 C 
ATOM     24  C   UNL d   1     -41.324  15.707  20.851  0.00  0.00     0.029 C 
ENDBRANCH  22  23
ENDBRANCH  20  22
ENDBRANCH   2  20
TORSDOF 6
ENDMDL
MODEL 8
REMARK VINA RESULT:      -4.1      8.171      9.505
REMARK  6 active torsions:
REMARK  status: ('A' for Active; 'I' for Inactive)
REMARK    1  A    between atoms: N_6  and  C_1 
REMARK    2  A    between atoms: C_7  and  C_2 
REMARK       I    between atoms: C_8  and  N_6 
REMARK    3  A    between atoms: O_14  and  C_7 
REMARK    4  A    between atoms: C_10  and  C_8 
REMARK    5  A    between atoms: N_9  and  C_10 
REMARK    6  A    between atoms: C_21  and  O_14 
ROOT
ATOM      1  C   UNL d   1     -46.923  12.705  22.741  0.00  0.00     0.119 A 
ATOM      2  C   UNL d   1     -46.110  12.571  22.789  0.00  0.00     0.088 A 
ATOM      3  S   UNL d   1     -47.316  12.046  23.005  0.00  0.00    -0.068 SA
ATOM      4  C   UNL d   1     -46.006  11.817  23.088  0.00  0.00     0.013 A 
ATOM      5  C   UNL d   1     -46.757  11.490  23.223  0.00  0.00     0.031 A 
ATOM      6  C   UNL d   1     -45.338  11.363  23.265  0.00  0.00     0.001 A 
ATOM      7  C   UNL d   1     -46.831  10.712  23.532  0.00  0.00     0.006 A 
ATOM      8  C   UNL d   1     -45.397  10.613  23.564  0.00  0.00     0.000 A 
ATOM      9  C   UNL d   1     -46.148  10.286  23.698  0.00  0.00     0.001 A 
ENDROOT
BRANCH   1  10
ATOM     10  N   UNL d   1     -47.274  13.399  22.467  0.00  0.00    -0.200 NA
ATOM     11  C   UNL d   1     -48.088  13.519  22.526  0.00  0.00     0.297 C 
ATOM     12  O   UNL d   1     -48.537  12.919  22.870  0.00  0.00    -0.264 OA
BRANCH  11  13
ATOM     13  C   UNL d   1     -48.420  14.221  22.246  0.00  0.00     0.144 C 
BRANCH  13  14
ATOM     14  N   UNL d   1     -49.174  14.419  22.524  0.00  0.00    -0.295 N 
ATOM     15  C   UNL d   1     -49.781  14.548  21.972  0.00  0.00     0.107 A 
ATOM     16  C   UNL d   1     -50.535  14.746  22.242  0.00  0.00     0.142 A 
ATOM     17  O   UNL d   1     -50.692  14.817  23.035  0.00  0.00    -0.300 OA
ATOM     18  C   UNL d   1     -50.085  14.688  23.587  0.00  0.00     0.142 A 
ATOM     19  C   UNL d   1     -49.345  14.494  23.325  0.00  0.00     0.107 A 
ENDBRANCH  13  14
ENDBRANCH  11  13
ENDBRANCH   1  10
BRANCH   2  20
ATOM     20  C   UNL d   1     -45.495  13.096  22.577  0.00  0.00     0.302 C 
ATOM     21  O   UNL d   1     -45.484  13.858  22.917  0.00  0.00    -0.259 OA
BRANCH  20  22
ATOM     22  O   UNL d   1     -44.920  12.857  22.046  0.00  0.00    -0.271 OA
BRANCH  22  23
ATOM     23  C   UNL d   1     -44.311  13.363  21.840  0.00  0.00     0.126 C 
ATOM     24  C   UNL d   1     -43.815  13.174  21.212  0.00  0.00     0.029 C 
ENDBRANCH  22  23
ENDBRANCH  20  22
ENDBRANCH   2  20
TORSDOF 6
ENDMDL
