MODEL 1
REMARK VINA RESULT:      -5.2      0.000      0.000
REMARK  4 active torsions:
REMARK  status: ('A' for Active; 'I' for Inactive)
REMARK    1  A    between atoms: C_3  and  C_1 
REMARK    2  A    between atoms: N_2  and  C_9 
REMARK    3  A    between atoms: N_6  and  C_3 
REMARK    4  A    between atoms: C_10  and  C_5 
ROOT
ATOM      1  C   UNL d   1      58.261  -0.019  29.998  0.00  0.00     0.126 A 
ATOM      2  O   UNL d   1      57.550  -0.271  30.348  0.00  0.00    -0.305 OA
ATOM      3  C   UNL d   1      57.523   0.060  31.100  0.00  0.00     0.100 A 
ATOM      4  C   UNL d   1      58.632   0.444  30.533  0.00  0.00     0.029 A 
ATOM      5  C   UNL d   1      58.197   0.500  31.203  0.00  0.00     0.027 A 
ENDROOT
BRANCH   3   6
ATOM      6  C   UNL d   1      56.961   0.014  31.709  0.00  0.00     0.024 A 
ATOM      7  C   UNL d   1      56.762  -0.735  32.031  0.00  0.00     0.025 A 
ATOM      8  C   UNL d   1      56.199  -0.781  32.640  0.00  0.00     0.127 A 
ATOM      9  C   UNL d   1      55.838  -0.091  32.926  0.00  0.00     0.024 A 
ATOM     10  C   UNL d   1      56.040   0.635  32.605  0.00  0.00     0.002 A 
ATOM     11  C   UNL d   1      56.599   0.682  31.999  0.00  0.00     0.002 A 
BRANCH   8  12
ATOM     12  N   UNL d   1      56.005  -1.508  32.952  0.00  0.00    -0.114 N 
ATOM     13  O   UNL d   1      55.407  -1.998  32.643  0.00  0.00    -0.532 OA
ATOM     14  O   UNL d   1      56.365  -1.846  33.600  0.00  0.00    -0.532 OA
ENDBRANCH   8  12
ENDBRANCH   3   6
BRANCH   1  15
ATOM     15  C   UNL d   1      58.565  -0.192  29.239  0.00  0.00     0.143 C 
ATOM     16  S   UNL d   1      58.463   0.320  28.612  0.00  0.00    -0.057 SA
BRANCH  15  17
ATOM     17  N   UNL d   1      58.982  -0.895  29.099  0.00  0.00    -0.290 N 
ATOM     18  C   UNL d   1      59.787  -0.854  29.044  0.00  0.00     0.108 A 
ATOM     19  C   UNL d   1      60.197  -1.561  28.904  0.00  0.00     0.142 A 
ATOM     20  O   UNL d   1      59.811  -2.250  28.826  0.00  0.00    -0.300 OA
ATOM     21  C   UNL d   1      59.023  -2.309  28.877  0.00  0.00     0.142 A 
ATOM     22  C   UNL d   1      58.581  -1.594  29.021  0.00  0.00     0.108 A 
ENDBRANCH  15  17
ENDBRANCH   1  15
TORSDOF 4
ENDMDL
MODEL 2
REMARK VINA RESULT:      -4.6      1.106      1.378
REMARK  4 active torsions:
REMARK  status: ('A' for Active; 'I' for Inactive)
REMARK    1  A    between atoms: C_3  and  C_1 
REMARK    2  A    between atoms: N_2  and  C_9 
REMARK    3  A    between atoms: N_6  and  C_3 
REMARK    4  A    between atoms: C_10  and  C_5 
ROOT
ATOM      1  C   UNL d   1      58.074  -0.077  30.196  0.00  0.00     0.126 A 
ATOM      2  O   UNL d   1      57.531  -0.552  30.611  0.00  0.00    -0.305 OA
ATOM      3  C   UNL d   1      57.424  -0.202  31.348  0.00  0.00     0.100 A 
ATOM      4  C   UNL d   1      58.272   0.527  30.680  0.00  0.00     0.029 A 
ATOM      5  C   UNL d   1      57.886   0.463  31.379  0.00  0.00     0.027 A 
ENDROOT
BRANCH   3   6
ATOM      6  C   UNL d   1      56.955  -0.413  32.000  0.00  0.00     0.024 A 
ATOM      7  C   UNL d   1      56.929   0.093  32.669  0.00  0.00     0.025 A 
ATOM      8  C   UNL d   1      56.461  -0.117  33.322  0.00  0.00     0.127 A 
ATOM      9  C   UNL d   1      56.023  -0.822  33.310  0.00  0.00     0.024 A 
ATOM     10  C   UNL d   1      56.056  -1.308  32.652  0.00  0.00     0.002 A 
ATOM     11  C   UNL d   1      56.521  -1.100  32.003  0.00  0.00     0.002 A 
BRANCH   8  12
ATOM     12  N   UNL d   1      56.435   0.373  33.972  0.00  0.00    -0.114 N 
ATOM     13  O   UNL d   1      55.727   0.622  34.333  0.00  0.00    -0.532 OA
ATOM     14  O   UNL d   1      57.088   0.681  34.349  0.00  0.00    -0.532 OA
ENDBRANCH   8  12
ENDBRANCH   3   6
BRANCH   1  15
ATOM     15  C   UNL d   1      58.377  -0.177  29.424  0.00  0.00     0.143 C 
ATOM     16  S   UNL d   1      58.096   0.260  28.796  0.00  0.00    -0.057 SA
BRANCH  15  17
ATOM     17  N   UNL d   1      58.978  -0.729  29.272  0.00  0.00    -0.290 N 
ATOM     18  C   UNL d   1      58.775  -1.510  29.232  0.00  0.00     0.108 A 
ATOM     19  C   UNL d   1      59.380  -2.055  29.079  0.00  0.00     0.142 A 
ATOM     20  O   UNL d   1      60.131  -1.816  28.977  0.00  0.00    -0.300 OA
ATOM     21  C   UNL d   1      60.347  -1.056  29.014  0.00  0.00     0.142 A 
ATOM     22  C   UNL d   1      59.740  -0.477  29.169  0.00  0.00     0.108 A 
ENDBRANCH  15  17
ENDBRANCH   1  15
TORSDOF 4
ENDMDL
MODEL 3
REMARK VINA RESULT:      -4.3      1.325      4.351
REMARK  4 active torsions:
REMARK  status: ('A' for Active; 'I' for Inactive)
REMARK    1  A    between atoms: C_3  and  C_1 
REMARK    2  A    between atoms: N_2  and  C_9 
REMARK    3  A    between atoms: N_6  and  C_3 
REMARK    4  A    between atoms: C_10  and  C_5 
ROOT
ATOM      1  C   UNL d   1      57.402   0.217  31.639  0.00  0.00     0.126 A 
ATOM      2  O   UNL d   1      57.921  -0.315  31.267  0.00  0.00    -0.305 OA
ATOM      3  C   UNL d   1      57.904  -0.142  30.463  0.00  0.00     0.100 A 
ATOM      4  C   UNL d   1      57.095   0.682  31.067  0.00  0.00     0.029 A 
ATOM      5  C   UNL d   1      57.390   0.475  30.351  0.00  0.00     0.027 A 
ENDROOT
BRANCH   3   6
ATOM      6  C   UNL d   1      58.299  -0.476  29.813  0.00  0.00     0.024 A 
ATOM      7  C   UNL d   1      58.485  -1.294  29.820  0.00  0.00     0.025 A 
ATOM      8  C   UNL d   1      58.879  -1.628  29.170  0.00  0.00     0.127 A 
ATOM      9  C   UNL d   1      59.087  -1.155  28.521  0.00  0.00     0.024 A 
ATOM     10  C   UNL d   1      58.901  -0.357  28.525  0.00  0.00     0.002 A 
ATOM     11  C   UNL d   1      58.509  -0.024  29.171  0.00  0.00     0.002 A 
BRANCH   8  12
ATOM     12  N   UNL d   1      59.060  -2.422  29.175  0.00  0.00    -0.114 N 
ATOM     13  O   UNL d   1      58.493  -3.025  29.079  0.00  0.00    -0.532 OA
ATOM     14  O   UNL d   1      59.809  -2.728  29.274  0.00  0.00    -0.532 OA
ENDBRANCH   8  12
ENDBRANCH   3   6
BRANCH   1  15
ATOM     15  C   UNL d   1      57.210   0.285  32.449  0.00  0.00     0.143 C 
ATOM     16  S   UNL d   1      57.697   0.681  32.971  0.00  0.00    -0.057 SA
BRANCH  15  17
ATOM     17  N   UNL d   1      56.513  -0.050  32.751  0.00  0.00    -0.290 N 
ATOM     18  C   UNL d   1      56.497  -0.849  32.868  0.00  0.00     0.108 A 
ATOM     19  C   UNL d   1      55.798  -1.177  33.170  0.00  0.00     0.142 A 
ATOM     20  O   UNL d   1      55.169  -0.720  33.336  0.00  0.00    -0.300 OA
ATOM     21  C   UNL d   1      55.169   0.064  33.227  0.00  0.00     0.142 A 
ATOM     22  C   UNL d   1      55.878   0.423  32.918  0.00  0.00     0.108 A 
ENDBRANCH  15  17
ENDBRANCH   1  15
TORSDOF 4
ENDMDL
