MODEL 1
REMARK VINA RESULT:      -7.5      0.000      0.000
REMARK  5 active torsions:
REMARK  status: ('A' for Active; 'I' for Inactive)
REMARK    1  A    between atoms: C_2  and  C_1 
REMARK    2  A    between atoms: O_16  and  C_12 
REMARK    3  A    between atoms: C_21  and  C_14 
REMARK    4  A    between atoms: C_17  and  O_16 
REMARK    5  A    between atoms: C_24  and  C_21 
ROOT
ATOM      1  C   UNL d   1     -47.106  13.558  22.699  0.00  0.00     0.086 A 
ATOM      2  C   UNL d   1     -47.764  13.081  22.810  0.00  0.00     0.201 A 
ATOM      3  C   UNL d   1     -48.516  13.442  22.944  0.00  0.00     0.062 A 
ATOM      4  C   UNL d   1     -47.170  14.375  22.716  0.00  0.00     0.105 A 
ATOM      5  C   UNL d   1     -48.581  14.283  22.962  0.00  0.00     0.105 A 
ATOM      6  O   UNL d   1     -47.893  14.738  22.845  0.00  0.00    -0.307 OA
ATOM      7  C   UNL d   1     -49.172  12.965  23.055  0.00  0.00     0.007 A 
ATOM      8  C   UNL d   1     -49.302  14.623  23.090  0.00  0.00     0.050 A 
ATOM      9  C   UNL d   1     -49.959  14.147  23.201  0.00  0.00     0.105 A 
ATOM     10  C   UNL d   1     -49.895  13.330  23.184  0.00  0.00     0.023 A 
ATOM     11  O   UNL d   1     -47.677  12.271  22.789  0.00  0.00    -0.286 OA
ATOM     12  C   UNL d   1     -46.490  14.853  22.602  0.00  0.00     0.027 C 
ENDROOT
BRANCH   1  13
ATOM     13  C   UNL d   1     -46.363  13.225  22.567  0.00  0.00     0.116 A 
ATOM     14  N   UNL d   1     -45.821  13.286  21.935  0.00  0.00    -0.238 NA
ATOM     15  C   UNL d   1     -45.166  12.830  22.106  0.00  0.00     0.088 A 
ATOM     16  C   UNL d   1     -44.486  12.726  21.633  0.00  0.00     0.021 C 
ATOM     17  C   UNL d   1     -45.275  12.488  22.816  0.00  0.00     0.056 A 
ATOM     18  S   UNL d   1     -46.023  12.726  23.120  0.00  0.00    -0.066 SA
ENDBRANCH   1  13
BRANCH  10  19
ATOM     19  C   UNL d   1     -50.607  12.878  23.304  0.00  0.00     0.002 C 
BRANCH  19  20
ATOM     20  C   UNL d   1     -50.596  12.050  23.186  0.00  0.00     0.000 C 
ATOM     21  C   UNL d   1     -51.008  11.549  23.696  0.00  0.00     0.000 C 
ENDBRANCH  19  20
ENDBRANCH  10  19
BRANCH   9  22
ATOM     22  O   UNL d   1     -50.705  14.508  23.334  0.00  0.00    -0.273 OA
BRANCH  22  23
ATOM     23  C   UNL d   1     -50.805  15.318  23.119  0.00  0.00     0.300 C 
ATOM     24  O   UNL d   1     -51.049  15.477  22.369  0.00  0.00    -0.259 OA
ATOM     25  C   UNL d   1     -50.644  15.922  23.698  0.00  0.00     0.074 C 
ENDBRANCH  22  23
ENDBRANCH   9  22
TORSDOF 5
ENDMDL
MODEL 2
REMARK VINA RESULT:      -7.1      8.719      9.912
REMARK  5 active torsions:
REMARK  status: ('A' for Active; 'I' for Inactive)
REMARK    1  A    between atoms: C_2  and  C_1 
REMARK    2  A    between atoms: O_16  and  C_12 
REMARK    3  A    between atoms: C_21  and  C_14 
REMARK    4  A    between atoms: C_17  and  O_16 
REMARK    5  A    between atoms: C_24  and  C_21 
ROOT
ATOM      1  C   UNL d   1     -39.529  14.996  20.800  0.00  0.00     0.086 A 
ATOM      2  C   UNL d   1     -39.163  14.543  20.223  0.00  0.00     0.201 A 
ATOM      3  C   UNL d   1     -39.473  14.552  19.437  0.00  0.00     0.062 A 
ATOM      4  C   UNL d   1     -40.186  15.453  20.625  0.00  0.00     0.105 A 
ATOM      5  C   UNL d   1     -40.149  15.023  19.256  0.00  0.00     0.105 A 
ATOM      6  O   UNL d   1     -40.497  15.471  19.866  0.00  0.00    -0.307 OA
ATOM      7  C   UNL d   1     -39.107  14.100  18.860  0.00  0.00     0.007 A 
ATOM      8  C   UNL d   1     -40.441  15.028  18.504  0.00  0.00     0.050 A 
ATOM      9  C   UNL d   1     -40.076  14.576  17.926  0.00  0.00     0.105 A 
ATOM     10  C   UNL d   1     -39.418  14.118  18.102  0.00  0.00     0.023 A 
ATOM     11  O   UNL d   1     -38.511  14.097  20.420  0.00  0.00    -0.286 OA
ATOM     12  C   UNL d   1     -40.552  15.912  21.224  0.00  0.00     0.027 C 
ENDROOT
BRANCH   1  13
ATOM     13  C   UNL d   1     -39.243  15.002  21.574  0.00  0.00     0.116 A 
ATOM     14  N   UNL d   1     -39.296  14.452  22.200  0.00  0.00    -0.238 NA
ATOM     15  C   UNL d   1     -38.903  14.755  22.849  0.00  0.00     0.088 A 
ATOM     16  C   UNL d   1     -38.813  14.396  23.597  0.00  0.00     0.021 C 
ATOM     17  C   UNL d   1     -38.608  15.468  22.655  0.00  0.00     0.056 A 
ATOM     18  S   UNL d   1     -38.812  15.639  21.856  0.00  0.00    -0.066 SA
ENDBRANCH   1  13
BRANCH  10  19
ATOM     19  C   UNL d   1     -39.075  13.666  17.467  0.00  0.00     0.002 C 
BRANCH  19  20
ATOM     20  C   UNL d   1     -38.663  12.958  17.640  0.00  0.00     0.000 C 
ATOM     21  C   UNL d   1     -38.242  12.564  17.050  0.00  0.00     0.000 C 
ENDBRANCH  19  20
ENDBRANCH  10  19
BRANCH   9  22
ATOM     22  O   UNL d   1     -40.385  14.586  17.146  0.00  0.00    -0.273 OA
BRANCH  22  23
ATOM     23  C   UNL d   1     -40.878  15.232  16.916  0.00  0.00     0.300 C 
ATOM     24  O   UNL d   1     -41.670  15.158  17.038  0.00  0.00    -0.259 OA
ATOM     25  C   UNL d   1     -40.519  15.922  16.570  0.00  0.00     0.074 C 
ENDBRANCH  22  23
ENDBRANCH   9  22
TORSDOF 5
ENDMDL
MODEL 3
REMARK VINA RESULT:      -6.7      0.983      1.184
REMARK  5 active torsions:
REMARK  status: ('A' for Active; 'I' for Inactive)
REMARK    1  A    between atoms: C_2  and  C_1 
REMARK    2  A    between atoms: O_16  and  C_12 
REMARK    3  A    between atoms: C_21  and  C_14 
REMARK    4  A    between atoms: C_17  and  O_16 
REMARK    5  A    between atoms: C_24  and  C_21 
ROOT
ATOM      1  C   UNL d   1     -46.455  12.823  22.946  0.00  0.00     0.086 A 
ATOM      2  C   UNL d   1     -47.184  12.518  23.166  0.00  0.00     0.201 A 
ATOM      3  C   UNL d   1     -47.857  13.028  23.171  0.00  0.00     0.062 A 
ATOM      4  C   UNL d   1     -46.374  13.611  22.733  0.00  0.00     0.105 A 
ATOM      5  C   UNL d   1     -47.774  13.838  22.952  0.00  0.00     0.105 A 
ATOM      6  O   UNL d   1     -47.019  14.116  22.734  0.00  0.00    -0.307 OA
ATOM      7  C   UNL d   1     -48.585  12.723  23.391  0.00  0.00     0.007 A 
ATOM      8  C   UNL d   1     -48.420  14.321  22.959  0.00  0.00     0.050 A 
ATOM      9  C   UNL d   1     -49.149  14.017  23.179  0.00  0.00     0.105 A 
ATOM     10  C   UNL d   1     -49.230  13.229  23.392  0.00  0.00     0.023 A 
ATOM     11  O   UNL d   1     -47.241  11.733  23.373  0.00  0.00    -0.286 OA
ATOM     12  C   UNL d   1     -45.623  13.912  22.510  0.00  0.00     0.027 C 
ENDROOT
BRANCH   1  13
ATOM     13  C   UNL d   1     -45.784  12.343  22.933  0.00  0.00     0.116 A 
ATOM     14  N   UNL d   1     -45.551  11.687  23.393  0.00  0.00    -0.238 NA
ATOM     15  C   UNL d   1     -44.823  11.428  23.130  0.00  0.00     0.088 A 
ATOM     16  C   UNL d   1     -44.377  10.787  23.428  0.00  0.00     0.021 C 
ATOM     17  C   UNL d   1     -44.592  11.893  22.528  0.00  0.00     0.056 A 
ATOM     18  S   UNL d   1     -45.185  12.474  22.390  0.00  0.00    -0.066 SA
ENDBRANCH   1  13
BRANCH  10  19
ATOM     19  C   UNL d   1     -50.008  12.961  23.612  0.00  0.00     0.002 C 
BRANCH  19  20
ATOM     20  C   UNL d   1     -50.262  12.198  23.382  0.00  0.00     0.000 C 
ATOM     21  C   UNL d   1     -51.061  11.994  23.421  0.00  0.00     0.000 C 
ENDBRANCH  19  20
ENDBRANCH  10  19
BRANCH   9  22
ATOM     22  O   UNL d   1     -49.817  14.525  23.184  0.00  0.00    -0.273 OA
BRANCH  22  23
ATOM     23  C   UNL d   1     -49.699  15.348  23.036  0.00  0.00     0.300 C 
ATOM     24  O   UNL d   1     -49.638  15.584  22.269  0.00  0.00    -0.259 OA
ATOM     25  C   UNL d   1     -49.650  15.883  23.696  0.00  0.00     0.074 C 
ENDBRANCH  22  23
ENDBRANCH   9  22
TORSDOF 5
ENDMDL
MODEL 4
REMARK VINA RESULT:      -6.6      1.806      4.822
REMARK  5 active torsions:
REMARK  status: ('A' for Active; 'I' for Inactive)
REMARK    1  A    between atoms: C_2  and  C_1 
REMARK    2  A    between atoms: O_16  and  C_12 
REMARK    3  A    between atoms: C_21  and  C_14 
REMARK    4  A    between atoms: C_17  and  O_16 
REMARK    5  A    between atoms: C_24  and  C_21 
ROOT
ATOM      1  C   UNL d   1     -48.758  12.906  22.798  0.00  0.00     0.086 A 
ATOM      2  C   UNL d   1     -48.017  13.147  22.544  0.00  0.00     0.201 A 
ATOM      3  C   UNL d   1     -47.333  12.740  22.828  0.00  0.00     0.062 A 
ATOM      4  C   UNL d   1     -48.842  12.279  23.321  0.00  0.00     0.105 A 
ATOM      5  C   UNL d   1     -47.419  12.096  23.365  0.00  0.00     0.105 A 
ATOM      6  O   UNL d   1     -48.187  11.876  23.604  0.00  0.00    -0.307 OA
ATOM      7  C   UNL d   1     -46.593  12.982  22.574  0.00  0.00     0.007 A 
ATOM      8  C   UNL d   1     -46.763  11.711  23.634  0.00  0.00     0.050 A 
ATOM      9  C   UNL d   1     -46.022  11.952  23.380  0.00  0.00     0.105 A 
ATOM     10  C   UNL d   1     -45.938  12.578  22.858  0.00  0.00     0.023 A 
ATOM     11  O   UNL d   1     -47.958  13.772  22.025  0.00  0.00    -0.286 OA
ATOM     12  C   UNL d   1     -49.606  12.041  23.573  0.00  0.00     0.027 C 
ENDROOT
BRANCH   1  13
ATOM     13  C   UNL d   1     -49.439  13.289  22.533  0.00  0.00     0.116 A 
ATOM     14  N   UNL d   1     -49.851  13.271  21.808  0.00  0.00    -0.238 NA
ATOM     15  C   UNL d   1     -50.497  13.768  21.860  0.00  0.00     0.088 A 
ATOM     16  C   UNL d   1     -51.064  13.923  21.268  0.00  0.00     0.021 C 
ATOM     17  C   UNL d   1     -50.505  14.095  22.585  0.00  0.00     0.056 A 
ATOM     18  S   UNL d   1     -49.847  13.804  23.023  0.00  0.00    -0.066 SA
ENDBRANCH   1  13
BRANCH  10  19
ATOM     19  C   UNL d   1     -45.147  12.791  22.624  0.00  0.00     0.002 C 
BRANCH  19  20
ATOM     20  C   UNL d   1     -45.007  13.071  21.848  0.00  0.00     0.000 C 
ATOM     21  C   UNL d   1     -44.245  13.059  21.531  0.00  0.00     0.000 C 
ENDBRANCH  19  20
ENDBRANCH  10  19
BRANCH   9  22
ATOM     22  O   UNL d   1     -45.344  11.546  23.664  0.00  0.00    -0.273 OA
BRANCH  22  23
ATOM     23  C   UNL d   1     -45.346  10.702  23.657  0.00  0.00     0.300 C 
ATOM     24  O   UNL d   1     -46.060  10.331  23.688  0.00  0.00    -0.259 OA
ATOM     25  C   UNL d   1     -44.603  10.288  23.619  0.00  0.00     0.074 C 
ENDBRANCH  22  23
ENDBRANCH   9  22
TORSDOF 5
ENDMDL
MODEL 5
REMARK VINA RESULT:      -6.4      9.170     10.496
REMARK  5 active torsions:
REMARK  status: ('A' for Active; 'I' for Inactive)
REMARK    1  A    between atoms: C_2  and  C_1 
REMARK    2  A    between atoms: O_16  and  C_12 
REMARK    3  A    between atoms: C_21  and  C_14 
REMARK    4  A    between atoms: C_17  and  O_16 
REMARK    5  A    between atoms: C_24  and  C_21 
ROOT
ATOM      1  C   UNL d   1     -39.102  14.697  20.259  0.00  0.00     0.086 A 
ATOM      2  C   UNL d   1     -39.606  15.030  19.705  0.00  0.00     0.201 A 
ATOM      3  C   UNL d   1     -39.525  14.811  18.892  0.00  0.00     0.062 A 
ATOM      4  C   UNL d   1     -38.525  14.159  20.035  0.00  0.00     0.105 A 
ATOM      5  C   UNL d   1     -38.932  14.258  18.662  0.00  0.00     0.105 A 
ATOM      6  O   UNL d   1     -38.436  13.939  19.251  0.00  0.00    -0.307 OA
ATOM      7  C   UNL d   1     -40.029  15.144  18.339  0.00  0.00     0.007 A 
ATOM      8  C   UNL d   1     -38.859  14.053  17.885  0.00  0.00     0.050 A 
ATOM      9  C   UNL d   1     -39.362  14.386  17.331  0.00  0.00     0.105 A 
ATOM     10  C   UNL d   1     -39.939  14.924  17.554  0.00  0.00     0.023 A 
ATOM     11  O   UNL d   1     -40.172  15.562  19.949  0.00  0.00    -0.286 OA
ATOM     12  C   UNL d   1     -38.015  13.824  20.612  0.00  0.00     0.027 C 
ENDROOT
BRANCH   1  13
ATOM     13  C   UNL d   1     -39.164  14.896  21.057  0.00  0.00     0.116 A 
ATOM     14  N   UNL d   1     -38.820  15.501  21.516  0.00  0.00    -0.238 NA
ATOM     15  C   UNL d   1     -39.084  15.429  22.286  0.00  0.00     0.088 A 
ATOM     16  C   UNL d   1     -38.884  15.914  22.936  0.00  0.00     0.021 C 
ATOM     17  C   UNL d   1     -39.577  14.806  22.326  0.00  0.00     0.056 A 
ATOM     18  S   UNL d   1     -39.639  14.459  21.562  0.00  0.00    -0.066 SA
ENDBRANCH   1  13
BRANCH  10  19
ATOM     19  C   UNL d   1     -40.438  15.241  16.941  0.00  0.00     0.002 C 
BRANCH  19  20
ATOM     20  C   UNL d   1     -41.103  15.705  17.149  0.00  0.00     0.000 C 
ATOM     21  C   UNL d   1     -41.656  15.922  16.576  0.00  0.00     0.000 C 
ENDBRANCH  19  20
ENDBRANCH  10  19
BRANCH   9  22
ATOM     22  O   UNL d   1     -39.280  14.167  16.525  0.00  0.00    -0.273 OA
BRANCH  22  23
ATOM     23  C   UNL d   1     -38.569  13.781  16.282  0.00  0.00     0.300 C 
ATOM     24  O   UNL d   1     -38.527  12.984  16.379  0.00  0.00    -0.259 OA
ATOM     25  C   UNL d   1     -37.940  14.248  15.949  0.00  0.00     0.074 C 
ENDBRANCH  22  23
ENDBRANCH   9  22
TORSDOF 5
ENDMDL
MODEL 6
REMARK VINA RESULT:      -6.3      1.959      4.667
REMARK  5 active torsions:
REMARK  status: ('A' for Active; 'I' for Inactive)
REMARK    1  A    between atoms: C_2  and  C_1 
REMARK    2  A    between atoms: O_16  and  C_12 
REMARK    3  A    between atoms: C_21  and  C_14 
REMARK    4  A    between atoms: C_17  and  O_16 
REMARK    5  A    between atoms: C_24  and  C_21 
ROOT
ATOM      1  C   UNL d   1     -48.180  12.814  22.699  0.00  0.00     0.086 A 
ATOM      2  C   UNL d   1     -47.673  12.268  23.041  0.00  0.00     0.201 A 
ATOM      3  C   UNL d   1     -46.847  12.310  22.866  0.00  0.00     0.062 A 
ATOM      4  C   UNL d   1     -47.897  13.395  22.194  0.00  0.00     0.105 A 
ATOM      5  C   UNL d   1     -46.556  12.907  22.347  0.00  0.00     0.105 A 
ATOM      6  O   UNL d   1     -47.099  13.446  22.016  0.00  0.00    -0.307 OA
ATOM      7  C   UNL d   1     -46.341  11.764  23.208  0.00  0.00     0.007 A 
ATOM      8  C   UNL d   1     -45.767  12.942  22.184  0.00  0.00     0.050 A 
ATOM      9  C   UNL d   1     -45.259  12.396  22.525  0.00  0.00     0.105 A 
ATOM     10  C   UNL d   1     -45.542  11.816  23.030  0.00  0.00     0.023 A 
ATOM     11  O   UNL d   1     -47.977  11.700  23.539  0.00  0.00    -0.286 OA
ATOM     12  C   UNL d   1     -48.426  13.948  21.850  0.00  0.00     0.027 C 
ENDROOT
BRANCH   1  13
ATOM     13  C   UNL d   1     -48.990  12.792  22.855  0.00  0.00     0.116 A 
ATOM     14  N   UNL d   1     -49.478  13.233  23.368  0.00  0.00    -0.238 NA
ATOM     15  C   UNL d   1     -50.247  12.967  23.292  0.00  0.00     0.088 A 
ATOM     16  C   UNL d   1     -50.921  13.248  23.698  0.00  0.00     0.021 C 
ATOM     17  C   UNL d   1     -50.259  12.381  22.755  0.00  0.00     0.056 A 
ATOM     18  S   UNL d   1     -49.477  12.257  22.470  0.00  0.00    -0.066 SA
ENDBRANCH   1  13
BRANCH  10  19
ATOM     19  C   UNL d   1     -44.976  11.272  23.359  0.00  0.00     0.002 C 
BRANCH  19  20
ATOM     20  C   UNL d   1     -45.212  10.491  23.546  0.00  0.00     0.000 C 
ATOM     21  C   UNL d   1     -44.648   9.909  23.697  0.00  0.00     0.000 C 
ENDBRANCH  19  20
ENDBRANCH  10  19
BRANCH   9  22
ATOM     22  O   UNL d   1     -44.440  12.439  22.350  0.00  0.00    -0.273 OA
BRANCH  22  23
ATOM     23  C   UNL d   1     -44.158  13.090  21.892  0.00  0.00     0.300 C 
ATOM     24  O   UNL d   1     -44.456  13.819  22.058  0.00  0.00    -0.259 OA
ATOM     25  C   UNL d   1     -43.580  12.947  21.283  0.00  0.00     0.074 C 
ENDBRANCH  22  23
ENDBRANCH   9  22
TORSDOF 5
ENDMDL
MODEL 7
REMARK VINA RESULT:      -6.0      1.865      5.048
REMARK  5 active torsions:
REMARK  status: ('A' for Active; 'I' for Inactive)
REMARK    1  A    between atoms: C_2  and  C_1 
REMARK    2  A    between atoms: O_16  and  C_12 
REMARK    3  A    between atoms: C_21  and  C_14 
REMARK    4  A    between atoms: C_17  and  O_16 
REMARK    5  A    between atoms: C_24  and  C_21 
ROOT
ATOM      1  C   UNL d   1     -47.854  12.963  22.785  0.00  0.00     0.086 A 
ATOM      2  C   UNL d   1     -47.121  13.133  22.459  0.00  0.00     0.201 A 
ATOM      3  C   UNL d   1     -46.456  12.660  22.676  0.00  0.00     0.062 A 
ATOM      4  C   UNL d   1     -47.947  12.345  23.315  0.00  0.00     0.105 A 
ATOM      5  C   UNL d   1     -46.551  12.024  23.221  0.00  0.00     0.105 A 
ATOM      6  O   UNL d   1     -47.310  11.879  23.534  0.00  0.00    -0.307 OA
ATOM      7  C   UNL d   1     -45.724  12.830  22.349  0.00  0.00     0.007 A 
ATOM      8  C   UNL d   1     -45.912  11.576  23.425  0.00  0.00     0.050 A 
ATOM      9  C   UNL d   1     -45.180  11.745  23.099  0.00  0.00     0.105 A 
ATOM     10  C   UNL d   1     -45.087  12.363  22.569  0.00  0.00     0.023 A 
ATOM     11  O   UNL d   1     -47.053  13.752  21.934  0.00  0.00    -0.286 OA
ATOM     12  C   UNL d   1     -48.702  12.181  23.643  0.00  0.00     0.027 C 
ENDROOT
BRANCH   1  13
ATOM     13  C   UNL d   1     -48.517  13.413  22.587  0.00  0.00     0.116 A 
ATOM     14  N   UNL d   1     -48.750  14.191  22.779  0.00  0.00    -0.238 NA
ATOM     15  C   UNL d   1     -49.469  14.344  22.423  0.00  0.00     0.088 A 
ATOM     16  C   UNL d   1     -49.911  15.052  22.463  0.00  0.00     0.021 C 
ATOM     17  C   UNL d   1     -49.694  13.697  22.019  0.00  0.00     0.056 A 
ATOM     18  S   UNL d   1     -49.107  13.101  22.111  0.00  0.00    -0.066 SA
ENDBRANCH   1  13
BRANCH  10  19
ATOM     19  C   UNL d   1     -44.306  12.499  22.258  0.00  0.00     0.002 C 
BRANCH  19  20
ATOM     20  C   UNL d   1     -44.216  12.887  21.521  0.00  0.00     0.000 C 
ATOM     21  C   UNL d   1     -43.473  12.947  21.168  0.00  0.00     0.000 C 
ENDBRANCH  19  20
ENDBRANCH  10  19
BRANCH   9  22
ATOM     22  O   UNL d   1     -44.520  11.274  23.316  0.00  0.00    -0.273 OA
BRANCH  22  23
ATOM     23  C   UNL d   1     -44.657  10.481  23.571  0.00  0.00     0.300 C 
ATOM     24  O   UNL d   1     -45.420  10.254  23.691  0.00  0.00    -0.259 OA
ATOM     25  C   UNL d   1     -43.990   9.964  23.690  0.00  0.00     0.074 C 
ENDBRANCH  22  23
ENDBRANCH   9  22
TORSDOF 5
ENDMDL
MODEL 8
REMARK VINA RESULT:      -5.3      1.519      2.663
REMARK  5 active torsions:
REMARK  status: ('A' for Active; 'I' for Inactive)
REMARK    1  A    between atoms: C_2  and  C_1 
REMARK    2  A    between atoms: O_16  and  C_12 
REMARK    3  A    between atoms: C_21  and  C_14 
REMARK    4  A    between atoms: C_17  and  O_16 
REMARK    5  A    between atoms: C_24  and  C_21 
ROOT
ATOM      1  C   UNL d   1     -46.529  11.618  23.251  0.00  0.00     0.086 A 
ATOM      2  C   UNL d   1     -46.751  12.375  23.029  0.00  0.00     0.201 A 
ATOM      3  C   UNL d   1     -47.571  12.578  23.028  0.00  0.00     0.062 A 
ATOM      4  C   UNL d   1     -47.089  11.061  23.470  0.00  0.00     0.105 A 
ATOM      5  C   UNL d   1     -48.147  12.005  23.253  0.00  0.00     0.105 A 
ATOM      6  O   UNL d   1     -47.888  11.245  23.473  0.00  0.00    -0.307 OA
ATOM      7  C   UNL d   1     -47.793  13.335  22.805  0.00  0.00     0.007 A 
ATOM      8  C   UNL d   1     -48.929  12.205  23.250  0.00  0.00     0.050 A 
ATOM      9  C   UNL d   1     -49.152  12.961  23.028  0.00  0.00     0.105 A 
ATOM     10  C   UNL d   1     -48.592  13.519  22.809  0.00  0.00     0.023 A 
ATOM     11  O   UNL d   1     -46.177  12.912  22.815  0.00  0.00    -0.286 OA
ATOM     12  C   UNL d   1     -46.849  10.289  23.696  0.00  0.00     0.027 C 
ENDROOT
BRANCH   1  13
ATOM     13  C   UNL d   1     -45.734  11.398  23.260  0.00  0.00     0.116 A 
ATOM     14  N   UNL d   1     -45.057  11.714  22.887  0.00  0.00    -0.238 NA
ATOM     15  C   UNL d   1     -44.408  11.265  23.098  0.00  0.00     0.088 A 
ATOM     16  C   UNL d   1     -43.617  11.376  22.857  0.00  0.00     0.021 C 
ATOM     17  C   UNL d   1     -44.651  10.684  23.585  0.00  0.00     0.056 A 
ATOM     18  S   UNL d   1     -45.482  10.753  23.698  0.00  0.00    -0.066 SA
ENDBRANCH   1  13
BRANCH  10  19
ATOM     19  C   UNL d   1     -48.873  14.291  22.586  0.00  0.00     0.002 C 
BRANCH  19  20
ATOM     20  C   UNL d   1     -48.459  14.972  22.842  0.00  0.00     0.000 C 
ATOM     21  C   UNL d   1     -48.493  15.671  22.405  0.00  0.00     0.000 C 
ENDBRANCH  19  20
ENDBRANCH  10  19
BRANCH   9  22
ATOM     22  O   UNL d   1     -49.967  13.161  23.027  0.00  0.00    -0.273 OA
BRANCH  22  23
ATOM     23  C   UNL d   1     -50.536  12.538  22.980  0.00  0.00     0.300 C 
ATOM     24  O   UNL d   1     -50.670  12.209  22.258  0.00  0.00    -0.259 OA
ATOM     25  C   UNL d   1     -50.935  12.291  23.691  0.00  0.00     0.074 C 
ENDBRANCH  22  23
ENDBRANCH   9  22
TORSDOF 5
ENDMDL
