MODEL 1
REMARK VINA RESULT:      65.9      0.000      0.000
REMARK  5 active torsions:
REMARK  status: ('A' for Active; 'I' for Inactive)
REMARK    1  A    between atoms: C_2  and  C_1 
REMARK    2  A    between atoms: C_5  and  C_2 
REMARK    3  A    between atoms: C_9  and  C_5 
REMARK    4  A    between atoms: O_18  and  C_12 
REMARK    5  A    between atoms: O_19  and  C_14 
ROOT
ATOM      1  C   UNL d   1     -54.974-100.990 -42.535  0.00  0.00     0.141 C 
ATOM      2  C   UNL d   1     -54.996-101.477 -43.204  0.00  0.00     0.107 C 
ATOM      3  N   UNL d   1     -55.017-101.980 -43.881  0.00  0.00    -0.191 NA
ENDROOT
BRANCH   1   4
ATOM      4  C   UNL d   1     -54.915-101.316 -41.789  0.00  0.00     0.161 A 
ATOM      5  N   UNL d   1     -54.877-102.143 -41.629  0.00  0.00    -0.287 N 
ATOM      6  C   UNL d   1     -54.821-102.230 -40.798  0.00  0.00     0.083 A 
ATOM      7  C   UNL d   1     -54.892-102.741 -42.186  0.00  0.00     0.101 C 
ATOM      8  C   UNL d   1     -54.767-102.878 -40.308  0.00  0.00     0.019 A 
ATOM      9  C   UNL d   1     -54.825-101.463 -40.462  0.00  0.00     0.099 A 
ATOM     10  C   UNL d   1     -54.718-102.800 -39.495  0.00  0.00     0.002 A 
ATOM     11  C   UNL d   1     -54.723-102.033 -39.159  0.00  0.00     0.002 A 
ATOM     12  C   UNL d   1     -54.777-101.364 -39.645  0.00  0.00     0.021 A 
ATOM     13  N   UNL d   1     -54.884-100.916 -41.092  0.00  0.00    -0.226 NA
ENDBRANCH   1   4
BRANCH   1  14
ATOM     14  C   UNL d   1     -55.013-100.171 -42.632  0.00  0.00     0.208 C 
ATOM     15  O   UNL d   1     -54.711 -99.687 -42.041  0.00  0.00    -0.286 OA
BRANCH  14  16
ATOM     16  C   UNL d   1     -55.347 -99.848 -43.307  0.00  0.00     0.042 A 
ATOM     17  C   UNL d   1     -54.896 -99.736 -43.985  0.00  0.00     0.029 A 
ATOM     18  C   UNL d   1     -55.228 -99.414 -44.656  0.00  0.00     0.116 A 
ATOM     19  C   UNL d   1     -56.021 -99.196 -44.668  0.00  0.00     0.116 A 
ATOM     20  C   UNL d   1     -56.475 -99.308 -43.988  0.00  0.00     0.026 A 
ATOM     21  C   UNL d   1     -56.143 -99.629 -43.317  0.00  0.00     0.005 A 
BRANCH  18  22
ATOM     22  O   UNL d   1     -54.760 -99.312 -45.316  0.00  0.00    -0.326 OA
ATOM     23  C   UNL d   1     -54.716 -99.905 -45.909  0.00  0.00     0.181 C 
ENDBRANCH  18  22
BRANCH  19  24
ATOM     24  O   UNL d   1     -56.351 -98.876 -45.336  0.00  0.00    -0.326 OA
ATOM     25  C   UNL d   1     -57.178 -98.799 -45.399  0.00  0.00     0.181 C 
ENDBRANCH  19  24
ENDBRANCH  14  16
ENDBRANCH   1  14
TORSDOF 5
ENDMDL
MODEL 2
REMARK VINA RESULT:      68.1      1.966      5.063
REMARK  5 active torsions:
REMARK  status: ('A' for Active; 'I' for Inactive)
REMARK    1  A    between atoms: C_2  and  C_1 
REMARK    2  A    between atoms: C_5  and  C_2 
REMARK    3  A    between atoms: C_9  and  C_5 
REMARK    4  A    between atoms: O_18  and  C_12 
REMARK    5  A    between atoms: O_19  and  C_14 
ROOT
ATOM      1  C   UNL d   1     -54.809-100.652 -41.044  0.00  0.00     0.141 C 
ATOM      2  C   UNL d   1     -54.841 -99.926 -40.647  0.00  0.00     0.107 C 
ATOM      3  N   UNL d   1     -54.874 -99.183 -40.249  0.00  0.00    -0.191 NA
ENDROOT
BRANCH   1   4
ATOM      4  C   UNL d   1     -54.793-100.674 -41.860  0.00  0.00     0.161 A 
ATOM      5  N   UNL d   1     -54.814-101.380 -42.321  0.00  0.00    -0.287 N 
ATOM      6  C   UNL d   1     -54.787-101.149 -43.125  0.00  0.00     0.083 A 
ATOM      7  C   UNL d   1     -54.853-102.143 -42.029  0.00  0.00     0.101 C 
ATOM      8  C   UNL d   1     -54.790-101.565 -43.825  0.00  0.00     0.019 A 
ATOM      9  C   UNL d   1     -54.750-100.313 -43.148  0.00  0.00     0.099 A 
ATOM     10  C   UNL d   1     -54.759-101.189 -44.550  0.00  0.00     0.002 A 
ATOM     11  C   UNL d   1     -54.722-100.353 -44.573  0.00  0.00     0.002 A 
ATOM     12  C   UNL d   1     -54.718 -99.914 -43.869  0.00  0.00     0.021 A 
ATOM     13  N   UNL d   1     -54.755-100.043 -42.357  0.00  0.00    -0.226 NA
ENDBRANCH   1   4
BRANCH   1  14
ATOM     14  C   UNL d   1     -54.793-101.351 -40.606  0.00  0.00     0.208 C 
ATOM     15  O   UNL d   1     -54.784-102.069 -41.004  0.00  0.00    -0.286 OA
BRANCH  14  16
ATOM     16  C   UNL d   1     -54.787-101.327 -39.787  0.00  0.00     0.042 A 
ATOM     17  C   UNL d   1     -54.786-102.022 -39.348  0.00  0.00     0.029 A 
ATOM     18  C   UNL d   1     -54.779-101.999 -38.533  0.00  0.00     0.116 A 
ATOM     19  C   UNL d   1     -54.773-101.280 -38.134  0.00  0.00     0.116 A 
ATOM     20  C   UNL d   1     -54.774-100.582 -38.573  0.00  0.00     0.026 A 
ATOM     21  C   UNL d   1     -54.781-100.605 -39.388  0.00  0.00     0.005 A 
BRANCH  18  22
ATOM     22  O   UNL d   1     -54.778-102.703 -38.120  0.00  0.00    -0.326 OA
ATOM     23  C   UNL d   1     -55.348-102.852 -37.523  0.00  0.00     0.181 C 
ENDBRANCH  18  22
BRANCH  19  24
ATOM     24  O   UNL d   1     -54.767-101.257 -37.324  0.00  0.00    -0.326 OA
ATOM     25  C   UNL d   1     -54.722-100.527 -36.926  0.00  0.00     0.181 C 
ENDBRANCH  19  24
ENDBRANCH  14  16
ENDBRANCH   1  14
TORSDOF 5
ENDMDL
