MODEL 1
REMARK VINA RESULT:      -2.9      0.000      0.000
REMARK  6 active torsions:
REMARK  status: ('A' for Active; 'I' for Inactive)
REMARK    1  A    between atoms: C_6  and  N_1 
REMARK    2  A    between atoms: C_7  and  C_4 
REMARK    3  A    between atoms: C_8  and  C_6 
REMARK    4  A    between atoms: C_11  and  C_6 
REMARK    5  A    between atoms: C_13  and  C_7 
REMARK    6  A    between atoms: C_16  and  C_11 
ROOT
ATOM      1  N   UNL d   1     -41.493-122.360 -51.947  0.00  0.00    -0.254 N 
ATOM      2  C   UNL d   1     -41.241-121.861 -51.434  0.00  0.00     0.153 A 
ATOM      3  C   UNL d   1     -41.553-123.094 -51.592  0.00  0.00     0.272 A 
ATOM      4  C   UNL d   1     -41.319-123.025 -50.812  0.00  0.00     0.088 A 
ATOM      5  S   UNL d   1     -41.124-122.248 -50.718  0.00  0.00    -0.054 SA
ATOM      6  S   UNL d   1     -41.125-121.047 -51.654  0.00  0.00    -0.052 SA
ATOM      7  O   UNL d   1     -41.810-123.814 -51.951  0.00  0.00    -0.266 OA
ENDROOT
BRANCH   1   8
ATOM      8  C   UNL d   1     -41.674-122.166 -52.746  0.00  0.00     0.132 C 
BRANCH   8   9
ATOM      9  C   UNL d   1     -42.341-121.751 -52.937  0.00  0.00     0.228 C 
ATOM     10  O   UNL d   1     -43.094-122.084 -52.872  0.00  0.00    -0.643 OA
ATOM     11  O   UNL d   1     -42.257-120.964 -53.206  0.00  0.00    -0.643 OA
ENDBRANCH   8   9
BRANCH   8  12
ATOM     12  C   UNL d   1     -41.123-122.427 -53.346  0.00  0.00     0.024 C 
BRANCH  12  13
ATOM     13  C   UNL d   1     -41.422-122.672 -54.067  0.00  0.00     0.002 A 
ATOM     14  C   UNL d   1     -41.631-123.428 -54.205  0.00  0.00     0.000 A 
ATOM     15  C   UNL d   1     -41.935-123.651 -54.954  0.00  0.00     0.000 A 
ATOM     16  C   UNL d   1     -42.007-123.095 -55.513  0.00  0.00     0.000 A 
ATOM     17  C   UNL d   1     -41.798-122.312 -55.394  0.00  0.00     0.000 A 
ATOM     18  C   UNL d   1     -41.495-122.084 -54.650  0.00  0.00     0.000 A 
ENDBRANCH  12  13
ENDBRANCH   8  12
ENDBRANCH   1   8
BRANCH   4  19
ATOM     19  C   UNL d   1     -41.313-123.664 -50.291  0.00  0.00     0.011 C 
BRANCH  19  20
ATOM     20  C   UNL d   1     -41.625-123.616 -49.504  0.00  0.00     0.001 A 
ATOM     21  C   UNL d   1     -42.423-123.515 -49.405  0.00  0.00     0.001 A 
ATOM     22  C   UNL d   1     -42.756-123.464 -48.646  0.00  0.00     0.007 A 
ATOM     23  C   UNL d   1     -42.221-123.522 -47.963  0.00  0.00     0.035 A 
ATOM     24  C   UNL d   1     -41.419-123.623 -48.098  0.00  0.00     0.007 A 
ATOM     25 BR   UNL d   1     -42.527-123.474 -47.176  0.00  0.00    -0.049 Br
ATOM     26  C   UNL d   1     -41.123-123.669 -48.850  0.00  0.00     0.001 A 
ENDBRANCH  19  20
ENDBRANCH   4  19
TORSDOF 6
ENDMDL
MODEL 2
REMARK VINA RESULT:      -0.7      1.144      1.681
REMARK  6 active torsions:
REMARK  status: ('A' for Active; 'I' for Inactive)
REMARK    1  A    between atoms: C_6  and  N_1 
REMARK    2  A    between atoms: C_7  and  C_4 
REMARK    3  A    between atoms: C_8  and  C_6 
REMARK    4  A    between atoms: C_11  and  C_6 
REMARK    5  A    between atoms: C_13  and  C_7 
REMARK    6  A    between atoms: C_16  and  C_11 
ROOT
ATOM      1  N   UNL d   1     -41.855-122.633 -52.482  0.00  0.00    -0.254 N 
ATOM      2  C   UNL d   1     -41.465-123.179 -52.127  0.00  0.00     0.153 A 
ATOM      3  C   UNL d   1     -42.120-122.096 -51.926  0.00  0.00     0.272 A 
ATOM      4  C   UNL d   1     -41.869-122.342 -51.187  0.00  0.00     0.088 A 
ATOM      5  S   UNL d   1     -41.458-123.023 -51.320  0.00  0.00    -0.054 SA
ATOM      6  S   UNL d   1     -41.123-123.817 -52.576  0.00  0.00    -0.052 SA
ATOM      7  O   UNL d   1     -42.576-121.399 -52.067  0.00  0.00    -0.266 OA
ENDROOT
BRANCH   1   8
ATOM      8  C   UNL d   1     -41.980-122.606 -53.315  0.00  0.00     0.132 C 
BRANCH   8   9
ATOM      9  C   UNL d   1     -42.010-123.281 -53.757  0.00  0.00     0.228 C 
ATOM     10  O   UNL d   1     -41.337-123.595 -54.118  0.00  0.00    -0.643 OA
ATOM     11  O   UNL d   1     -42.747-123.665 -53.847  0.00  0.00    -0.643 OA
ENDBRANCH   8   9
BRANCH   8  12
ATOM     12  C   UNL d   1     -42.073-121.833 -53.670  0.00  0.00     0.024 C 
BRANCH  12  13
ATOM     13  C   UNL d   1     -42.115-121.784 -54.486  0.00  0.00     0.002 A 
ATOM     14  C   UNL d   1     -42.801-121.858 -54.881  0.00  0.00     0.000 A 
ATOM     15  C   UNL d   1     -42.813-121.803 -55.718  0.00  0.00     0.000 A 
ATOM     16  C   UNL d   1     -42.130-121.677 -56.098  0.00  0.00     0.000 A 
ATOM     17  C   UNL d   1     -41.412-121.598 -55.712  0.00  0.00     0.000 A 
ATOM     18  C   UNL d   1     -41.395-121.652 -54.879  0.00  0.00     0.000 A 
ENDBRANCH  12  13
ENDBRANCH   8  12
ENDBRANCH   1   8
BRANCH   4  19
ATOM     19  C   UNL d   1     -42.041-121.925 -50.497  0.00  0.00     0.011 C 
BRANCH  19  20
ATOM     20  C   UNL d   1     -42.169-122.309 -49.752  0.00  0.00     0.001 A 
ATOM     21  C   UNL d   1     -41.554-122.357 -49.226  0.00  0.00     0.001 A 
ATOM     22  C   UNL d   1     -41.651-122.727 -48.489  0.00  0.00     0.007 A 
ATOM     23  C   UNL d   1     -42.432-123.061 -48.301  0.00  0.00     0.035 A 
ATOM     24  C   UNL d   1     -43.031-122.995 -48.855  0.00  0.00     0.007 A 
ATOM     25 BR   UNL d   1     -42.564-123.445 -47.559  0.00  0.00    -0.049 Br
ATOM     26  C   UNL d   1     -42.908-122.628 -49.566  0.00  0.00     0.001 A 
ENDBRANCH  19  20
ENDBRANCH   4  19
TORSDOF 6
ENDMDL
