MODEL 1
REMARK VINA RESULT:      -6.5      0.000      0.000
REMARK  7 active torsions:
REMARK  status: ('A' for Active; 'I' for Inactive)
REMARK    1  A    between atoms: C_6  and  C_1 
REMARK    2  A    between atoms: C_8  and  N_3 
REMARK    3  A    between atoms: O_7  and  C_6 
REMARK    4  A    between atoms: C_9  and  O_7 
REMARK    5  A    between atoms: C_19  and  C_8 
REMARK    6  A    between atoms: O_16  and  C_10 
REMARK    7  A    between atoms: O_18  and  C_19 
ROOT
ATOM      1  C   UNL d   1     -48.763  13.953  22.917  0.00  0.00     0.173 A 
ATOM      2  N   UNL d   1     -48.688  14.745  23.162  0.00  0.00    -0.225 NA
ATOM      3  N   UNL d   1     -49.578  13.754  22.924  0.00  0.00    -0.286 N 
ATOM      4  C   UNL d   1     -50.006  14.431  23.175  0.00  0.00     0.083 A 
ATOM      5  C   UNL d   1     -49.451  15.038  23.319  0.00  0.00     0.099 A 
ATOM      6  C   UNL d   1     -50.809  14.580  23.290  0.00  0.00     0.019 A 
ATOM      7  C   UNL d   1     -49.710  15.781  23.576  0.00  0.00     0.021 A 
ATOM      8  C   UNL d   1     -51.064  15.321  23.546  0.00  0.00     0.002 A 
ATOM      9  C   UNL d   1     -50.515  15.922  23.689  0.00  0.00     0.002 A 
ENDROOT
BRANCH   1  10
ATOM     10  C   UNL d   1     -48.032  13.618  22.749  0.00  0.00     0.160 C 
BRANCH  10  11
ATOM     11  O   UNL d   1     -47.341  13.946  23.067  0.00  0.00    -0.302 OA
BRANCH  11  12
ATOM     12  C   UNL d   1     -46.603  13.637  22.866  0.00  0.00     0.100 A 
ATOM     13  C   UNL d   1     -46.422  12.861  23.069  0.00  0.00     0.027 A 
ATOM     14  C   UNL d   1     -45.685  12.551  22.868  0.00  0.00     0.026 A 
ATOM     15  C   UNL d   1     -45.131  13.018  22.466  0.00  0.00     0.094 A 
ATOM     16  C   UNL d   1     -45.319  13.792  22.266  0.00  0.00     0.026 A 
ATOM     17  C   UNL d   1     -46.056  14.102  22.467  0.00  0.00     0.027 A 
BRANCH  15  18
ATOM     18  O   UNL d   1     -44.396  12.709  22.266  0.00  0.00    -0.328 OA
ATOM     19  C   UNL d   1     -44.136  12.724  21.482  0.00  0.00     0.181 C 
ENDBRANCH  15  18
ENDBRANCH  11  12
ENDBRANCH  10  11
ENDBRANCH   1  10
BRANCH   3  20
ATOM     20  C   UNL d   1     -49.904  13.027  22.722  0.00  0.00     0.108 C 
BRANCH  20  21
ATOM     21  C   UNL d   1     -50.074  12.468  23.309  0.00  0.00     0.135 C 
BRANCH  21  22
ATOM     22  O   UNL d   1     -50.134  11.674  23.113  0.00  0.00    -0.325 OA
ATOM     23  C   UNL d   1     -50.064  11.100  23.698  0.00  0.00     0.182 C 
ENDBRANCH  21  22
ENDBRANCH  20  21
ENDBRANCH   3  20
TORSDOF 7
ENDMDL
MODEL 2
REMARK VINA RESULT:      -5.6      1.354      1.700
REMARK  7 active torsions:
REMARK  status: ('A' for Active; 'I' for Inactive)
REMARK    1  A    between atoms: C_6  and  C_1 
REMARK    2  A    between atoms: C_8  and  N_3 
REMARK    3  A    between atoms: O_7  and  C_6 
REMARK    4  A    between atoms: C_9  and  O_7 
REMARK    5  A    between atoms: C_19  and  C_8 
REMARK    6  A    between atoms: O_16  and  C_10 
REMARK    7  A    between atoms: O_18  and  C_19 
ROOT
ATOM      1  C   UNL d   1     -48.155  13.344  23.015  0.00  0.00     0.173 A 
ATOM      2  N   UNL d   1     -47.798  13.964  22.588  0.00  0.00    -0.225 NA
ATOM      3  N   UNL d   1     -48.916  13.600  23.258  0.00  0.00    -0.286 N 
ATOM      4  C   UNL d   1     -49.027  14.383  22.977  0.00  0.00     0.083 A 
ATOM      5  C   UNL d   1     -48.334  14.600  22.564  0.00  0.00     0.099 A 
ATOM      6  C   UNL d   1     -49.649  14.920  23.036  0.00  0.00     0.019 A 
ATOM      7  C   UNL d   1     -48.277  15.351  22.219  0.00  0.00     0.021 A 
ATOM      8  C   UNL d   1     -49.590  15.668  22.691  0.00  0.00     0.002 A 
ATOM      9  C   UNL d   1     -48.904  15.883  22.283  0.00  0.00     0.002 A 
ENDROOT
BRANCH   1  10
ATOM     10  C   UNL d   1     -47.662  12.689  23.066  0.00  0.00     0.160 C 
BRANCH  10  11
ATOM     11  O   UNL d   1     -46.913  12.758  23.414  0.00  0.00    -0.302 OA
BRANCH  11  12
ATOM     12  C   UNL d   1     -46.383  12.126  23.389  0.00  0.00     0.100 A 
ATOM     13  C   UNL d   1     -46.614  11.395  23.688  0.00  0.00     0.027 A 
ATOM     14  C   UNL d   1     -46.084  10.762  23.663  0.00  0.00     0.026 A 
ATOM     15  C   UNL d   1     -45.328  10.864  23.339  0.00  0.00     0.094 A 
ATOM     16  C   UNL d   1     -45.105  11.596  23.043  0.00  0.00     0.026 A 
ATOM     17  C   UNL d   1     -45.635  12.229  23.068  0.00  0.00     0.027 A 
BRANCH  15  18
ATOM     18  O   UNL d   1     -44.801  10.233  23.315  0.00  0.00    -0.328 OA
ATOM     19  C   UNL d   1     -44.005  10.347  23.504  0.00  0.00     0.181 C 
ENDBRANCH  15  18
ENDBRANCH  11  12
ENDBRANCH  10  11
ENDBRANCH   1  10
BRANCH   3  20
ATOM     20  C   UNL d   1     -49.460  13.164  23.694  0.00  0.00     0.108 C 
BRANCH  20  21
ATOM     21  C   UNL d   1     -50.022  12.693  23.310  0.00  0.00     0.135 C 
BRANCH  21  22
ATOM     22  O   UNL d   1     -50.352  12.051  23.698  0.00  0.00    -0.325 OA
ATOM     23  C   UNL d   1     -51.010  11.673  23.381  0.00  0.00     0.182 C 
ENDBRANCH  21  22
ENDBRANCH  20  21
ENDBRANCH   3  20
TORSDOF 7
ENDMDL
MODEL 3
REMARK VINA RESULT:      -5.5      1.697      2.860
REMARK  7 active torsions:
REMARK  status: ('A' for Active; 'I' for Inactive)
REMARK    1  A    between atoms: C_6  and  C_1 
REMARK    2  A    between atoms: C_8  and  N_3 
REMARK    3  A    between atoms: O_7  and  C_6 
REMARK    4  A    between atoms: C_9  and  O_7 
REMARK    5  A    between atoms: C_19  and  C_8 
REMARK    6  A    between atoms: O_16  and  C_10 
REMARK    7  A    between atoms: O_18  and  C_19 
ROOT
ATOM      1  C   UNL d   1     -48.150  12.377  23.421  0.00  0.00     0.173 A 
ATOM      2  N   UNL d   1     -48.581  11.672  23.516  0.00  0.00    -0.225 NA
ATOM      3  N   UNL d   1     -48.694  13.015  23.396  0.00  0.00    -0.286 N 
ATOM      4  C   UNL d   1     -49.467  12.696  23.476  0.00  0.00     0.083 A 
ATOM      5  C   UNL d   1     -49.389  11.868  23.550  0.00  0.00     0.099 A 
ATOM      6  C   UNL d   1     -50.218  13.036  23.493  0.00  0.00     0.019 A 
ATOM      7  C   UNL d   1     -50.064  11.396  23.638  0.00  0.00     0.021 A 
ATOM      8  C   UNL d   1     -50.889  12.564  23.581  0.00  0.00     0.002 A 
ATOM      9  C   UNL d   1     -50.812  11.744  23.654  0.00  0.00     0.002 A 
ENDROOT
BRANCH   1  10
ATOM     10  C   UNL d   1     -47.342  12.235  23.381  0.00  0.00     0.160 C 
BRANCH  10  11
ATOM     11  O   UNL d   1     -47.058  11.458  23.328  0.00  0.00    -0.302 OA
BRANCH  11  12
ATOM     12  C   UNL d   1     -46.247  11.310  23.334  0.00  0.00     0.100 A 
ATOM     13  C   UNL d   1     -45.737  11.848  22.978  0.00  0.00     0.027 A 
ATOM     14  C   UNL d   1     -44.925  11.701  22.983  0.00  0.00     0.026 A 
ATOM     15  C   UNL d   1     -44.627  11.017  23.344  0.00  0.00     0.094 A 
ATOM     16  C   UNL d   1     -45.142  10.484  23.698  0.00  0.00     0.026 A 
ATOM     17  C   UNL d   1     -45.954  10.632  23.693  0.00  0.00     0.027 A 
BRANCH  15  18
ATOM     18  O   UNL d   1     -43.818  10.871  23.349  0.00  0.00    -0.328 OA
ATOM     19  C   UNL d   1     -43.529  10.133  23.582  0.00  0.00     0.181 C 
ENDBRANCH  15  18
ENDBRANCH  11  12
ENDBRANCH  10  11
ENDBRANCH   1  10
BRANCH   3  20
ATOM     20  C   UNL d   1     -48.509  13.811  23.308  0.00  0.00     0.108 C 
BRANCH  20  21
ATOM     21  C   UNL d   1     -48.570  14.175  22.567  0.00  0.00     0.135 C 
BRANCH  21  22
ATOM     22  O   UNL d   1     -48.209  14.898  22.435  0.00  0.00    -0.325 OA
ATOM     23  C   UNL d   1     -48.627  15.507  22.073  0.00  0.00     0.182 C 
ENDBRANCH  21  22
ENDBRANCH  20  21
ENDBRANCH   3  20
TORSDOF 7
ENDMDL
MODEL 4
REMARK VINA RESULT:      -4.9      8.028     10.380
REMARK  7 active torsions:
REMARK  status: ('A' for Active; 'I' for Inactive)
REMARK    1  A    between atoms: C_6  and  C_1 
REMARK    2  A    between atoms: C_8  and  N_3 
REMARK    3  A    between atoms: O_7  and  C_6 
REMARK    4  A    between atoms: C_9  and  O_7 
REMARK    5  A    between atoms: C_19  and  C_8 
REMARK    6  A    between atoms: O_16  and  C_10 
REMARK    7  A    between atoms: O_18  and  C_19 
ROOT
ATOM      1  C   UNL d   1     -38.751  14.202  20.313  0.00  0.00     0.173 A 
ATOM      2  N   UNL d   1     -38.316  13.528  20.536  0.00  0.00    -0.225 NA
ATOM      3  N   UNL d   1     -39.016  14.584  21.011  0.00  0.00    -0.286 N 
ATOM      4  C   UNL d   1     -38.741  14.139  21.667  0.00  0.00     0.083 A 
ATOM      5  C   UNL d   1     -38.311  13.490  21.367  0.00  0.00     0.099 A 
ATOM      6  C   UNL d   1     -38.819  14.231  22.483  0.00  0.00     0.019 A 
ATOM      7  C   UNL d   1     -37.967  12.945  21.888  0.00  0.00     0.021 A 
ATOM      8  C   UNL d   1     -38.476  13.687  23.000  0.00  0.00     0.002 A 
ATOM      9  C   UNL d   1     -38.050  13.044  22.702  0.00  0.00     0.002 A 
ENDROOT
BRANCH   1  10
ATOM     10  C   UNL d   1     -38.786  14.283  19.496  0.00  0.00     0.160 C 
BRANCH  10  11
ATOM     11  O   UNL d   1     -38.818  13.611  19.012  0.00  0.00    -0.302 OA
BRANCH  11  12
ATOM     12  C   UNL d   1     -38.775  13.687  18.192  0.00  0.00     0.100 A 
ATOM     13  C   UNL d   1     -38.219  13.247  17.775  0.00  0.00     0.027 A 
ATOM     14  C   UNL d   1     -38.175  13.322  16.954  0.00  0.00     0.026 A 
ATOM     15  C   UNL d   1     -38.688  13.836  16.555  0.00  0.00     0.094 A 
ATOM     16  C   UNL d   1     -39.241  14.272  16.977  0.00  0.00     0.026 A 
ATOM     17  C   UNL d   1     -39.284  14.197  17.798  0.00  0.00     0.027 A 
BRANCH  15  18
ATOM     18  O   UNL d   1     -38.644  13.911  15.737  0.00  0.00    -0.328 OA
ATOM     19  C   UNL d   1     -37.940  13.743  15.340  0.00  0.00     0.181 C 
ENDBRANCH  15  18
ENDBRANCH  11  12
ENDBRANCH  10  11
ENDBRANCH   1  10
BRANCH   3  20
ATOM     20  C   UNL d   1     -39.465  15.271  21.050  0.00  0.00     0.108 C 
BRANCH  20  21
ATOM     21  C   UNL d   1     -40.290  15.235  20.989  0.00  0.00     0.135 C 
BRANCH  21  22
ATOM     22  O   UNL d   1     -40.734  15.922  21.037  0.00  0.00    -0.325 OA
ATOM     23  C   UNL d   1     -41.543  15.900  20.887  0.00  0.00     0.182 C 
ENDBRANCH  21  22
ENDBRANCH  20  21
ENDBRANCH   3  20
TORSDOF 7
ENDMDL
