MODEL 1
REMARK VINA RESULT:      -5.1      0.000      0.000
REMARK  2 active torsions:
REMARK  status: ('A' for Active; 'I' for Inactive)
REMARK    1  A    between atoms: C_6  and  C_1 
REMARK    2  A    between atoms: C_8  and  C_5 
ROOT
ATOM      1  C   UNL d   1     -41.935-122.385 -54.293  0.00  0.00     0.169 A 
ATOM      2  C   UNL d   1     -41.716-122.125 -53.535  0.00  0.00     0.048 A 
ATOM      3  N   UNL d   1     -41.586-123.448 -53.573  0.00  0.00    -0.148 NA
ATOM      4  N   UNL d   1     -41.853-123.209 -54.316  0.00  0.00    -0.142 NA
ATOM      5  C   UNL d   1     -41.504-122.772 -53.098  0.00  0.00     0.105 A 
ENDROOT
BRANCH   1   6
ATOM      6  C   UNL d   1     -42.189-121.910 -54.917  0.00  0.00     0.231 C 
ATOM      7  O   UNL d   1     -41.659-121.674 -55.503  0.00  0.00    -0.643 OA
ATOM      8  O   UNL d   1     -42.980-121.670 -54.954  0.00  0.00    -0.643 OA
ENDBRANCH   1   6
BRANCH   5   9
ATOM      9  C   UNL d   1     -41.249-122.760 -52.312  0.00  0.00     0.019 C 
ATOM     10  C   UNL d   1     -41.123-123.460 -51.909  0.00  0.00     0.002 C 
ATOM     11  C   UNL d   1     -41.123-122.040 -51.935  0.00  0.00     0.002 C 
ENDBRANCH   5   9
TORSDOF 2
ENDMDL
MODEL 2
REMARK VINA RESULT:      -4.5      1.607      2.691
REMARK  2 active torsions:
REMARK  status: ('A' for Active; 'I' for Inactive)
REMARK    1  A    between atoms: C_6  and  C_1 
REMARK    2  A    between atoms: C_8  and  C_5 
ROOT
ATOM      1  C   UNL d   1     -41.506-122.599 -53.112  0.00  0.00     0.169 A 
ATOM      2  C   UNL d   1     -41.665-122.079 -53.740  0.00  0.00     0.048 A 
ATOM      3  N   UNL d   1     -41.843-123.322 -54.177  0.00  0.00    -0.148 NA
ATOM      4  N   UNL d   1     -41.617-123.373 -53.385  0.00  0.00    -0.142 NA
ATOM      5  C   UNL d   1     -41.870-122.520 -54.387  0.00  0.00     0.105 A 
ENDROOT
BRANCH   1   6
ATOM      6  C   UNL d   1     -41.278-122.386 -52.349  0.00  0.00     0.231 C 
ATOM      7  O   UNL d   1     -41.204-122.960 -51.761  0.00  0.00    -0.643 OA
ATOM      8  O   UNL d   1     -41.123-121.593 -52.173  0.00  0.00    -0.643 OA
ENDBRANCH   1   6
BRANCH   5   9
ATOM      9  C   UNL d   1     -42.072-122.219 -55.131  0.00  0.00     0.019 C 
ATOM     10  C   UNL d   1     -41.490-121.943 -55.633  0.00  0.00     0.002 C 
ATOM     11  C   UNL d   1     -42.860-122.200 -55.362  0.00  0.00     0.002 C 
ENDBRANCH   5   9
TORSDOF 2
ENDMDL
MODEL 3
REMARK VINA RESULT:      -4.3      1.910      2.762
REMARK  2 active torsions:
REMARK  status: ('A' for Active; 'I' for Inactive)
REMARK    1  A    between atoms: C_6  and  C_1 
REMARK    2  A    between atoms: C_8  and  C_5 
ROOT
ATOM      1  C   UNL d   1     -41.365-122.704 -52.347  0.00  0.00     0.169 A 
ATOM      2  C   UNL d   1     -41.407-122.265 -53.051  0.00  0.00     0.048 A 
ATOM      3  N   UNL d   1     -41.642-123.540 -53.343  0.00  0.00    -0.148 NA
ATOM      4  N   UNL d   1     -41.511-123.498 -52.529  0.00  0.00    -0.142 NA
ATOM      5  C   UNL d   1     -41.575-122.775 -53.656  0.00  0.00     0.105 A 
ENDROOT
BRANCH   1   6
ATOM      6  C   UNL d   1     -41.206-122.406 -51.595  0.00  0.00     0.231 C 
ATOM      7  O   UNL d   1     -41.123-121.593 -51.478  0.00  0.00    -0.643 OA
ATOM      8  O   UNL d   1     -41.129-122.925 -50.955  0.00  0.00    -0.643 OA
ENDBRANCH   1   6
BRANCH   5   9
ATOM      9  C   UNL d   1     -41.665-122.565 -54.451  0.00  0.00     0.019 C 
ATOM     10  C   UNL d   1     -42.282-122.081 -54.681  0.00  0.00     0.002 C 
ATOM     11  C   UNL d   1     -41.131-122.846 -55.009  0.00  0.00     0.002 C 
ENDBRANCH   5   9
TORSDOF 2
ENDMDL
MODEL 4
REMARK VINA RESULT:      -3.9      2.674      3.208
REMARK  2 active torsions:
REMARK  status: ('A' for Active; 'I' for Inactive)
REMARK    1  A    between atoms: C_6  and  C_1 
REMARK    2  A    between atoms: C_8  and  C_5 
ROOT
ATOM      1  C   UNL d   1     -41.849-122.379 -51.317  0.00  0.00     0.169 A 
ATOM      2  C   UNL d   1     -41.546-122.783 -50.658  0.00  0.00     0.048 A 
ATOM      3  N   UNL d   1     -42.741-122.299 -50.334  0.00  0.00    -0.148 NA
ATOM      4  N   UNL d   1     -42.594-122.078 -51.115  0.00  0.00    -0.142 NA
ATOM      5  C   UNL d   1     -42.090-122.733 -50.061  0.00  0.00     0.105 A 
ENDROOT
BRANCH   1   6
ATOM      6  C   UNL d   1     -41.478-122.291 -52.048  0.00  0.00     0.231 C 
ATOM      7  O   UNL d   1     -41.460-122.917 -52.584  0.00  0.00    -0.643 OA
ATOM      8  O   UNL d   1     -41.123-121.569 -52.243  0.00  0.00    -0.643 OA
ENDBRANCH   1   6
BRANCH   5   9
ATOM      9  C   UNL d   1     -42.007-123.061 -49.306  0.00  0.00     0.019 C 
ATOM     10  C   UNL d   1     -41.294-123.387 -49.075  0.00  0.00     0.002 C 
ATOM     11  C   UNL d   1     -42.645-123.058 -48.788  0.00  0.00     0.002 C 
ENDBRANCH   5   9
TORSDOF 2
ENDMDL
MODEL 5
REMARK VINA RESULT:      -3.8      3.673      4.400
REMARK  2 active torsions:
REMARK  status: ('A' for Active; 'I' for Inactive)
REMARK    1  A    between atoms: C_6  and  C_1 
REMARK    2  A    between atoms: C_8  and  C_5 
ROOT
ATOM      1  C   UNL d   1     -42.521-122.846 -49.601  0.00  0.00     0.169 A 
ATOM      2  C   UNL d   1     -41.823-122.857 -50.052  0.00  0.00     0.048 A 
ATOM      3  N   UNL d   1     -42.760-122.228 -50.754  0.00  0.00    -0.148 NA
ATOM      4  N   UNL d   1     -43.104-122.454 -50.039  0.00  0.00    -0.142 NA
ATOM      5  C   UNL d   1     -41.970-122.480 -50.752  0.00  0.00     0.105 A 
ENDROOT
BRANCH   1   6
ATOM      6  C   UNL d   1     -42.620-123.168 -48.849  0.00  0.00     0.231 C 
ATOM      7  O   UNL d   1     -43.272-123.646 -48.683  0.00  0.00    -0.643 OA
ATOM      8  O   UNL d   1     -42.063-123.010 -48.258  0.00  0.00    -0.643 OA
ENDBRANCH   1   6
BRANCH   5   9
ATOM      9  C   UNL d   1     -41.423-122.367 -51.363  0.00  0.00     0.019 C 
ATOM     10  C   UNL d   1     -41.122-123.010 -51.769  0.00  0.00     0.002 C 
ATOM     11  C   UNL d   1     -41.182-121.606 -51.559  0.00  0.00     0.002 C 
ENDBRANCH   5   9
TORSDOF 2
ENDMDL
MODEL 6
REMARK VINA RESULT:      -2.3      9.843     10.180
REMARK  2 active torsions:
REMARK  status: ('A' for Active; 'I' for Inactive)
REMARK    1  A    between atoms: C_6  and  C_1 
REMARK    2  A    between atoms: C_8  and  C_5 
ROOT
ATOM      1  C   UNL d   1     -42.377-115.003 -47.226  0.00  0.00     0.169 A 
ATOM      2  C   UNL d   1     -43.061-115.335 -47.559  0.00  0.00     0.048 A 
ATOM      3  N   UNL d   1     -43.435-114.415 -46.676  0.00  0.00    -0.148 NA
ATOM      4  N   UNL d   1     -42.610-114.430 -46.676  0.00  0.00    -0.142 NA
ATOM      5  C   UNL d   1     -43.704-114.976 -47.223  0.00  0.00     0.105 A 
ENDROOT
BRANCH   1   6
ATOM      6  C   UNL d   1     -41.598-115.205 -47.408  0.00  0.00     0.231 C 
ATOM      7  O   UNL d   1     -41.293-115.936 -47.177  0.00  0.00    -0.643 OA
ATOM      8  O   UNL d   1     -41.123-114.671 -47.825  0.00  0.00    -0.643 OA
ENDBRANCH   1   6
BRANCH   5   9
ATOM      9  C   UNL d   1     -44.495-115.144 -47.398  0.00  0.00     0.019 C 
ATOM     10  C   UNL d   1     -45.047-115.194 -46.798  0.00  0.00     0.002 C 
ATOM     11  C   UNL d   1     -44.724-115.259 -48.179  0.00  0.00     0.002 C 
ENDBRANCH   5   9
TORSDOF 2
ENDMDL
