MODEL 1
REMARK VINA RESULT:      61.7      0.000      0.000
REMARK  5 active torsions:
REMARK  status: ('A' for Active; 'I' for Inactive)
REMARK    1  A    between atoms: N_2  and  S_1 
REMARK    2  A    between atoms: C_7  and  S_1 
REMARK    3  A    between atoms: C_3  and  N_2 
REMARK    4  A    between atoms: C_6  and  O_8 
REMARK    5  A    between atoms: O_8  and  C_9 
ROOT
ATOM      1  C   UNL d   1      60.239  49.267  50.786  0.00  0.00     0.117 A 
ATOM      2  C   UNL d   1      60.856  48.722  50.765  0.00  0.00     0.118 A 
ATOM      3  C   UNL d   1      60.125  49.708  51.477  0.00  0.00     0.022 A 
ATOM      4  C   UNL d   1      61.347  48.617  51.415  0.00  0.00     0.026 A 
ATOM      5  C   UNL d   1      60.615  49.603  52.126  0.00  0.00     0.002 A 
ATOM      6  C   UNL d   1      61.232  49.056  52.101  0.00  0.00     0.002 A 
ENDROOT
BRANCH   1   7
ATOM      7  N   UNL d   1      59.747  49.372  50.136  0.00  0.00    -0.156 NA
BRANCH   7   8
ATOM      8  S   UNL d   1      58.934  49.445  50.239  0.00  0.00     0.285 S 
ATOM      9  O   UNL d   1      58.837  49.510  49.404  0.00  0.00    -0.198 OA
ATOM     10  O   UNL d   1      59.031  49.382  51.057  0.00  0.00    -0.198 OA
BRANCH   8  11
ATOM     11  C   UNL d   1      58.101  49.521  50.341  0.00  0.00     0.105 A 
ATOM     12  C   UNL d   1      57.779  49.480  51.106  0.00  0.00     0.013 A 
ATOM     13  C   UNL d   1      56.961  49.555  51.197  0.00  0.00     0.001 A 
ATOM     14  C   UNL d   1      56.463  49.670  50.529  0.00  0.00     0.000 A 
ATOM     15  C   UNL d   1      56.793  49.708  49.782  0.00  0.00     0.001 A 
ATOM     16  C   UNL d   1      57.603  49.636  49.673  0.00  0.00     0.013 A 
ENDBRANCH   8  11
ENDBRANCH   7   8
ENDBRANCH   1   7
BRANCH   2  17
ATOM     17  O   UNL d   1      60.971  48.271  50.052  0.00  0.00    -0.306 OA
BRANCH  17  18
ATOM     18  C   UNL d   1      61.145  47.469  50.084  0.00  0.00     0.100 A 
ATOM     19  C   UNL d   1      61.690  47.134  49.553  0.00  0.00     0.025 A 
ATOM     20  C   UNL d   1      61.853  46.323  49.599  0.00  0.00     0.002 A 
ATOM     21  C   UNL d   1      62.337  45.989  49.139  0.00  0.00     0.000 C 
ATOM     22  C   UNL d   1      61.482  45.851  50.164  0.00  0.00     0.000 A 
ATOM     23  C   UNL d   1      60.940  46.197  50.688  0.00  0.00     0.002 A 
ATOM     24  C   UNL d   1      60.780  47.006  50.639  0.00  0.00     0.025 A 
ATOM     25  C   UNL d   1      60.635  45.698  51.184  0.00  0.00     0.000 C 
ENDBRANCH  17  18
ENDBRANCH   2  17
TORSDOF 5
ENDMDL
