MODEL 1
REMARK VINA RESULT:      -7.9      0.000      0.000
REMARK  4 active torsions:
REMARK  status: ('A' for Active; 'I' for Inactive)
REMARK    1  A    between atoms: C_3  and  C_1 
REMARK       I    between atoms: N_8  and  C_3 
REMARK    2  A    between atoms: C_10  and  C_7 
REMARK    3  A    between atoms: C_9  and  N_8 
REMARK    4  A    between atoms: O_14  and  C_10 
ROOT
ATOM      1  C   UNL d   1      53.979  32.802  54.297  0.00  0.00     0.081 A 
ATOM      2  C   UNL d   1      53.524  33.487  54.307  0.00  0.00     0.090 A 
ATOM      3  C   UNL d   1      54.639  32.743  54.791  0.00  0.00     0.007 A 
ATOM      4  C   UNL d   1      53.724  34.114  54.808  0.00  0.00     0.019 A 
ATOM      5  C   UNL d   1      54.842  33.368  55.293  0.00  0.00     0.000 A 
ATOM      6  C   UNL d   1      54.380  34.056  55.299  0.00  0.00     0.002 A 
ENDROOT
BRANCH   2   7
ATOM      7  N   UNL d   1      52.883  33.485  53.796  0.00  0.00    -0.207 NA
ATOM      8  C   UNL d   1      52.459  34.181  53.672  0.00  0.00     0.287 C 
ATOM      9  O   UNL d   1      52.679  34.871  54.059  0.00  0.00    -0.265 OA
BRANCH   8  10
ATOM     10  C   UNL d   1      51.813  34.189  53.159  0.00  0.00     0.108 A 
ATOM     11  C   UNL d   1      51.827  34.396  52.359  0.00  0.00     0.094 A 
ATOM     12  N   UNL d   1      51.059  34.325  52.066  0.00  0.00    -0.219 NA
ATOM     13  C   UNL d   1      52.491  34.631  51.934  0.00  0.00     0.021 C 
ATOM     14  C   UNL d   1      50.578  34.076  52.680  0.00  0.00     0.215 A 
ATOM     15  S   UNL d   1      51.041  33.992  53.355  0.00  0.00    -0.041 SA
ATOM     16  N   UNL d   1      49.764  33.933  52.635  0.00  0.00    -0.120 N 
ENDBRANCH   8  10
ENDBRANCH   2   7
BRANCH   1  17
ATOM     17  C   UNL d   1      53.780  32.180  53.799  0.00  0.00     0.297 C 
ATOM     18  O   UNL d   1      54.049  32.177  53.026  0.00  0.00    -0.259 OA
BRANCH  17  19
ATOM     19  O   UNL d   1      53.314  31.569  54.080  0.00  0.00    -0.296 OA
ATOM     20  C   UNL d   1      53.324  30.836  53.699  0.00  0.00     0.185 C 
ENDBRANCH  17  19
ENDBRANCH   1  17
TORSDOF 4
ENDMDL
MODEL 2
REMARK VINA RESULT:      -7.7      1.973      3.551
REMARK  4 active torsions:
REMARK  status: ('A' for Active; 'I' for Inactive)
REMARK    1  A    between atoms: C_3  and  C_1 
REMARK       I    between atoms: N_8  and  C_3 
REMARK    2  A    between atoms: C_10  and  C_7 
REMARK    3  A    between atoms: C_9  and  N_8 
REMARK    4  A    between atoms: O_14  and  C_10 
ROOT
ATOM      1  C   UNL d   1      53.391  33.471  53.654  0.00  0.00     0.081 A 
ATOM      2  C   UNL d   1      52.875  32.875  53.420  0.00  0.00     0.090 A 
ATOM      3  C   UNL d   1      53.195  34.261  53.511  0.00  0.00     0.007 A 
ATOM      4  C   UNL d   1      52.164  33.063  53.043  0.00  0.00     0.019 A 
ATOM      5  C   UNL d   1      52.483  34.452  53.134  0.00  0.00     0.000 A 
ATOM      6  C   UNL d   1      51.968  33.847  52.901  0.00  0.00     0.002 A 
ENDROOT
BRANCH   2   7
ATOM      7  N   UNL d   1      53.126  32.113  53.590  0.00  0.00    -0.207 NA
ATOM      8  C   UNL d   1      52.659  31.471  53.366  0.00  0.00     0.287 C 
ATOM      9  O   UNL d   1      51.949  31.596  52.974  0.00  0.00    -0.265 OA
BRANCH   8  10
ATOM     10  C   UNL d   1      52.903  30.701  53.532  0.00  0.00     0.108 A 
ATOM     11  C   UNL d   1      53.130  30.130  52.979  0.00  0.00     0.094 A 
ATOM     12  N   UNL d   1      53.329  29.444  53.392  0.00  0.00    -0.219 NA
ATOM     13  C   UNL d   1      53.152  30.232  52.163  0.00  0.00     0.021 C 
ATOM     14  C   UNL d   1      53.226  29.591  54.190  0.00  0.00     0.215 A 
ATOM     15  S   UNL d   1      52.963  30.366  54.280  0.00  0.00    -0.041 SA
ATOM     16  N   UNL d   1      53.361  29.057  54.807  0.00  0.00    -0.120 N 
ENDBRANCH   8  10
ENDBRANCH   2   7
BRANCH   1  17
ATOM     17  C   UNL d   1      54.098  33.283  54.029  0.00  0.00     0.297 C 
ATOM     18  O   UNL d   1      54.742  33.046  53.583  0.00  0.00    -0.259 OA
BRANCH  17  19
ATOM     19  O   UNL d   1      54.152  33.335  54.843  0.00  0.00    -0.296 OA
ATOM     20  C   UNL d   1      54.885  33.470  55.198  0.00  0.00     0.185 C 
ENDBRANCH  17  19
ENDBRANCH   1  17
TORSDOF 4
ENDMDL
MODEL 3
REMARK VINA RESULT:      -7.4      0.907      2.076
REMARK  4 active torsions:
REMARK  status: ('A' for Active; 'I' for Inactive)
REMARK    1  A    between atoms: C_3  and  C_1 
REMARK       I    between atoms: N_8  and  C_3 
REMARK    2  A    between atoms: C_10  and  C_7 
REMARK    3  A    between atoms: C_9  and  N_8 
REMARK    4  A    between atoms: O_14  and  C_10 
ROOT
ATOM      1  C   UNL d   1      53.622  34.041  54.735  0.00  0.00     0.081 A 
ATOM      2  C   UNL d   1      53.197  33.565  54.216  0.00  0.00     0.090 A 
ATOM      3  C   UNL d   1      54.292  33.740  55.111  0.00  0.00     0.007 A 
ATOM      4  C   UNL d   1      53.439  32.788  54.070  0.00  0.00     0.019 A 
ATOM      5  C   UNL d   1      54.537  32.962  54.968  0.00  0.00     0.000 A 
ATOM      6  C   UNL d   1      54.105  32.487  54.443  0.00  0.00     0.002 A 
ENDROOT
BRANCH   2   7
ATOM      7  N   UNL d   1      52.543  33.922  53.875  0.00  0.00    -0.207 NA
ATOM      8  C   UNL d   1      52.100  33.509  53.315  0.00  0.00     0.287 C 
ATOM      9  O   UNL d   1      52.314  32.746  53.102  0.00  0.00    -0.265 OA
BRANCH   8  10
ATOM     10  C   UNL d   1      51.439  33.859  52.966  0.00  0.00     0.108 A 
ATOM     11  C   UNL d   1      51.405  34.191  52.210  0.00  0.00     0.094 A 
ATOM     12  N   UNL d   1      50.639  34.475  52.094  0.00  0.00    -0.219 NA
ATOM     13  C   UNL d   1      52.026  34.230  51.672  0.00  0.00     0.021 C 
ATOM     14  C   UNL d   1      50.207  34.320  52.771  0.00  0.00     0.215 A 
ATOM     15  S   UNL d   1      50.698  33.940  53.311  0.00  0.00    -0.041 SA
ATOM     16  N   UNL d   1      49.412  34.509  52.897  0.00  0.00    -0.120 N 
ENDBRANCH   8  10
ENDBRANCH   2   7
BRANCH   1  17
ATOM     17  C   UNL d   1      53.381  34.814  54.879  0.00  0.00     0.297 C 
ATOM     18  O   UNL d   1      52.861  34.968  55.493  0.00  0.00    -0.259 OA
BRANCH  17  19
ATOM     19  O   UNL d   1      53.661  35.421  54.409  0.00  0.00    -0.296 OA
ATOM     20  C   UNL d   1      53.537  36.206  54.634  0.00  0.00     0.185 C 
ENDBRANCH  17  19
ENDBRANCH   1  17
TORSDOF 4
ENDMDL
MODEL 4
REMARK VINA RESULT:      -7.3      1.051      2.105
REMARK  4 active torsions:
REMARK  status: ('A' for Active; 'I' for Inactive)
REMARK    1  A    between atoms: C_3  and  C_1 
REMARK       I    between atoms: N_8  and  C_3 
REMARK    2  A    between atoms: C_10  and  C_7 
REMARK    3  A    between atoms: C_9  and  N_8 
REMARK    4  A    between atoms: O_14  and  C_10 
ROOT
ATOM      1  C   UNL d   1      53.647  31.882  53.893  0.00  0.00     0.081 A 
ATOM      2  C   UNL d   1      52.991  31.922  53.399  0.00  0.00     0.090 A 
ATOM      3  C   UNL d   1      54.106  31.196  53.908  0.00  0.00     0.007 A 
ATOM      4  C   UNL d   1      52.790  31.280  52.920  0.00  0.00     0.019 A 
ATOM      5  C   UNL d   1      53.908  30.550  53.430  0.00  0.00     0.000 A 
ATOM      6  C   UNL d   1      53.245  30.597  52.934  0.00  0.00     0.002 A 
ENDROOT
BRANCH   2   7
ATOM      7  N   UNL d   1      52.577  32.630  53.429  0.00  0.00    -0.207 NA
ATOM      8  C   UNL d   1      52.015  32.797  52.850  0.00  0.00     0.287 C 
ATOM      9  O   UNL d   1      51.872  32.258  52.248  0.00  0.00    -0.265 OA
BRANCH   8  10
ATOM     10  C   UNL d   1      51.593  33.505  52.871  0.00  0.00     0.108 A 
ATOM     11  C   UNL d   1      51.770  34.192  52.446  0.00  0.00     0.094 A 
ATOM     12  N   UNL d   1      51.203  34.760  52.638  0.00  0.00    -0.219 NA
ATOM     13  C   UNL d   1      52.399  34.288  51.926  0.00  0.00     0.021 C 
ATOM     14  C   UNL d   1      50.683  34.427  53.175  0.00  0.00     0.215 A 
ATOM     15  S   UNL d   1      50.922  33.652  53.321  0.00  0.00    -0.041 SA
ATOM     16  N   UNL d   1      50.029  34.799  53.517  0.00  0.00    -0.120 N 
ENDBRANCH   8  10
ENDBRANCH   2   7
BRANCH   1  17
ATOM     17  C   UNL d   1      53.846  32.522  54.369  0.00  0.00     0.297 C 
ATOM     18  O   UNL d   1      53.426  32.661  55.058  0.00  0.00    -0.259 OA
BRANCH  17  19
ATOM     19  O   UNL d   1      54.462  33.014  54.152  0.00  0.00    -0.296 OA
ATOM     20  C   UNL d   1      54.840  33.476  54.722  0.00  0.00     0.185 C 
ENDBRANCH  17  19
ENDBRANCH   1  17
TORSDOF 4
ENDMDL
MODEL 5
REMARK VINA RESULT:      -7.3      1.880      3.195
REMARK  4 active torsions:
REMARK  status: ('A' for Active; 'I' for Inactive)
REMARK    1  A    between atoms: C_3  and  C_1 
REMARK       I    between atoms: N_8  and  C_3 
REMARK    2  A    between atoms: C_10  and  C_7 
REMARK    3  A    between atoms: C_9  and  N_8 
REMARK    4  A    between atoms: O_14  and  C_10 
ROOT
ATOM      1  C   UNL d   1      52.696  31.555  53.106  0.00  0.00     0.081 A 
ATOM      2  C   UNL d   1      53.276  31.719  53.664  0.00  0.00     0.090 A 
ATOM      3  C   UNL d   1      52.577  30.777  52.856  0.00  0.00     0.007 A 
ATOM      4  C   UNL d   1      53.740  31.109  53.975  0.00  0.00     0.019 A 
ATOM      5  C   UNL d   1      53.039  30.164  53.165  0.00  0.00     0.000 A 
ATOM      6  C   UNL d   1      53.623  30.335  53.728  0.00  0.00     0.002 A 
ENDROOT
BRANCH   2   7
ATOM      7  N   UNL d   1      53.345  32.509  53.871  0.00  0.00    -0.207 NA
ATOM      8  C   UNL d   1      53.757  32.716  54.555  0.00  0.00     0.287 C 
ATOM      9  O   UNL d   1      54.095  32.134  55.024  0.00  0.00    -0.265 OA
BRANCH   8  10
ATOM     10  C   UNL d   1      53.832  33.509  54.772  0.00  0.00     0.108 A 
ATOM     11  C   UNL d   1      54.540  33.915  54.899  0.00  0.00     0.094 A 
ATOM     12  N   UNL d   1      54.352  34.692  55.104  0.00  0.00    -0.219 NA
ATOM     13  C   UNL d   1      55.296  33.599  54.831  0.00  0.00     0.021 C 
ATOM     14  C   UNL d   1      53.536  34.762  55.104  0.00  0.00     0.215 A 
ATOM     15  S   UNL d   1      53.213  34.033  54.899  0.00  0.00    -0.041 SA
ATOM     16  N   UNL d   1      53.105  35.446  55.279  0.00  0.00    -0.120 N 
ENDBRANCH   8  10
ENDBRANCH   2   7
BRANCH   1  17
ATOM     17  C   UNL d   1      52.235  32.162  52.797  0.00  0.00     0.297 C 
ATOM     18  O   UNL d   1      52.536  32.635  52.200  0.00  0.00    -0.259 OA
BRANCH  17  19
ATOM     19  O   UNL d   1      51.482  32.288  53.088  0.00  0.00    -0.296 OA
ATOM     20  C   UNL d   1      50.976  32.815  52.704  0.00  0.00     0.185 C 
ENDBRANCH  17  19
ENDBRANCH   1  17
TORSDOF 4
ENDMDL
MODEL 6
REMARK VINA RESULT:      -7.1      1.588      3.124
REMARK  4 active torsions:
REMARK  status: ('A' for Active; 'I' for Inactive)
REMARK    1  A    between atoms: C_3  and  C_1 
REMARK       I    between atoms: N_8  and  C_3 
REMARK    2  A    between atoms: C_10  and  C_7 
REMARK    3  A    between atoms: C_9  and  N_8 
REMARK    4  A    between atoms: O_14  and  C_10 
ROOT
ATOM      1  C   UNL d   1      52.399  34.498  53.640  0.00  0.00     0.081 A 
ATOM      2  C   UNL d   1      52.889  33.939  53.991  0.00  0.00     0.090 A 
ATOM      3  C   UNL d   1      52.376  35.267  53.937  0.00  0.00     0.007 A 
ATOM      4  C   UNL d   1      53.358  34.145  54.640  0.00  0.00     0.019 A 
ATOM      5  C   UNL d   1      52.845  35.478  54.587  0.00  0.00     0.000 A 
ATOM      6  C   UNL d   1      53.337  34.910  54.937  0.00  0.00     0.002 A 
ENDROOT
BRANCH   2   7
ATOM      7  N   UNL d   1      52.867  33.193  53.650  0.00  0.00    -0.207 NA
ATOM      8  C   UNL d   1      53.311  32.582  53.979  0.00  0.00     0.287 C 
ATOM      9  O   UNL d   1      53.772  32.720  54.644  0.00  0.00    -0.265 OA
BRANCH   8  10
ATOM     10  C   UNL d   1      53.295  31.829  53.643  0.00  0.00     0.108 A 
ATOM     11  C   UNL d   1      53.912  31.464  53.233  0.00  0.00     0.094 A 
ATOM     12  N   UNL d   1      53.652  30.718  52.997  0.00  0.00    -0.219 NA
ATOM     13  C   UNL d   1      54.653  31.790  53.087  0.00  0.00     0.021 C 
ATOM     14  C   UNL d   1      52.882  30.624  53.260  0.00  0.00     0.215 A 
ATOM     15  S   UNL d   1      52.660  31.308  53.659  0.00  0.00    -0.041 SA
ATOM     16  N   UNL d   1      52.405  29.958  53.146  0.00  0.00    -0.120 N 
ENDBRANCH   8  10
ENDBRANCH   2   7
BRANCH   1  17
ATOM     17  C   UNL d   1      51.933  34.291  52.995  0.00  0.00     0.297 C 
ATOM     18  O   UNL d   1      52.254  34.304  52.242  0.00  0.00    -0.259 OA
BRANCH  17  19
ATOM     19  O   UNL d   1      51.153  34.075  53.111  0.00  0.00    -0.296 OA
ATOM     20  C   UNL d   1      50.601  34.188  52.507  0.00  0.00     0.185 C 
ENDBRANCH  17  19
ENDBRANCH   1  17
TORSDOF 4
ENDMDL
