MODEL 1
REMARK VINA RESULT:      46.3      0.000      0.000
REMARK  6 active torsions:
REMARK  status: ('A' for Active; 'I' for Inactive)
REMARK    1  A    between atoms: C_6  and  C_1 
REMARK    2  A    between atoms: N_7  and  C_2 
REMARK    3  A    between atoms: C_8  and  N_5 
REMARK    4  A    between atoms: O_13  and  C_6 
REMARK    5  A    between atoms: C_18  and  O_13 
REMARK    6  A    between atoms: O_17  and  C_14 
ROOT
ATOM      1  C   UNL d   1     -55.167-100.817 -43.746  0.00  0.00     0.112 A 
ATOM      2  C   UNL d   1     -54.895-102.052 -43.291  0.00  0.00     0.172 A 
ATOM      3  C   UNL d   1     -55.180-100.800 -42.922  0.00  0.00     0.077 A 
ATOM      4  S   UNL d   1     -54.990-101.591 -43.978  0.00  0.00    -0.044 SA
ATOM      5  N   UNL d   1     -55.012-101.564 -42.641  0.00  0.00    -0.287 N 
ATOM      6  C   UNL d   1     -55.337-100.127 -42.459  0.00  0.00     0.020 C 
ENDROOT
BRANCH   5   7
ATOM      7  C   UNL d   1     -54.963-101.824 -41.859  0.00  0.00     0.066 A 
ATOM      8  C   UNL d   1     -55.076-102.623 -41.687  0.00  0.00     0.020 A 
ATOM      9  C   UNL d   1     -55.026-102.879 -40.906  0.00  0.00     0.026 A 
ATOM     10  C   UNL d   1     -54.866-102.346 -40.304  0.00  0.00     0.094 A 
ATOM     11  C   UNL d   1     -54.755-101.547 -40.480  0.00  0.00     0.026 A 
ATOM     12  C   UNL d   1     -54.804-101.291 -41.261  0.00  0.00     0.020 A 
BRANCH  10  13
ATOM     13  O   UNL d   1     -54.816-102.606 -39.515  0.00  0.00    -0.328 OA
ATOM     14  C   UNL d   1     -54.712-102.056 -38.908  0.00  0.00     0.181 C 
ENDBRANCH  10  13
ENDBRANCH   5   7
BRANCH   2  15
ATOM     15  N   UNL d   1     -54.714-102.858 -43.272  0.00  0.00    -0.277 NA
ATOM     16  H   UNL d   1     -55.320-103.416 -43.266  0.00  0.00     0.189 HD
ENDBRANCH   2  15
BRANCH   1  17
ATOM     17  C   UNL d   1     -55.305-100.176 -44.250  0.00  0.00     0.308 C 
ATOM     18  O   UNL d   1     -54.832 -99.509 -44.204  0.00  0.00    -0.258 OA
BRANCH  17  19
ATOM     19  O   UNL d   1     -55.923-100.211 -44.802  0.00  0.00    -0.271 OA
BRANCH  19  20
ATOM     20  C   UNL d   1     -56.327 -99.529 -45.023  0.00  0.00     0.126 C 
ATOM     21  C   UNL d   1     -56.763 -99.104 -44.465  0.00  0.00     0.029 C 
ENDBRANCH  19  20
ENDBRANCH  17  19
ENDBRANCH   1  17
TORSDOF 6
ENDMDL
