MODEL 1
REMARK VINA RESULT:      43.7      0.000      0.000
REMARK  5 active torsions:
REMARK  status: ('A' for Active; 'I' for Inactive)
REMARK    1  A    between atoms: N_4  and  C_1 
REMARK    2  A    between atoms: C_8  and  C_3 
REMARK       I    between atoms: C_7  and  N_4 
REMARK    3  A    between atoms: C_11  and  C_7 
REMARK    4  A    between atoms: C_12  and  C_11 
REMARK    5  A    between atoms: O_18  and  C_13 
ROOT
ATOM      1  N   UNL d   1     -55.579 -99.686 -44.133  0.00  0.00    -0.183 NA
ATOM      2  C   UNL d   1     -56.356 -99.443 -44.000  0.00  0.00     0.281 C 
ATOM      3  O   UNL d   1     -56.841 -99.882 -43.488  0.00  0.00    -0.265 OA
ENDROOT
BRANCH   1   4
ATOM      4  C   UNL d   1     -55.289-100.364 -43.757  0.00  0.00     0.197 A 
ATOM      5  N   UNL d   1     -55.322-100.521 -42.959  0.00  0.00    -0.221 NA
ATOM      6  C   UNL d   1     -54.971-101.253 -42.823  0.00  0.00     0.090 A 
ATOM      7  C   UNL d   1     -54.719-101.546 -43.553  0.00  0.00     0.058 A 
ATOM      8  S   UNL d   1     -54.922-100.983 -44.132  0.00  0.00    -0.046 SA
BRANCH   6   9
ATOM      9  C   UNL d   1     -54.886-101.620 -42.106  0.00  0.00     0.021 A 
ATOM     10  C   UNL d   1     -54.812-101.161 -41.422  0.00  0.00     0.022 A 
ATOM     11  C   UNL d   1     -54.726-101.536 -40.688  0.00  0.00     0.099 A 
ATOM     12  N   UNL d   1     -54.714-102.363 -40.649  0.00  0.00    -0.242 NA
ATOM     13  C   UNL d   1     -54.787-102.814 -41.324  0.00  0.00     0.099 A 
ATOM     14  C   UNL d   1     -54.875-102.445 -42.065  0.00  0.00     0.022 A 
ENDBRANCH   6   9
ENDBRANCH   1   4
BRANCH   2  15
ATOM     15  C   UNL d   1     -56.651 -98.769 -44.371  0.00  0.00     0.063 C 
BRANCH  15  16
ATOM     16  C   UNL d   1     -57.418 -98.769 -44.663  0.00  0.00     0.005 A 
ATOM     17  C   UNL d   1     -58.067 -98.782 -44.135  0.00  0.00     0.002 A 
ATOM     18  C   UNL d   1     -58.831 -98.782 -44.435  0.00  0.00     0.024 A 
ATOM     19  C   UNL d   1     -58.967 -98.770 -45.241  0.00  0.00     0.094 A 
ATOM     20  C   UNL d   1     -58.319 -98.757 -45.768  0.00  0.00     0.024 A 
ATOM     21  C   UNL d   1     -57.551 -98.757 -45.476  0.00  0.00     0.002 A 
BRANCH  19  22
ATOM     22  O   UNL d   1     -59.733 -98.769 -45.544  0.00  0.00    -0.328 OA
ATOM     23  C   UNL d   1     -59.870 -98.760 -46.349  0.00  0.00     0.181 C 
ENDBRANCH  19  22
ENDBRANCH  15  16
ENDBRANCH   2  15
TORSDOF 5
ENDMDL
