MODEL 1
REMARK VINA RESULT:      -8.4      0.000      0.000
REMARK  5 active torsions:
REMARK  status: ('A' for Active; 'I' for Inactive)
REMARK    1  A    between atoms: C_12  and  N_3 
REMARK    2  A    between atoms: C_10  and  N_7 
REMARK    3  A    between atoms: C_11  and  C_10 
REMARK    4  A    between atoms: C_15  and  C_11 
REMARK    5  A    between atoms: C_16  and  C_12 
ROOT
ATOM      1  C   UNL d   1      51.635  33.622  53.183  0.00  0.00     0.191 A 
ATOM      2  C   UNL d   1      51.620  33.874  52.388  0.00  0.00     0.196 A 
ATOM      3  N   UNL d   1      52.392  33.312  53.330  0.00  0.00    -0.191 N 
ATOM      4  N   UNL d   1      50.969  33.710  53.648  0.00  0.00    -0.204 NA
ATOM      5  N   UNL d   1      52.368  33.714  52.063  0.00  0.00    -0.122 NA
ATOM      6  N   UNL d   1      52.825  33.375  52.640  0.00  0.00    -0.058 NA
ATOM      7  N   UNL d   1      50.264  34.297  52.548  0.00  0.00    -0.251 N 
ATOM      8  C   UNL d   1      50.939  34.207  52.081  0.00  0.00     0.289 A 
ATOM      9  C   UNL d   1      50.280  34.045  53.343  0.00  0.00     0.187 A 
ATOM     10  O   UNL d   1      50.924  34.459  51.286  0.00  0.00    -0.265 OA
ENDROOT
BRANCH   7  11
ATOM     11  C   UNL d   1      49.568  34.635  52.243  0.00  0.00     0.127 C 
BRANCH  11  12
ATOM     12  C   UNL d   1      49.151  35.210  52.679  0.00  0.00     0.213 C 
ATOM     13  O   UNL d   1      49.481  35.521  53.369  0.00  0.00    -0.285 OA
BRANCH  12  14
ATOM     14  C   UNL d   1      48.415  35.460  52.416  0.00  0.00     0.041 A 
ATOM     15  C   UNL d   1      48.129  35.211  51.683  0.00  0.00     0.003 A 
ATOM     16  C   UNL d   1      47.399  35.457  51.418  0.00  0.00     0.000 A 
ATOM     17  C   UNL d   1      46.942  35.962  51.890  0.00  0.00     0.000 A 
ATOM     18  C   UNL d   1      47.228  36.211  52.624  0.00  0.00     0.000 A 
ATOM     19  C   UNL d   1      47.957  35.965  52.887  0.00  0.00     0.003 A 
ENDBRANCH  12  14
ENDBRANCH  11  12
ENDBRANCH   7  11
BRANCH   3  20
ATOM     20  C   UNL d   1      52.664  32.992  54.055  0.00  0.00     0.104 C 
BRANCH  20  21
ATOM     21  C   UNL d   1      53.457  33.105  54.285  0.00  0.00     0.019 A 
ATOM     22  C   UNL d   1      54.050  32.607  54.001  0.00  0.00     0.002 A 
ATOM     23  C   UNL d   1      54.816  32.732  54.236  0.00  0.00     0.000 A 
ATOM     24  C   UNL d   1      55.015  33.335  54.746  0.00  0.00     0.000 A 
ATOM     25  C   UNL d   1      54.405  33.847  55.038  0.00  0.00     0.000 A 
ATOM     26  C   UNL d   1      53.631  33.722  54.801  0.00  0.00     0.002 A 
ENDBRANCH  20  21
ENDBRANCH   3  20
TORSDOF 5
ENDMDL
MODEL 2
REMARK VINA RESULT:      -7.8      0.951      5.495
REMARK  5 active torsions:
REMARK  status: ('A' for Active; 'I' for Inactive)
REMARK    1  A    between atoms: C_12  and  N_3 
REMARK    2  A    between atoms: C_10  and  N_7 
REMARK    3  A    between atoms: C_11  and  C_10 
REMARK    4  A    between atoms: C_15  and  C_11 
REMARK    5  A    between atoms: C_16  and  C_12 
ROOT
ATOM      1  C   UNL d   1      50.113  34.495  52.716  0.00  0.00     0.191 A 
ATOM      2  C   UNL d   1      50.611  34.365  52.060  0.00  0.00     0.196 A 
ATOM      3  N   UNL d   1      49.360  34.687  52.421  0.00  0.00    -0.191 N 
ATOM      4  N   UNL d   1      50.412  34.421  53.473  0.00  0.00    -0.204 NA
ATOM      5  N   UNL d   1      50.156  34.480  51.375  0.00  0.00    -0.122 NA
ATOM      6  N   UNL d   1      49.402  34.674  51.604  0.00  0.00    -0.058 NA
ATOM      7  N   UNL d   1      51.700  34.088  52.943  0.00  0.00    -0.251 N 
ATOM      8  C   UNL d   1      51.395  34.164  52.180  0.00  0.00     0.289 A 
ATOM      9  C   UNL d   1      51.202  34.218  53.599  0.00  0.00     0.187 A 
ATOM     10  O   UNL d   1      51.893  34.034  51.525  0.00  0.00    -0.265 OA
ENDROOT
BRANCH   7  11
ATOM     11  C   UNL d   1      52.496  33.885  53.073  0.00  0.00     0.127 C 
BRANCH  11  12
ATOM     12  C   UNL d   1      52.697  33.302  53.635  0.00  0.00     0.213 C 
ATOM     13  O   UNL d   1      52.138  32.736  53.857  0.00  0.00    -0.285 OA
BRANCH  12  14
ATOM     14  C   UNL d   1      53.450  33.298  53.961  0.00  0.00     0.041 A 
ATOM     15  C   UNL d   1      53.593  33.683  54.678  0.00  0.00     0.003 A 
ATOM     16  C   UNL d   1      54.338  33.682  55.006  0.00  0.00     0.000 A 
ATOM     17  C   UNL d   1      54.956  33.291  54.617  0.00  0.00     0.000 A 
ATOM     18  C   UNL d   1      54.813  32.907  53.900  0.00  0.00     0.000 A 
ATOM     19  C   UNL d   1      54.068  32.908  53.573  0.00  0.00     0.003 A 
ENDBRANCH  12  14
ENDBRANCH  11  12
ENDBRANCH   7  11
BRANCH   3  20
ATOM     20  C   UNL d   1      48.679  34.863  52.875  0.00  0.00     0.104 C 
BRANCH  20  21
ATOM     21  C   UNL d   1      48.126  35.419  52.594  0.00  0.00     0.019 A 
ATOM     22  C   UNL d   1      47.637  35.237  51.956  0.00  0.00     0.002 A 
ATOM     23  C   UNL d   1      47.105  35.792  51.696  0.00  0.00     0.000 A 
ATOM     24  C   UNL d   1      47.040  36.523  52.050  0.00  0.00     0.000 A 
ATOM     25  C   UNL d   1      47.543  36.709  52.706  0.00  0.00     0.000 A 
ATOM     26  C   UNL d   1      48.081  36.150  52.969  0.00  0.00     0.002 A 
ENDBRANCH  20  21
ENDBRANCH   3  20
TORSDOF 5
ENDMDL
MODEL 3
REMARK VINA RESULT:      -7.3      1.381      5.749
REMARK  5 active torsions:
REMARK  status: ('A' for Active; 'I' for Inactive)
REMARK    1  A    between atoms: C_12  and  N_3 
REMARK    2  A    between atoms: C_10  and  N_7 
REMARK    3  A    between atoms: C_11  and  C_10 
REMARK    4  A    between atoms: C_15  and  C_11 
REMARK    5  A    between atoms: C_16  and  C_12 
ROOT
ATOM      1  C   UNL d   1      48.809  35.231  52.542  0.00  0.00     0.191 A 
ATOM      2  C   UNL d   1      49.065  34.847  51.847  0.00  0.00     0.196 A 
ATOM      3  N   UNL d   1      48.064  35.563  52.382  0.00  0.00    -0.191 N 
ATOM      4  N   UNL d   1      49.284  35.223  53.208  0.00  0.00    -0.204 NA
ATOM      5  N   UNL d   1      48.472  34.951  51.274  0.00  0.00    -0.122 NA
ATOM      6  N   UNL d   1      47.873  35.384  51.608  0.00  0.00    -0.058 NA
ATOM      7  N   UNL d   1      50.270  34.455  52.508  0.00  0.00    -0.251 N 
ATOM      8  C   UNL d   1      49.787  34.466  51.838  0.00  0.00     0.289 A 
ATOM      9  C   UNL d   1      50.014  34.839  53.202  0.00  0.00     0.187 A 
ATOM     10  O   UNL d   1      50.043  34.082  51.143  0.00  0.00    -0.265 OA
ENDROOT
BRANCH   7  11
ATOM     11  C   UNL d   1      51.006  34.069  52.506  0.00  0.00     0.127 C 
BRANCH  11  12
ATOM     12  C   UNL d   1      51.229  33.580  53.142  0.00  0.00     0.213 C 
ATOM     13  O   UNL d   1      50.664  33.346  53.698  0.00  0.00    -0.285 OA
BRANCH  12  14
ATOM     14  C   UNL d   1      52.009  33.335  53.211  0.00  0.00     0.041 A 
ATOM     15  C   UNL d   1      52.230  32.579  52.960  0.00  0.00     0.003 A 
ATOM     16  C   UNL d   1      53.003  32.332  53.026  0.00  0.00     0.000 A 
ATOM     17  C   UNL d   1      53.571  32.843  53.346  0.00  0.00     0.000 A 
ATOM     18  C   UNL d   1      53.350  33.599  53.597  0.00  0.00     0.000 A 
ATOM     19  C   UNL d   1      52.577  33.845  53.531  0.00  0.00     0.003 A 
ENDBRANCH  12  14
ENDBRANCH  11  12
ENDBRANCH   7  11
BRANCH   3  20
ATOM     20  C   UNL d   1      47.592  36.003  52.917  0.00  0.00     0.104 C 
BRANCH  20  21
ATOM     21  C   UNL d   1      46.775  36.084  52.777  0.00  0.00     0.019 A 
ATOM     22  C   UNL d   1      46.495  36.646  52.242  0.00  0.00     0.002 A 
ATOM     23  C   UNL d   1      45.696  36.709  52.119  0.00  0.00     0.000 A 
ATOM     24  C   UNL d   1      45.162  36.234  52.510  0.00  0.00     0.000 A 
ATOM     25  C   UNL d   1      45.450  35.657  53.061  0.00  0.00     0.000 A 
ATOM     26  C   UNL d   1      46.257  35.591  53.185  0.00  0.00     0.002 A 
ENDBRANCH  20  21
ENDBRANCH   3  20
TORSDOF 5
ENDMDL
MODEL 4
REMARK VINA RESULT:      -7.3      1.402      1.933
REMARK  5 active torsions:
REMARK  status: ('A' for Active; 'I' for Inactive)
REMARK    1  A    between atoms: C_12  and  N_3 
REMARK    2  A    between atoms: C_10  and  N_7 
REMARK    3  A    between atoms: C_11  and  C_10 
REMARK    4  A    between atoms: C_15  and  C_11 
REMARK    5  A    between atoms: C_16  and  C_12 
ROOT
ATOM      1  C   UNL d   1      51.812  33.132  52.879  0.00  0.00     0.191 A 
ATOM      2  C   UNL d   1      51.959  33.827  53.316  0.00  0.00     0.196 A 
ATOM      3  N   UNL d   1      52.503  32.671  52.907  0.00  0.00    -0.191 N 
ATOM      4  N   UNL d   1      51.084  33.022  52.525  0.00  0.00    -0.204 NA
ATOM      5  N   UNL d   1      52.737  33.779  53.605  0.00  0.00    -0.122 NA
ATOM      6  N   UNL d   1      53.056  33.078  53.351  0.00  0.00    -0.058 NA
ATOM      7  N   UNL d   1      50.635  34.285  53.032  0.00  0.00    -0.251 N 
ATOM      8  C   UNL d   1      51.372  34.392  53.388  0.00  0.00     0.289 A 
ATOM      9  C   UNL d   1      50.489  33.590  52.594  0.00  0.00     0.187 A 
ATOM     10  O   UNL d   1      51.519  35.086  53.825  0.00  0.00    -0.265 OA
ENDROOT
BRANCH   7  11
ATOM     11  C   UNL d   1      50.034  34.855  53.100  0.00  0.00     0.127 C 
BRANCH  11  12
ATOM     12  C   UNL d   1      49.433  34.906  52.525  0.00  0.00     0.213 C 
ATOM     13  O   UNL d   1      49.500  34.477  51.822  0.00  0.00    -0.285 OA
BRANCH  12  14
ATOM     14  C   UNL d   1      48.780  35.383  52.664  0.00  0.00     0.041 A 
ATOM     15  C   UNL d   1      48.643  35.689  53.419  0.00  0.00     0.003 A 
ATOM     16  C   UNL d   1      47.996  36.163  53.562  0.00  0.00     0.000 A 
ATOM     17  C   UNL d   1      47.473  36.338  52.945  0.00  0.00     0.000 A 
ATOM     18  C   UNL d   1      47.609  36.032  52.190  0.00  0.00     0.000 A 
ATOM     19  C   UNL d   1      48.256  35.558  52.048  0.00  0.00     0.003 A 
ENDBRANCH  12  14
ENDBRANCH  11  12
ENDBRANCH   7  11
BRANCH   3  20
ATOM     20  C   UNL d   1      52.616  31.925  52.545  0.00  0.00     0.104 C 
BRANCH  20  21
ATOM     21  C   UNL d   1      52.930  31.293  52.988  0.00  0.00     0.019 A 
ATOM     22  C   UNL d   1      53.698  31.332  53.286  0.00  0.00     0.002 A 
ATOM     23  C   UNL d   1      53.986  30.707  53.716  0.00  0.00     0.000 A 
ATOM     24  C   UNL d   1      53.538  30.042  53.861  0.00  0.00     0.000 A 
ATOM     25  C   UNL d   1      52.748  30.003  53.554  0.00  0.00     0.000 A 
ATOM     26  C   UNL d   1      52.456  30.633  53.120  0.00  0.00     0.002 A 
ENDBRANCH  20  21
ENDBRANCH   3  20
TORSDOF 5
ENDMDL
MODEL 5
REMARK VINA RESULT:      -7.1      1.542      2.616
REMARK  5 active torsions:
REMARK  status: ('A' for Active; 'I' for Inactive)
REMARK    1  A    between atoms: C_12  and  N_3 
REMARK    2  A    between atoms: C_10  and  N_7 
REMARK    3  A    between atoms: C_11  and  C_10 
REMARK    4  A    between atoms: C_15  and  C_11 
REMARK    5  A    between atoms: C_16  and  C_12 
ROOT
ATOM      1  C   UNL d   1      49.490  34.815  52.485  0.00  0.00     0.191 A 
ATOM      2  C   UNL d   1      49.244  34.605  51.716  0.00  0.00     0.196 A 
ATOM      3  N   UNL d   1      50.242  34.483  52.604  0.00  0.00    -0.191 N 
ATOM      4  N   UNL d   1      49.002  35.270  52.956  0.00  0.00    -0.204 NA
ATOM      5  N   UNL d   1      49.850  34.148  51.378  0.00  0.00    -0.122 NA
ATOM      6  N   UNL d   1      50.448  34.081  51.922  0.00  0.00    -0.058 NA
ATOM      7  N   UNL d   1      48.020  35.316  51.913  0.00  0.00    -0.251 N 
ATOM      8  C   UNL d   1      48.517  34.856  51.441  0.00  0.00     0.289 A 
ATOM      9  C   UNL d   1      48.266  35.526  52.682  0.00  0.00     0.187 A 
ATOM     10  O   UNL d   1      48.271  34.646  50.672  0.00  0.00    -0.265 OA
ENDROOT
BRANCH   7  11
ATOM     11  C   UNL d   1      47.279  35.575  51.640  0.00  0.00     0.127 C 
BRANCH  11  12
ATOM     12  C   UNL d   1      46.772  36.008  52.140  0.00  0.00     0.213 C 
ATOM     13  O   UNL d   1      47.092  36.511  52.712  0.00  0.00    -0.285 OA
BRANCH  12  14
ATOM     14  C   UNL d   1      45.959  35.930  52.057  0.00  0.00     0.041 A 
ATOM     15  C   UNL d   1      45.518  35.546  52.640  0.00  0.00     0.003 A 
ATOM     16  C   UNL d   1      44.712  35.466  52.562  0.00  0.00     0.000 A 
ATOM     17  C   UNL d   1      44.332  35.774  51.893  0.00  0.00     0.000 A 
ATOM     18  C   UNL d   1      44.773  36.159  51.311  0.00  0.00     0.000 A 
ATOM     19  C   UNL d   1      45.580  36.238  51.389  0.00  0.00     0.003 A 
ENDBRANCH  12  14
ENDBRANCH  11  12
ENDBRANCH   7  11
BRANCH   3  20
ATOM     20  C   UNL d   1      50.709  34.547  53.296  0.00  0.00     0.104 C 
BRANCH  20  21
ATOM     21  C   UNL d   1      51.483  34.239  53.305  0.00  0.00     0.019 A 
ATOM     22  C   UNL d   1      51.611  33.435  53.437  0.00  0.00     0.002 A 
ATOM     23  C   UNL d   1      52.372  33.153  53.442  0.00  0.00     0.000 A 
ATOM     24  C   UNL d   1      53.012  33.642  53.319  0.00  0.00     0.000 A 
ATOM     25  C   UNL d   1      52.879  34.468  53.182  0.00  0.00     0.000 A 
ATOM     26  C   UNL d   1      52.111  34.755  53.177  0.00  0.00     0.002 A 
ENDBRANCH  20  21
ENDBRANCH   3  20
TORSDOF 5
ENDMDL
