MODEL 1
REMARK VINA RESULT:      92.6      0.000      0.000
REMARK  5 active torsions:
REMARK  status: ('A' for Active; 'I' for Inactive)
REMARK    1  A    between atoms: S_3  and  C_1 
REMARK    2  A    between atoms: C_7  and  S_3 
REMARK    3  A    between atoms: N_11  and  C_4 
REMARK    4  A    between atoms: C_10  and  C_5 
REMARK    5  A    between atoms: C_24  and  N_11 
ROOT
ATOM      1  C   UNL d   1     -55.444-100.781 -42.729  0.00  0.00     0.042 A 
ATOM      2  C   UNL d   1     -55.118-101.194 -43.370  0.00  0.00     0.006 A 
ATOM      3  C   UNL d   1     -55.590 -99.980 -42.766  0.00  0.00     0.006 A 
ATOM      4  C   UNL d   1     -55.083 -99.963 -44.105  0.00  0.00     0.094 A 
ATOM      5  C   UNL d   1     -54.936-100.776 -44.065  0.00  0.00     0.024 A 
ATOM      6  C   UNL d   1     -55.410 -99.565 -43.456  0.00  0.00     0.024 A 
ATOM      7  O   UNL d   1     -54.894 -99.559 -44.815  0.00  0.00    -0.328 OA
ATOM      8  C   UNL d   1     -54.712 -99.142 -45.510  0.00  0.00     0.181 C 
ENDROOT
BRANCH   1   9
ATOM      9  C   UNL d   1     -55.629-101.194 -42.028  0.00  0.00     0.186 A 
ATOM     10  N   UNL d   1     -55.200-101.102 -41.330  0.00  0.00    -0.206 NA
ATOM     11  C   UNL d   1     -55.540-101.595 -40.752  0.00  0.00     0.224 A 
ATOM     12  C   UNL d   1     -56.172-101.982 -41.104  0.00  0.00     0.265 A 
ATOM     13  O   UNL d   1     -56.239-101.747 -41.886  0.00  0.00    -0.260 OA
BRANCH  11  14
ATOM     14  S   UNL d   1     -55.376-101.752 -39.968  0.00  0.00     0.231 S 
ATOM     15  O   UNL d   1     -55.720-100.924 -40.011  0.00  0.00    -0.215 OA
ATOM     16  O   UNL d   1     -55.043-102.544 -39.893  0.00  0.00    -0.215 OA
BRANCH  14  17
ATOM     17  C   UNL d   1     -55.209-101.910 -39.163  0.00  0.00     0.090 A 
ATOM     18  C   UNL d   1     -55.229-102.673 -38.882  0.00  0.00     0.012 A 
ATOM     19  C   UNL d   1     -55.065-102.820 -38.092  0.00  0.00     0.007 A 
ATOM     20  C   UNL d   1     -54.883-102.198 -37.595  0.00  0.00     0.035 A 
ATOM     21  C   UNL d   1     -54.860-101.422 -37.869  0.00  0.00     0.007 A 
ATOM     22 BR   UNL d   1     -54.713-102.344 -36.783  0.00  0.00    -0.049 Br
ATOM     23  C   UNL d   1     -55.024-101.275 -38.660  0.00  0.00     0.012 A 
ENDBRANCH  14  17
ENDBRANCH  11  14
BRANCH  12  24
ATOM     24  N   UNL d   1     -56.647-102.525 -40.692  0.00  0.00    -0.373 NA
BRANCH  24  25
ATOM     25  C   UNL d   1     -57.199-102.879 -40.200  0.00  0.00     0.164 C 
ATOM     26  C   UNL d   1     -57.643-102.867 -39.505  0.00  0.00     0.037 C 
ENDBRANCH  24  25
ENDBRANCH  12  24
ENDBRANCH   1   9
TORSDOF 5
ENDMDL
MODEL 2
REMARK VINA RESULT:      93.0      4.918      7.418
REMARK  5 active torsions:
REMARK  status: ('A' for Active; 'I' for Inactive)
REMARK    1  A    between atoms: S_3  and  C_1 
REMARK    2  A    between atoms: C_7  and  S_3 
REMARK    3  A    between atoms: N_11  and  C_4 
REMARK    4  A    between atoms: C_10  and  C_5 
REMARK    5  A    between atoms: C_24  and  N_11 
ROOT
ATOM      1  C   UNL d   1     -58.942 -99.438 -42.582  0.00  0.00     0.042 A 
ATOM      2  C   UNL d   1     -58.801-100.173 -42.226  0.00  0.00     0.006 A 
ATOM      3  C   UNL d   1     -59.326 -98.838 -42.185  0.00  0.00     0.006 A 
ATOM      4  C   UNL d   1     -59.450 -99.691 -41.042  0.00  0.00     0.094 A 
ATOM      5  C   UNL d   1     -59.060-100.298 -41.446  0.00  0.00     0.024 A 
ATOM      6  C   UNL d   1     -59.583 -98.961 -41.411  0.00  0.00     0.024 A 
ATOM      7  O   UNL d   1     -59.703 -99.836 -40.256  0.00  0.00    -0.328 OA
ATOM      8  C   UNL d   1     -59.961 -99.961 -39.476  0.00  0.00     0.181 C 
ENDROOT
BRANCH   1   9
ATOM      9  C   UNL d   1     -58.685 -99.305 -43.364  0.00  0.00     0.186 A 
ATOM     10  N   UNL d   1     -59.191 -99.356 -44.014  0.00  0.00    -0.206 NA
ATOM     11  C   UNL d   1     -58.747 -99.191 -44.698  0.00  0.00     0.224 A 
ATOM     12  C   UNL d   1     -57.977 -99.042 -44.459  0.00  0.00     0.265 A 
ATOM     13  O   UNL d   1     -57.923 -99.108 -43.644  0.00  0.00    -0.260 OA
BRANCH  11  14
ATOM     14  S   UNL d   1     -58.920 -99.153 -45.495  0.00  0.00     0.231 S 
ATOM     15  O   UNL d   1     -58.109 -99.530 -45.412  0.00  0.00    -0.215 OA
ATOM     16  O   UNL d   1     -59.696 -98.794 -45.609  0.00  0.00    -0.215 OA
BRANCH  14  17
ATOM     17  C   UNL d   1     -59.094 -99.116 -46.313  0.00  0.00     0.090 A 
ATOM     18  C   UNL d   1     -59.795 -98.795 -46.570  0.00  0.00     0.012 A 
ATOM     19  C   UNL d   1     -59.958 -98.763 -47.373  0.00  0.00     0.007 A 
ATOM     20  C   UNL d   1     -59.413 -99.052 -47.908  0.00  0.00     0.035 A 
ATOM     21  C   UNL d   1     -58.700 -99.379 -47.659  0.00  0.00     0.007 A 
ATOM     22 BR   UNL d   1     -59.576 -99.020 -48.733  0.00  0.00    -0.049 Br
ATOM     23  C   UNL d   1     -58.537 -99.412 -46.855  0.00  0.00     0.012 A 
ENDBRANCH  14  17
ENDBRANCH  11  14
BRANCH  12  24
ATOM     24  N   UNL d   1     -57.371 -98.855 -44.996  0.00  0.00    -0.373 NA
BRANCH  24  25
ATOM     25  C   UNL d   1     -56.660 -98.808 -45.403  0.00  0.00     0.164 C 
ATOM     26  C   UNL d   1     -55.945 -99.153 -45.625  0.00  0.00     0.037 C 
ENDBRANCH  24  25
ENDBRANCH  12  24
ENDBRANCH   1   9
TORSDOF 5
ENDMDL
