MODEL 1
REMARK VINA RESULT:      54.0      0.000      0.000
REMARK  3 active torsions:
REMARK  status: ('A' for Active; 'I' for Inactive)
REMARK    1  A    between atoms: C_16  and  N_3 
REMARK    2  A    between atoms: C_10  and  C_5 
REMARK    3  A    between atoms: C_26  and  C_16 
ROOT
ATOM      1  C   UNL d   1      14.305  13.373  -2.217  0.00  0.00     0.083 A 
ATOM      2  C   UNL d   1      14.215  12.585  -1.996  0.00  0.00     0.161 A 
ATOM      3  N   UNL d   1      14.827  13.219  -0.989  0.00  0.00    -0.268 N 
ATOM      4  C   UNL d   1      14.536  12.485  -1.237  0.00  0.00     0.288 A 
ATOM      5  C   UNL d   1      14.684  13.770  -1.596  0.00  0.00     0.072 A 
ATOM      6  C   UNL d   1      14.035  13.635  -2.950  0.00  0.00     0.201 A 
ATOM      7  O   UNL d   1      13.849  12.051  -2.517  0.00  0.00    -0.302 OA
ATOM      8  C   UNL d   1      13.672  13.102  -3.465  0.00  0.00     0.063 A 
ATOM      9  C   UNL d   1      13.580  12.314  -3.248  0.00  0.00     0.103 A 
ATOM     10  O   UNL d   1      14.562  11.787  -0.809  0.00  0.00    -0.264 OA
ATOM     11  O   UNL d   1      14.125  14.423  -3.172  0.00  0.00    -0.286 OA
ATOM     12  C   UNL d   1      13.400  13.363  -4.202  0.00  0.00     0.017 A 
ATOM     13  C   UNL d   1      13.212  11.782  -3.774  0.00  0.00     0.026 A 
ATOM     14  C   UNL d   1      13.038  12.838  -4.719  0.00  0.00     0.058 A 
ATOM     15  C   UNL d   1      12.943  12.045  -4.504  0.00  0.00     0.013 A 
ATOM     16 CL   UNL d   1      12.769  13.097  -5.447  0.00  0.00    -0.082 Cl
ENDROOT
BRANCH   5  17
ATOM     17  C   UNL d   1      14.776  14.558  -1.813  0.00  0.00     0.017 A 
ATOM     18  C   UNL d   1      14.653  15.163  -1.263  0.00  0.00     0.008 A 
ATOM     19  C   UNL d   1      14.746  15.949  -1.484  0.00  0.00     0.035 A 
ATOM     20 BR   UNL d   1      14.623  16.547  -0.931  0.00  0.00    -0.049 Br
ATOM     21  C   UNL d   1      14.964  16.143  -2.263  0.00  0.00     0.007 A 
ATOM     22  C   UNL d   1      15.087  15.538  -2.814  0.00  0.00     0.001 A 
ATOM     23  C   UNL d   1      14.992  14.744  -2.587  0.00  0.00     0.002 A 
ENDBRANCH   5  17
BRANCH   3  24
ATOM     24  C   UNL d   1      15.193  13.379  -0.269  0.00  0.00     0.129 C 
BRANCH  24  25
ATOM     25  C   UNL d   1      15.819  12.909  -0.016  0.00  0.00     0.253 C 
ATOM     26  O   UNL d   1      16.594  13.161  -0.124  0.00  0.00    -0.281 OA
ENDBRANCH  24  25
ENDBRANCH   3  24
TORSDOF 3
ENDMDL
MODEL 2
REMARK VINA RESULT:      54.3      1.831      3.387
REMARK  3 active torsions:
REMARK  status: ('A' for Active; 'I' for Inactive)
REMARK    1  A    between atoms: C_16  and  N_3 
REMARK    2  A    between atoms: C_10  and  C_5 
REMARK    3  A    between atoms: C_26  and  C_16 
ROOT
ATOM      1  C   UNL d   1      14.313  13.968  -2.099  0.00  0.00     0.083 A 
ATOM      2  C   UNL d   1      14.685  14.014  -1.366  0.00  0.00     0.161 A 
ATOM      3  N   UNL d   1      14.208  12.771  -1.500  0.00  0.00    -0.268 N 
ATOM      4  C   UNL d   1      14.623  13.276  -0.991  0.00  0.00     0.288 A 
ATOM      5  C   UNL d   1      14.016  13.199  -2.186  0.00  0.00     0.072 A 
ATOM      6  C   UNL d   1      14.287  14.624  -2.597  0.00  0.00     0.201 A 
ATOM      7  O   UNL d   1      15.037  14.728  -1.127  0.00  0.00    -0.302 OA
ATOM      8  C   UNL d   1      14.638  15.332  -2.356  0.00  0.00     0.063 A 
ATOM      9  C   UNL d   1      15.011  15.381  -1.624  0.00  0.00     0.103 A 
ATOM     10  O   UNL d   1      14.917  13.080  -0.253  0.00  0.00    -0.264 OA
ATOM     11  O   UNL d   1      13.916  14.579  -3.330  0.00  0.00    -0.286 OA
ATOM     12  C   UNL d   1      14.614  15.992  -2.855  0.00  0.00     0.017 A 
ATOM     13  C   UNL d   1      15.363  16.100  -1.390  0.00  0.00     0.026 A 
ATOM     14  C   UNL d   1      14.961  16.699  -2.622  0.00  0.00     0.058 A 
ATOM     15  C   UNL d   1      15.337  16.753  -1.887  0.00  0.00     0.013 A 
ATOM     16 CL   UNL d   1      14.937  17.351  -3.115  0.00  0.00    -0.082 Cl
ENDROOT
BRANCH   5  17
ATOM     17  C   UNL d   1      13.644  13.150  -2.918  0.00  0.00     0.017 A 
ATOM     18  C   UNL d   1      13.753  12.487  -3.401  0.00  0.00     0.008 A 
ATOM     19  C   UNL d   1      13.379  12.441  -4.132  0.00  0.00     0.035 A 
ATOM     20 BR   UNL d   1      13.491  11.779  -4.608  0.00  0.00    -0.049 Br
ATOM     21  C   UNL d   1      12.887  13.061  -4.391  0.00  0.00     0.007 A 
ATOM     22  C   UNL d   1      12.778  13.724  -3.907  0.00  0.00     0.001 A 
ATOM     23  C   UNL d   1      13.158  13.766  -3.170  0.00  0.00     0.002 A 
ENDBRANCH   5  17
BRANCH   3  24
ATOM     24  C   UNL d   1      14.019  11.983  -1.354  0.00  0.00     0.129 C 
BRANCH  24  25
ATOM     25  C   UNL d   1      13.389  11.799  -0.857  0.00  0.00     0.253 C 
ATOM     26  O   UNL d   1      13.499  11.779  -0.043  0.00  0.00    -0.281 OA
ENDBRANCH  24  25
ENDBRANCH   3  24
TORSDOF 3
ENDMDL
MODEL 3
REMARK VINA RESULT:      54.8      2.012      3.482
REMARK  3 active torsions:
REMARK  status: ('A' for Active; 'I' for Inactive)
REMARK    1  A    between atoms: C_16  and  N_3 
REMARK    2  A    between atoms: C_10  and  C_5 
REMARK    3  A    between atoms: C_26  and  C_16 
ROOT
ATOM      1  C   UNL d   1      13.847  13.345  -3.176  0.00  0.00     0.083 A 
ATOM      2  C   UNL d   1      13.570  12.571  -3.204  0.00  0.00     0.161 A 
ATOM      3  N   UNL d   1      13.155  13.187  -4.316  0.00  0.00    -0.268 N 
ATOM      4  C   UNL d   1      13.141  12.468  -3.907  0.00  0.00     0.288 A 
ATOM      5  C   UNL d   1      13.592  13.731  -3.864  0.00  0.00     0.072 A 
ATOM      6  C   UNL d   1      14.295  13.607  -2.536  0.00  0.00     0.201 A 
ATOM      7  O   UNL d   1      13.744  12.049  -2.580  0.00  0.00    -0.302 OA
ATOM      8  C   UNL d   1      14.465  13.086  -1.919  0.00  0.00     0.063 A 
ATOM      9  C   UNL d   1      14.190  12.311  -1.943  0.00  0.00     0.103 A 
ATOM     10  O   UNL d   1      12.770  11.781  -4.154  0.00  0.00    -0.264 OA
ATOM     11  O   UNL d   1      14.572  14.381  -2.508  0.00  0.00    -0.286 OA
ATOM     12  C   UNL d   1      14.915  13.346  -1.274  0.00  0.00     0.017 A 
ATOM     13  C   UNL d   1      14.367  11.792  -1.315  0.00  0.00     0.026 A 
ATOM     14  C   UNL d   1      15.088  12.833  -0.657  0.00  0.00     0.058 A 
ATOM     15  C   UNL d   1      14.814  12.054  -0.677  0.00  0.00     0.013 A 
ATOM     16 CL   UNL d   1      15.533  13.092  -0.020  0.00  0.00    -0.082 Cl
ENDROOT
BRANCH   5  17
ATOM     17  C   UNL d   1      13.867  14.506  -3.840  0.00  0.00     0.017 A 
ATOM     18  C   UNL d   1      14.312  14.814  -4.465  0.00  0.00     0.008 A 
ATOM     19  C   UNL d   1      14.586  15.589  -4.438  0.00  0.00     0.035 A 
ATOM     20 BR   UNL d   1      15.028  15.889  -5.064  0.00  0.00    -0.049 Br
ATOM     21  C   UNL d   1      14.416  16.070  -3.780  0.00  0.00     0.007 A 
ATOM     22  C   UNL d   1      13.971  15.762  -3.154  0.00  0.00     0.001 A 
ATOM     23  C   UNL d   1      13.697  14.978  -3.186  0.00  0.00     0.002 A 
ENDBRANCH   5  17
BRANCH   3  24
ATOM     24  C   UNL d   1      12.799  13.340  -5.043  0.00  0.00     0.129 C 
BRANCH  24  25
ATOM     25  C   UNL d   1      13.150  13.069  -5.735  0.00  0.00     0.253 C 
ATOM     26  O   UNL d   1      12.769  12.505  -6.197  0.00  0.00    -0.281 OA
ENDBRANCH  24  25
ENDBRANCH   3  24
TORSDOF 3
ENDMDL
