MODEL 1
REMARK VINA RESULT:      31.1      0.000      0.000
REMARK  4 active torsions:
REMARK  status: ('A' for Active; 'I' for Inactive)
REMARK    1  A    between atoms: C_6  and  C_1 
REMARK    2  A    between atoms: S_7  and  C_3 
REMARK    3  A    between atoms: C_17  and  S_7 
REMARK    4  A    between atoms: C_18  and  C_17 
ROOT
ATOM      1  C   UNL d   1     -54.719-100.948 -38.416  0.00  0.00     0.087 A 
ATOM      2  N   UNL d   1     -54.713-100.687 -39.191  0.00  0.00    -0.245 NA
ATOM      3  C   UNL d   1     -54.726-101.774 -38.405  0.00  0.00     0.049 A 
ATOM      4  C   UNL d   1     -54.724-102.034 -39.179  0.00  0.00     0.025 A 
ATOM      5  C   UNL d   1     -54.716-101.363 -39.666  0.00  0.00     0.082 A 
ATOM      6  C   UNL d   1     -54.728-102.794 -39.495  0.00  0.00     0.002 A 
ATOM      7  C   UNL d   1     -54.713-101.439 -40.474  0.00  0.00     0.019 A 
ATOM      8  C   UNL d   1     -54.725-102.875 -40.318  0.00  0.00     0.000 A 
ATOM      9  C   UNL d   1     -54.717-102.201 -40.796  0.00  0.00     0.002 A 
ENDROOT
BRANCH   1  10
ATOM     10  C   UNL d   1     -54.719-100.501 -37.732  0.00  0.00     0.018 A 
ATOM     11  C   UNL d   1     -54.720 -99.668 -37.783  0.00  0.00     0.002 A 
ATOM     12  C   UNL d   1     -54.720 -99.212 -37.108  0.00  0.00     0.011 A 
ATOM     13  C   UNL d   1     -54.719 -99.588 -36.377  0.00  0.00     0.058 A 
ATOM     14  C   UNL d   1     -54.718-100.431 -36.339  0.00  0.00     0.011 A 
ATOM     15 CL   UNL d   1     -54.719 -99.130 -35.696  0.00  0.00    -0.082 Cl
ATOM     16  C   UNL d   1     -54.718-100.879 -37.006  0.00  0.00     0.002 A 
ENDBRANCH   1  10
BRANCH   3  17
ATOM     17  S   UNL d   1     -54.733-102.271 -37.742  0.00  0.00    -0.083 SA
BRANCH  17  18
ATOM     18  C   UNL d   1     -55.433-102.656 -37.495  0.00  0.00     0.058 C 
BRANCH  18  19
ATOM     19  C   UNL d   1     -55.573-102.831 -36.700  0.00  0.00     0.129 C 
ATOM     20  N   UNL d   1     -54.982-102.742 -36.128  0.00  0.00    -0.146 N 
ENDBRANCH  18  19
ENDBRANCH  17  18
ENDBRANCH   3  17
TORSDOF 4
ENDMDL
