MODEL 1
REMARK VINA RESULT:      -2.6      0.000      0.000
REMARK  6 active torsions:
REMARK  status: ('A' for Active; 'I' for Inactive)
REMARK    1  A    between atoms: N_3  and  C_1 
REMARK    2  A    between atoms: S_2  and  C_9 
REMARK    3  A    between atoms: N_10  and  S_2 
REMARK       I    between atoms: C_8  and  N_3 
REMARK    4  A    between atoms: C_20  and  N_4 
REMARK    5  A    between atoms: C_13  and  C_8 
REMARK    6  A    between atoms: O_22  and  C_14 
ROOT
ATOM      1  N   UNL d   1      32.443  18.981 -22.986  0.00  0.00    -0.184 NA
ATOM      2  C   UNL d   1      32.829  19.229 -22.292  0.00  0.00     0.281 C 
ATOM      3  O   UNL d   1      33.241  18.681 -21.835  0.00  0.00    -0.265 OA
ENDROOT
BRANCH   1   4
ATOM      4  C   UNL d   1      32.478  18.180 -23.213  0.00  0.00     0.182 A 
ATOM      5  N   UNL d   1      32.000  17.823 -23.772  0.00  0.00    -0.283 N 
ATOM      6  C   UNL d   1      32.212  17.029 -23.831  0.00  0.00     0.094 A 
ATOM      7  C   UNL d   1      31.920  16.403 -24.305  0.00  0.00     0.111 A 
ATOM      8  C   UNL d   1      32.824  16.889 -23.307  0.00  0.00     0.050 A 
ATOM      9  C   UNL d   1      32.253  15.658 -24.235  0.00  0.00     0.026 A 
ATOM     10  C   UNL d   1      32.868  15.510 -23.711  0.00  0.00     0.003 A 
ATOM     11  C   UNL d   1      33.155  16.131 -23.243  0.00  0.00     0.008 A 
ATOM     12  S   UNL d   1      32.996  17.596 -22.919  0.00  0.00    -0.048 SA
BRANCH   5  13
ATOM     13  C   UNL d   1      31.404  18.189 -24.208  0.00  0.00     0.082 C 
ATOM     14  C   UNL d   1      31.732  18.630 -24.819  0.00  0.00     0.021 C 
ENDBRANCH   5  13
BRANCH   7  15
ATOM     15  O   UNL d   1      31.312  16.540 -24.826  0.00  0.00    -0.327 OA
ATOM     16  C   UNL d   1      30.784  15.943 -25.010  0.00  0.00     0.181 C 
ENDBRANCH   7  15
ENDBRANCH   1   4
BRANCH   2  17
ATOM     17  C   UNL d   1      32.797  20.024 -22.063  0.00  0.00     0.058 A 
ATOM     18  C   UNL d   1      33.224  20.584 -22.487  0.00  0.00     0.005 A 
ATOM     19  C   UNL d   1      33.197  21.378 -22.263  0.00  0.00     0.013 A 
ATOM     20  C   UNL d   1      32.737  21.607 -21.611  0.00  0.00     0.104 A 
ATOM     21  C   UNL d   1      32.308  21.032 -21.189  0.00  0.00     0.013 A 
ATOM     22  C   UNL d   1      32.335  20.238 -21.412  0.00  0.00     0.005 A 
BRANCH  20  23
ATOM     23  S   UNL d   1      32.707  22.399 -21.385  0.00  0.00     0.271 S 
ATOM     24  O   UNL d   1      32.798  22.592 -22.191  0.00  0.00    -0.200 OA
ATOM     25  O   UNL d   1      32.617  22.205 -20.595  0.00  0.00    -0.200 OA
BRANCH  23  26
ATOM     26  N   UNL d   1      32.677  23.190 -21.164  0.00  0.00    -0.226 N 
ATOM     27  C   UNL d   1      32.135  23.702 -21.532  0.00  0.00     0.111 C 
ATOM     28  C   UNL d   1      33.171  23.490 -20.587  0.00  0.00     0.111 C 
ENDBRANCH  23  26
ENDBRANCH  20  23
ENDBRANCH   2  17
TORSDOF 6
ENDMDL
MODEL 2
REMARK VINA RESULT:      -1.8      1.291      5.812
REMARK  6 active torsions:
REMARK  status: ('A' for Active; 'I' for Inactive)
REMARK    1  A    between atoms: N_3  and  C_1 
REMARK    2  A    between atoms: S_2  and  C_9 
REMARK    3  A    between atoms: N_10  and  S_2 
REMARK       I    between atoms: C_8  and  N_3 
REMARK    4  A    between atoms: C_20  and  N_4 
REMARK    5  A    between atoms: C_13  and  C_8 
REMARK    6  A    between atoms: O_22  and  C_14 
ROOT
ATOM      1  N   UNL d   1      32.883  20.163 -22.515  0.00  0.00    -0.184 NA
ATOM      2  C   UNL d   1      33.022  19.879 -23.284  0.00  0.00     0.281 C 
ATOM      3  O   UNL d   1      33.241  20.403 -23.880  0.00  0.00    -0.265 OA
ENDROOT
BRANCH   1   4
ATOM      4  C   UNL d   1      32.967  20.977 -22.355  0.00  0.00     0.182 A 
ATOM      5  N   UNL d   1      33.017  21.313 -21.612  0.00  0.00    -0.283 N 
ATOM      6  C   UNL d   1      33.096  22.129 -21.695  0.00  0.00     0.094 A 
ATOM      7  C   UNL d   1      33.170  22.747 -21.135  0.00  0.00     0.111 A 
ATOM      8  C   UNL d   1      33.095  22.304 -22.495  0.00  0.00     0.050 A 
ATOM      9  C   UNL d   1      33.240  23.520 -21.399  0.00  0.00     0.026 A 
ATOM     10  C   UNL d   1      33.240  23.702 -22.199  0.00  0.00     0.003 A 
ATOM     11  C   UNL d   1      33.167  23.089 -22.751  0.00  0.00     0.008 A 
ATOM     12  S   UNL d   1      33.016  21.596 -22.912  0.00  0.00    -0.048 SA
BRANCH   5  13
ATOM     13  C   UNL d   1      32.994  20.910 -20.893  0.00  0.00     0.082 C 
ATOM     14  C   UNL d   1      32.228  20.653 -20.738  0.00  0.00     0.021 C 
ENDBRANCH   5  13
BRANCH   7  15
ATOM     15  O   UNL d   1      33.171  22.575 -20.341  0.00  0.00    -0.327 OA
ATOM     16  C   UNL d   1      33.222  23.176 -19.790  0.00  0.00     0.181 C 
ENDBRANCH   7  15
ENDBRANCH   1   4
BRANCH   2  17
ATOM     17  C   UNL d   1      32.939  19.071 -23.447  0.00  0.00     0.058 A 
ATOM     18  C   UNL d   1      32.844  18.823 -24.225  0.00  0.00     0.005 A 
ATOM     19  C   UNL d   1      32.761  18.020 -24.393  0.00  0.00     0.013 A 
ATOM     20  C   UNL d   1      32.775  17.465 -23.776  0.00  0.00     0.104 A 
ATOM     21  C   UNL d   1      32.872  17.727 -22.991  0.00  0.00     0.013 A 
ATOM     22  C   UNL d   1      32.955  18.530 -22.822  0.00  0.00     0.005 A 
BRANCH  20  23
ATOM     23  S   UNL d   1      32.693  16.662 -23.940  0.00  0.00     0.271 S 
ATOM     24  O   UNL d   1      33.206  16.782 -24.587  0.00  0.00    -0.200 OA
ATOM     25  O   UNL d   1      32.190  16.549 -23.305  0.00  0.00    -0.200 OA
BRANCH  23  26
ATOM     26  N   UNL d   1      32.614  15.861 -24.109  0.00  0.00    -0.226 N 
ATOM     27  C   UNL d   1      33.239  15.453 -24.473  0.00  0.00     0.111 C 
ATOM     28  C   UNL d   1      31.931  15.453 -23.926  0.00  0.00     0.111 C 
ENDBRANCH  23  26
ENDBRANCH  20  23
ENDBRANCH   2  17
TORSDOF 6
ENDMDL
