MODEL 1
REMARK VINA RESULT:      35.1      0.000      0.000
REMARK  3 active torsions:
REMARK  status: ('A' for Active; 'I' for Inactive)
REMARK    1  A    between atoms: N_7  and  C_1 
REMARK    2  A    between atoms: C_11  and  N_3 
REMARK       I    between atoms: C_9  and  N_7 
REMARK    3  A    between atoms: C_12  and  C_9 
ROOT
ATOM      1  C   UNL d   1      13.790  13.181  -3.415  0.00  0.00     0.165 A 
ATOM      2  C   UNL d   1      13.947  13.929  -3.276  0.00  0.00     0.067 A 
ATOM      3  N   UNL d   1      13.462  13.133  -4.119  0.00  0.00    -0.238 N 
ATOM      4  C   UNL d   1      13.714  14.348  -3.899  0.00  0.00     0.116 A 
ATOM      5  N   UNL d   1      13.415  13.854  -4.416  0.00  0.00    -0.168 NA
ATOM      6  S   UNL d   1      14.203  15.140  -3.047  0.00  0.00     0.213 S 
ATOM      7  C   UNL d   1      13.873  15.093  -3.754  0.00  0.00     0.120 A 
ATOM      8  C   UNL d   1      14.248  14.420  -2.753  0.00  0.00     0.103 A 
ATOM      9  O   UNL d   1      14.123  15.822  -3.407  0.00  0.00    -0.217 OA
ATOM     10  O   UNL d   1      14.482  15.128  -2.434  0.00  0.00    -0.217 OA
ENDROOT
BRANCH   1  11
ATOM     11  N   UNL d   1      14.047  12.964  -2.794  0.00  0.00    -0.189 NA
ATOM     12  C   UNL d   1      13.814  12.252  -2.121  0.00  0.00     0.281 C 
ATOM     13  O   UNL d   1      13.223  11.780  -2.228  0.00  0.00    -0.265 OA
BRANCH  12  14
ATOM     14  C   UNL d   1      14.270  12.177  -1.441  0.00  0.00     0.058 A 
ATOM     15  C   UNL d   1      13.896  12.002  -0.705  0.00  0.00     0.005 A 
ATOM     16  C   UNL d   1      13.076  11.906  -0.664  0.00  0.00     0.000 C 
ATOM     17  C   UNL d   1      14.360  11.926  -0.016  0.00  0.00     0.000 A 
ATOM     18  C   UNL d   1      15.192  12.024  -0.063  0.00  0.00     0.000 A 
ATOM     19  C   UNL d   1      15.547  12.196  -0.793  0.00  0.00     0.000 A 
ATOM     20  C   UNL d   1      15.086  12.273  -1.484  0.00  0.00     0.005 A 
ENDBRANCH  12  14
ENDBRANCH   1  11
BRANCH   3  21
ATOM     21  C   UNL d   1      13.203  12.434  -4.492  0.00  0.00     0.088 C 
ATOM     22  C   UNL d   1      13.334  12.209  -5.285  0.00  0.00     0.025 C 
ATOM     23  C   UNL d   1      12.775  11.942  -3.981  0.00  0.00     0.025 C 
ATOM     24  C   UNL d   1      12.999  11.783  -4.955  0.00  0.00     0.025 C 
ENDBRANCH   3  21
TORSDOF 3
ENDMDL
MODEL 2
REMARK VINA RESULT:      37.2      1.669      3.468
REMARK  3 active torsions:
REMARK  status: ('A' for Active; 'I' for Inactive)
REMARK    1  A    between atoms: N_7  and  C_1 
REMARK    2  A    between atoms: C_11  and  N_3 
REMARK       I    between atoms: C_9  and  N_7 
REMARK    3  A    between atoms: C_12  and  C_9 
ROOT
ATOM      1  C   UNL d   1      14.244  12.963  -1.857  0.00  0.00     0.165 A 
ATOM      2  C   UNL d   1      13.948  12.942  -2.576  0.00  0.00     0.067 A 
ATOM      3  N   UNL d   1      14.198  12.245  -1.560  0.00  0.00    -0.238 N 
ATOM      4  C   UNL d   1      13.718  12.206  -2.725  0.00  0.00     0.116 A 
ATOM      5  N   UNL d   1      13.874  11.779  -2.096  0.00  0.00    -0.168 NA
ATOM      6  S   UNL d   1      13.471  12.912  -3.740  0.00  0.00     0.213 S 
ATOM      7  C   UNL d   1      13.425  12.191  -3.443  0.00  0.00     0.120 A 
ATOM      8  C   UNL d   1      13.795  13.375  -3.204  0.00  0.00     0.103 A 
ATOM      9  O   UNL d   1      13.157  12.390  -4.219  0.00  0.00    -0.217 OA
ATOM     10  O   UNL d   1      13.533  13.549  -3.952  0.00  0.00    -0.217 OA
ENDROOT
BRANCH   1  11
ATOM     11  N   UNL d   1      14.390  13.653  -1.888  0.00  0.00    -0.189 NA
ATOM     12  C   UNL d   1      14.665  14.366  -1.233  0.00  0.00     0.281 C 
ATOM     13  O   UNL d   1      14.763  14.211  -0.492  0.00  0.00    -0.265 OA
BRANCH  12  14
ATOM     14  C   UNL d   1      14.787  15.134  -1.501  0.00  0.00     0.058 A 
ATOM     15  C   UNL d   1      15.135  15.706  -0.987  0.00  0.00     0.005 A 
ATOM     16  C   UNL d   1      15.353  15.499  -0.218  0.00  0.00     0.000 C 
ATOM     17  C   UNL d   1      15.257  16.484  -1.261  0.00  0.00     0.000 A 
ATOM     18  C   UNL d   1      15.033  16.689  -2.044  0.00  0.00     0.000 A 
ATOM     19  C   UNL d   1      14.693  16.117  -2.538  0.00  0.00     0.000 A 
ATOM     20  C   UNL d   1      14.569  15.338  -2.268  0.00  0.00     0.005 A 
ENDBRANCH  12  14
ENDBRANCH   1  11
BRANCH   3  21
ATOM     21  C   UNL d   1      14.451  12.013  -0.801  0.00  0.00     0.088 C 
ATOM     22  C   UNL d   1      13.996  11.998  -0.101  0.00  0.00     0.025 C 
ATOM     23  C   UNL d   1      15.246  11.781  -0.789  0.00  0.00     0.025 C 
ATOM     24  C   UNL d   1      14.595  11.807  -0.015  0.00  0.00     0.025 C 
ENDBRANCH   3  21
TORSDOF 3
ENDMDL
