MODEL 1
REMARK VINA RESULT:      30.7      0.000      0.000
REMARK  3 active torsions:
REMARK  status: ('A' for Active; 'I' for Inactive)
REMARK    1  A    between atoms: O_10  and  C_9 
REMARK    2  A    between atoms: C_13  and  O_10 
REMARK    3  A    between atoms: C_12  and  C_13 
ROOT
ATOM      1  C   UNL d   1     -55.071-101.279 -44.582  0.00  0.00     0.066 A 
ATOM      2  O   UNL d   1     -54.884-102.279 -43.712  0.00  0.00    -0.302 OA
ATOM      3  C   UNL d   1     -54.828-101.946 -45.006  0.00  0.00     0.222 A 
ATOM      4  C   UNL d   1     -55.104-101.490 -43.785  0.00  0.00     0.103 A 
ATOM      5  C   UNL d   1     -55.265-100.517 -44.807  0.00  0.00     0.030 A 
ATOM      6  C   UNL d   1     -54.713-102.561 -44.469  0.00  0.00     0.165 A 
ATOM      7  O   UNL d   1     -54.721-101.981 -45.826  0.00  0.00    -0.284 OA
ATOM      8  C   UNL d   1     -55.330-100.938 -43.222  0.00  0.00     0.027 A 
ATOM      9  C   UNL d   1     -55.492 -99.963 -44.240  0.00  0.00     0.100 A 
ATOM     10  C   UNL d   1     -55.525-100.177 -43.444  0.00  0.00     0.027 A 
ENDROOT
BRANCH   9  11
ATOM     11  O   UNL d   1     -55.689 -99.190 -44.471  0.00  0.00    -0.305 OA
BRANCH  11  12
ATOM     12  C   UNL d   1     -56.240 -98.756 -44.040  0.00  0.00     0.122 C 
BRANCH  12  13
ATOM     13  C   UNL d   1     -57.033 -98.756 -44.282  0.00  0.00     0.025 A 
ATOM     14  C   UNL d   1     -57.209 -98.756 -45.090  0.00  0.00     0.004 A 
ATOM     15  C   UNL d   1     -57.994 -98.756 -45.334  0.00  0.00     0.030 A 
ATOM     16  C   UNL d   1     -58.605 -98.757 -44.769  0.00  0.00     0.140 A 
ATOM     17  C   UNL d   1     -58.424 -98.758 -43.966  0.00  0.00     0.030 A 
ATOM     18  F   UNL d   1     -59.390 -98.758 -45.020  0.00  0.00    -0.204 F 
ATOM     19  C   UNL d   1     -57.639 -98.758 -43.721  0.00  0.00     0.004 A 
ENDBRANCH  12  13
ENDBRANCH  11  12
ENDBRANCH   9  11
TORSDOF 3
ENDMDL
MODEL 2
REMARK VINA RESULT:      32.9      2.731      4.477
REMARK  3 active torsions:
REMARK  status: ('A' for Active; 'I' for Inactive)
REMARK    1  A    between atoms: O_10  and  C_9 
REMARK    2  A    between atoms: C_13  and  O_10 
REMARK    3  A    between atoms: C_12  and  C_13 
ROOT
ATOM      1  C   UNL d   1     -55.354-100.222 -43.922  0.00  0.00     0.066 A 
ATOM      2  O   UNL d   1     -55.206-100.042 -45.239  0.00  0.00    -0.302 OA
ATOM      3  C   UNL d   1     -55.640 -99.470 -44.112  0.00  0.00     0.222 A 
ATOM      4  C   UNL d   1     -55.088-100.571 -44.620  0.00  0.00     0.103 A 
ATOM      5  C   UNL d   1     -55.300-100.635 -43.217  0.00  0.00     0.030 A 
ATOM      6  C   UNL d   1     -55.548 -99.361 -44.924  0.00  0.00     0.165 A 
ATOM      7  O   UNL d   1     -55.961 -98.928 -43.574  0.00  0.00    -0.284 OA
ATOM      8  C   UNL d   1     -54.770-101.326 -44.608  0.00  0.00     0.027 A 
ATOM      9  C   UNL d   1     -54.980-101.395 -43.207  0.00  0.00     0.100 A 
ATOM     10  C   UNL d   1     -54.714-101.741 -43.907  0.00  0.00     0.027 A 
ENDROOT
BRANCH   9  11
ATOM     11  O   UNL d   1     -54.925-101.812 -42.491  0.00  0.00    -0.305 OA
BRANCH  11  12
ATOM     12  C   UNL d   1     -54.748-101.415 -41.792  0.00  0.00     0.122 C 
BRANCH  12  13
ATOM     13  C   UNL d   1     -54.917-101.778 -41.066  0.00  0.00     0.025 A 
ATOM     14  C   UNL d   1     -54.719-101.389 -40.363  0.00  0.00     0.004 A 
ATOM     15  C   UNL d   1     -54.885-101.746 -39.642  0.00  0.00     0.030 A 
ATOM     16  C   UNL d   1     -55.251-102.494 -39.622  0.00  0.00     0.140 A 
ATOM     17  C   UNL d   1     -55.446-102.876 -40.325  0.00  0.00     0.030 A 
ATOM     18  F   UNL d   1     -55.415-102.847 -38.896  0.00  0.00    -0.204 F 
ATOM     19  C   UNL d   1     -55.279-102.519 -41.047  0.00  0.00     0.004 A 
ENDBRANCH  12  13
ENDBRANCH  11  12
ENDBRANCH   9  11
TORSDOF 3
ENDMDL
