MODEL 1
REMARK VINA RESULT:      -4.5      0.000      0.000
REMARK  4 active torsions:
REMARK  status: ('A' for Active; 'I' for Inactive)
REMARK    1  A    between atoms: C_3  and  C_1 
REMARK       I    between atoms: N_6  and  C_3 
REMARK    2  A    between atoms: C_12  and  N_5 
REMARK    3  A    between atoms: C_8  and  N_6 
REMARK    4  A    between atoms: S_11  and  C_10 
ROOT
ATOM      1  C   UNL d   1     -41.411-122.067 -51.947  0.00  0.00     0.348 C 
ATOM      2  N   UNL d   1     -41.582-122.615 -51.343  0.00  0.00    -0.363 NA
ATOM      3  O   UNL d   1     -41.129-121.287 -51.748  0.00  0.00    -0.249 OA
ENDROOT
BRANCH   1   4
ATOM      4  C   UNL d   1     -41.521-122.291 -52.745  0.00  0.00     0.173 A 
ATOM      5  N   UNL d   1     -41.975-121.879 -53.309  0.00  0.00    -0.159 NA
ATOM      6  N   UNL d   1     -41.925-122.304 -54.023  0.00  0.00    -0.227 N 
ATOM      7  C   UNL d   1     -41.448-122.964 -53.898  0.00  0.00     0.102 A 
ATOM      8  C   UNL d   1     -41.196-122.960 -53.109  0.00  0.00     0.048 A 
BRANCH   6   9
ATOM      9  C   UNL d   1     -42.292-122.096 -54.735  0.00  0.00     0.101 C 
ATOM     10  C   UNL d   1     -42.031-121.958 -55.505  0.00  0.00     0.022 C 
ENDBRANCH   6   9
ENDBRANCH   1   4
BRANCH   2  11
ATOM     11  C   UNL d   1     -41.685-122.994 -50.539  0.00  0.00     0.141 A 
ATOM     12  C   UNL d   1     -42.375-122.831 -50.126  0.00  0.00     0.055 A 
ATOM     13  C   UNL d   1     -42.489-123.160 -49.400  0.00  0.00     0.009 A 
ATOM     14  C   UNL d   1     -41.914-123.658 -49.076  0.00  0.00     0.001 A 
ATOM     15  C   UNL d   1     -41.234-123.815 -49.492  0.00  0.00     0.003 A 
ATOM     16  C   UNL d   1     -41.123-123.477 -50.229  0.00  0.00     0.033 A 
BRANCH  12  17
ATOM     17  S   UNL d   1     -42.955-122.332 -50.445  0.00  0.00    -0.110 SA
ATOM     18  C   UNL d   1     -43.675-122.197 -50.047  0.00  0.00     0.074 C 
ENDBRANCH  12  17
ENDBRANCH   2  11
TORSDOF 4
ENDMDL
MODEL 2
REMARK VINA RESULT:      -3.9      1.158      3.964
REMARK  4 active torsions:
REMARK  status: ('A' for Active; 'I' for Inactive)
REMARK    1  A    between atoms: C_3  and  C_1 
REMARK       I    between atoms: N_6  and  C_3 
REMARK    2  A    between atoms: C_12  and  N_5 
REMARK    3  A    between atoms: C_8  and  N_6 
REMARK    4  A    between atoms: S_11  and  C_10 
ROOT
ATOM      1  C   UNL d   1     -41.417-122.130 -51.983  0.00  0.00     0.348 C 
ATOM      2  N   UNL d   1     -41.508-122.606 -52.662  0.00  0.00    -0.363 NA
ATOM      3  O   UNL d   1     -41.123-121.334 -52.056  0.00  0.00    -0.249 OA
ENDROOT
BRANCH   1   4
ATOM      4  C   UNL d   1     -41.617-122.445 -51.235  0.00  0.00     0.173 A 
ATOM      5  N   UNL d   1     -42.338-122.327 -50.834  0.00  0.00    -0.159 NA
ATOM      6  N   UNL d   1     -42.290-122.743 -50.115  0.00  0.00    -0.227 N 
ATOM      7  C   UNL d   1     -41.554-123.109 -50.076  0.00  0.00     0.102 A 
ATOM      8  C   UNL d   1     -41.134-122.928 -50.767  0.00  0.00     0.048 A 
BRANCH   6   9
ATOM      9  C   UNL d   1     -42.884-122.780 -49.539  0.00  0.00     0.101 C 
ATOM     10  C   UNL d   1     -42.892-122.832 -48.715  0.00  0.00     0.022 C 
ENDBRANCH   6   9
ENDBRANCH   1   4
BRANCH   2  11
ATOM     11  C   UNL d   1     -41.509-122.888 -53.511  0.00  0.00     0.141 A 
ATOM     12  C   UNL d   1     -41.921-122.440 -54.062  0.00  0.00     0.055 A 
ATOM     13  C   UNL d   1     -41.936-122.676 -54.832  0.00  0.00     0.009 A 
ATOM     14  C   UNL d   1     -41.540-123.364 -55.063  0.00  0.00     0.001 A 
ATOM     15  C   UNL d   1     -41.135-123.802 -54.511  0.00  0.00     0.003 A 
ATOM     16  C   UNL d   1     -41.123-123.557 -53.730  0.00  0.00     0.033 A 
BRANCH  12  17
ATOM     17  S   UNL d   1     -42.321-121.749 -53.837  0.00  0.00    -0.110 SA
ATOM     18  C   UNL d   1     -42.741-121.293 -54.393  0.00  0.00     0.074 C 
ENDBRANCH  12  17
ENDBRANCH   2  11
TORSDOF 4
ENDMDL
