MODEL 1
REMARK VINA RESULT:     114.4      0.000      0.000
REMARK  5 active torsions:
REMARK  status: ('A' for Active; 'I' for Inactive)
REMARK    1  A    between atoms: C_20  and  N_1 
REMARK       I    between atoms: C_6  and  N_7 
REMARK    2  A    between atoms: C_10  and  C_6 
REMARK    3  A    between atoms: N_7  and  C_8 
REMARK    4  A    between atoms: O_22  and  C_13 
REMARK    5  A    between atoms: O_23  and  C_16 
ROOT
ATOM      1  N   UNL d   1      62.219  43.143  50.952  0.00  0.00    -0.273 N 
ATOM      2  C   UNL d   1      62.524  43.124  49.970  0.00  0.00     0.265 A 
ATOM      3  C   UNL d   1      61.783  43.909  50.989  0.00  0.00     0.067 A 
ATOM      4  C   UNL d   1      61.792  44.267  50.293  0.00  0.00     0.022 A 
ATOM      5  C   UNL d   1      62.183  43.904  49.661  0.00  0.00     0.058 A 
ATOM      6  C   UNL d   1      61.042  45.343  50.802  0.00  0.00     0.085 A 
ATOM      7  C   UNL d   1      61.424  44.980  50.198  0.00  0.00     0.019 A 
ATOM      8  C   UNL d   1      61.379  44.285  51.643  0.00  0.00     0.019 A 
ATOM      9  O   UNL d   1      62.946  42.546  49.630  0.00  0.00    -0.267 OA
ATOM     10  C   UNL d   1      61.028  44.973  51.538  0.00  0.00     0.021 A 
ATOM     11  C   UNL d   1      62.193  44.272  48.942  0.00  0.00     0.005 A 
ATOM     12  C   UNL d   1      61.433  45.364  49.456  0.00  0.00     0.002 A 
ATOM     13  C   UNL d   1      61.818  45.006  48.834  0.00  0.00     0.000 A 
ENDROOT
BRANCH   6  14
ATOM     14  N   UNL d   1      60.659  46.083  50.710  0.00  0.00    -0.208 NA
ATOM     15  C   UNL d   1      60.963  46.726  51.109  0.00  0.00     0.279 C 
ATOM     16  O   UNL d   1      61.610  46.664  51.579  0.00  0.00    -0.265 OA
BRANCH  15  17
ATOM     17  C   UNL d   1      60.606  47.431  51.027  0.00  0.00     0.060 A 
ATOM     18  C   UNL d   1      61.035  48.046  51.200  0.00  0.00     0.031 A 
ATOM     19  C   UNL d   1      60.659  48.849  51.117  0.00  0.00     0.116 A 
ATOM     20  C   UNL d   1      59.869  48.903  50.859  0.00  0.00     0.116 A 
ATOM     21  C   UNL d   1      59.450  48.226  50.686  0.00  0.00     0.026 A 
ATOM     22  C   UNL d   1      59.822  47.480  50.771  0.00  0.00     0.007 A 
BRANCH  19  23
ATOM     23  O   UNL d   1      61.054  49.513  51.281  0.00  0.00    -0.326 OA
ATOM     24  C   UNL d   1      61.423  49.595  52.007  0.00  0.00     0.181 C 
ENDBRANCH  19  23
BRANCH  20  25
ATOM     25  O   UNL d   1      59.502  49.648  50.776  0.00  0.00    -0.326 OA
ATOM     26  C   UNL d   1      58.677  49.706  50.813  0.00  0.00     0.181 C 
ENDBRANCH  20  25
ENDBRANCH  15  17
ENDBRANCH   6  14
BRANCH   1  27
ATOM     27  C   UNL d   1      62.166  42.762  51.837  0.00  0.00     0.083 C 
ATOM     28  C   UNL d   1      62.293  41.972  51.941  0.00  0.00     0.021 C 
ENDBRANCH   1  27
TORSDOF 5
ENDMDL
