MODEL 1
REMARK VINA RESULT:      41.8      0.000      0.000
REMARK  3 active torsions:
REMARK  status: ('A' for Active; 'I' for Inactive)
REMARK    1  A    between atoms: C_7  and  C_1 
REMARK    2  A    between atoms: C_13  and  C_7 
REMARK    3  A    between atoms: N_12  and  C_11 
ROOT
ATOM      1  C   UNL d   1     -51.437  26.376  33.306  0.00  0.00     0.010 C 
ENDROOT
BRANCH   1   2
ATOM      2  C   UNL d   1     -51.615  25.598  33.390  0.00  0.00     0.116 A 
ATOM      3  C   UNL d   1     -52.397  25.351  33.475  0.00  0.00     0.288 A 
ATOM      4  N   UNL d   1     -52.590  24.557  33.562  0.00  0.00    -0.152 NA
ATOM      5  O   UNL d   1     -53.001  25.916  33.473  0.00  0.00    -0.265 OA
ATOM      6  C   UNL d   1     -51.996  24.001  33.563  0.00  0.00     0.374 A 
ATOM      7  N   UNL d   1     -51.210  24.220  33.480  0.00  0.00    -0.152 NA
ATOM      8  O   UNL d   1     -52.199  23.191  33.652  0.00  0.00    -0.242 OA
ATOM      9  C   UNL d   1     -51.026  25.016  33.394  0.00  0.00     0.288 A 
ATOM     10  O   UNL d   1     -50.229  25.245  33.310  0.00  0.00    -0.265 OA
ENDBRANCH   1   2
BRANCH   1  11
ATOM     11  C   UNL d   1     -50.825  26.712  33.749  0.00  0.00     0.000 A 
ATOM     12  C   UNL d   1     -50.881  26.751  34.549  0.00  0.00     0.002 A 
ATOM     13  C   UNL d   1     -50.295  27.075  35.001  0.00  0.00     0.018 A 
ATOM     14  C   UNL d   1     -49.625  27.369  34.618  0.00  0.00     0.064 A 
ATOM     15  C   UNL d   1     -49.561  27.332  33.793  0.00  0.00     0.018 A 
ATOM     16  C   UNL d   1     -50.159  27.004  33.360  0.00  0.00     0.002 A 
BRANCH  14  17
ATOM     17  N   UNL d   1     -49.020  27.702  35.075  0.00  0.00    -0.301 N 
ATOM     18  C   UNL d   1     -49.204  28.252  35.649  0.00  0.00     0.100 C 
ATOM     19  C   UNL d   1     -48.239  27.465  34.934  0.00  0.00     0.100 C 
ENDBRANCH  14  17
ENDBRANCH   1  11
TORSDOF 3
ENDMDL
MODEL 2
REMARK VINA RESULT:      43.9      5.211      6.961
REMARK  3 active torsions:
REMARK  status: ('A' for Active; 'I' for Inactive)
REMARK    1  A    between atoms: C_7  and  C_1 
REMARK    2  A    between atoms: C_13  and  C_7 
REMARK    3  A    between atoms: N_12  and  C_11 
ROOT
ATOM      1  C   UNL d   1     -46.844  31.652  35.031  0.00  0.00     0.010 C 
ENDROOT
BRANCH   1   2
ATOM      2  C   UNL d   1     -47.312  32.146  34.605  0.00  0.00     0.116 A 
ATOM      3  C   UNL d   1     -47.928  32.558  34.967  0.00  0.00     0.288 A 
ATOM      4  N   UNL d   1     -48.413  33.067  34.540  0.00  0.00    -0.152 NA
ATOM      5  O   UNL d   1     -48.061  32.457  35.777  0.00  0.00    -0.265 OA
ATOM      6  C   UNL d   1     -48.283  33.167  33.744  0.00  0.00     0.374 A 
ATOM      7  N   UNL d   1     -47.676  32.769  33.360  0.00  0.00    -0.152 NA
ATOM      8  O   UNL d   1     -48.781  33.687  33.313  0.00  0.00    -0.242 OA
ATOM      9  C   UNL d   1     -47.196  32.263  33.794  0.00  0.00     0.288 A 
ATOM     10  O   UNL d   1     -46.579  31.855  33.410  0.00  0.00    -0.265 OA
ENDBRANCH   1   2
BRANCH   1  11
ATOM     11  C   UNL d   1     -47.125  30.908  35.257  0.00  0.00     0.000 A 
ATOM     12  C   UNL d   1     -47.520  30.449  34.730  0.00  0.00     0.002 A 
ATOM     13  C   UNL d   1     -47.803  29.719  34.931  0.00  0.00     0.018 A 
ATOM     14  C   UNL d   1     -47.676  29.450  35.701  0.00  0.00     0.064 A 
ATOM     15  C   UNL d   1     -47.270  29.919  36.250  0.00  0.00     0.018 A 
ATOM     16  C   UNL d   1     -46.995  30.646  36.029  0.00  0.00     0.002 A 
BRANCH  14  17
ATOM     17  N   UNL d   1     -47.964  28.703  35.913  0.00  0.00    -0.301 N 
ATOM     18  C   UNL d   1     -47.808  28.060  35.436  0.00  0.00     0.100 C 
ATOM     19  C   UNL d   1     -48.405  28.631  36.611  0.00  0.00     0.100 C 
ENDBRANCH  14  17
ENDBRANCH   1  11
TORSDOF 3
ENDMDL
