MODEL 1
REMARK VINA RESULT:      16.2      0.000      0.000
REMARK  1 active torsions:
REMARK  status: ('A' for Active; 'I' for Inactive)
REMARK       I    between atoms: C_2  and  N_1 
REMARK    1  A    between atoms: C_4  and  C_2 
ROOT
ATOM      1  N   UNL d   1      58.451  49.699  50.338  0.00  0.00    -0.272 N 
ATOM      2  C   UNL d   1      58.911  49.698  51.026  0.00  0.00     0.287 C 
ATOM      3  C   UNL d   1      57.625  49.698  50.299  0.00  0.00     0.067 A 
ATOM      4  C   UNL d   1      58.750  49.703  49.587  0.00  0.00     0.083 A 
ATOM      5  O   UNL d   1      58.543  49.694  51.765  0.00  0.00    -0.264 OA
ATOM      6  C   UNL d   1      57.406  49.701  49.511  0.00  0.00     0.018 A 
ATOM      7  C   UNL d   1      58.100  49.704  49.060  0.00  0.00     0.021 A 
ATOM      8  C   UNL d   1      57.049  49.695  50.876  0.00  0.00     0.018 A 
ATOM      9  C   UNL d   1      56.611  49.700  49.290  0.00  0.00     0.002 A 
ATOM     10  C   UNL d   1      56.250  49.694  50.671  0.00  0.00     0.002 A 
ATOM     11  C   UNL d   1      56.033  49.697  49.877  0.00  0.00     0.000 A 
ENDROOT
BRANCH   2  12
ATOM     12  C   UNL d   1      59.738  49.699  50.973  0.00  0.00     0.156 A 
ATOM     13  O   UNL d   1      60.262  49.696  50.331  0.00  0.00    -0.300 OA
ATOM     14  C   UNL d   1      61.024  49.700  50.626  0.00  0.00     0.123 A 
ATOM     15  C   UNL d   1      60.989  49.706  51.442  0.00  0.00     0.029 A 
ATOM     16  C   UNL d   1      60.197  49.706  51.665  0.00  0.00     0.032 A 
ENDBRANCH   2  12
TORSDOF 1
ENDMDL
