MODEL 1
REMARK VINA RESULT:     140.4      0.000      0.000
REMARK  6 active torsions:
REMARK  status: ('A' for Active; 'I' for Inactive)
REMARK    1  A    between atoms: C_6  and  C_1 
REMARK    2  A    between atoms: N_4  and  C_2 
REMARK       I    between atoms: C_8  and  N_4 
REMARK    3  A    between atoms: C_11  and  C_8 
REMARK    4  A    between atoms: O_22  and  C_10 
REMARK    5  A    between atoms: O_24  and  C_12 
REMARK    6  A    between atoms: O_23  and  C_13 
ROOT
ATOM      1  C   UNL d   1      60.975  47.858  51.290  0.00  0.00     0.080 A 
ATOM      2  C   UNL d   1      60.422  48.468  51.235  0.00  0.00     0.188 A 
ATOM      3  C   UNL d   1      61.534  47.863  51.899  0.00  0.00     0.201 A 
ATOM      4  O   UNL d   1      60.427  49.082  51.788  0.00  0.00    -0.289 OA
ATOM      5  C   UNL d   1      61.539  48.475  52.450  0.00  0.00     0.062 A 
ATOM      6  C   UNL d   1      60.985  49.084  52.394  0.00  0.00     0.105 A 
ATOM      7  O   UNL d   1      62.087  47.253  51.954  0.00  0.00    -0.286 OA
ATOM      8  C   UNL d   1      62.096  48.478  53.056  0.00  0.00     0.005 A 
ATOM      9  C   UNL d   1      60.990  49.697  52.945  0.00  0.00     0.025 A 
ATOM     10  C   UNL d   1      62.104  49.093  53.612  0.00  0.00     0.000 A 
ATOM     11  C   UNL d   1      61.551  49.703  53.557  0.00  0.00     0.002 A 
ENDROOT
BRANCH   1  12
ATOM     12  C   UNL d   1      60.970  47.246  50.739  0.00  0.00     0.011 A 
ATOM     13  C   UNL d   1      61.439  47.297  50.065  0.00  0.00     0.027 A 
ATOM     14  C   UNL d   1      61.437  46.682  49.507  0.00  0.00     0.118 A 
ATOM     15  C   UNL d   1      60.959  46.015  49.632  0.00  0.00     0.138 A 
ATOM     16  C   UNL d   1      60.487  45.968  50.314  0.00  0.00     0.118 A 
ATOM     17  C   UNL d   1      60.492  46.579  50.864  0.00  0.00     0.027 A 
BRANCH  14  18
ATOM     18  O   UNL d   1      61.912  46.737  48.828  0.00  0.00    -0.326 OA
ATOM     19  C   UNL d   1      62.739  46.767  48.896  0.00  0.00     0.181 C 
ENDBRANCH  14  18
BRANCH  15  20
ATOM     20  O   UNL d   1      60.951  45.395  49.079  0.00  0.00    -0.324 OA
ATOM     21  C   UNL d   1      60.634  44.655  49.283  0.00  0.00     0.182 C 
ENDBRANCH  15  20
BRANCH  16  22
ATOM     22  O   UNL d   1      60.012  45.304  50.438  0.00  0.00    -0.326 OA
ATOM     23  C   UNL d   1      59.304  45.375  50.853  0.00  0.00     0.181 C 
ENDBRANCH  16  22
ENDBRANCH   1  12
BRANCH   2  24
ATOM     24  N   UNL d   1      59.855  48.468  50.622  0.00  0.00    -0.182 NA
ATOM     25  C   UNL d   1      59.309  49.089  50.567  0.00  0.00     0.304 C 
ATOM     26  O   UNL d   1      59.319  49.707  51.112  0.00  0.00    -0.263 OA
BRANCH  25  27
ATOM     27  C   UNL d   1      58.748  49.083  49.955  0.00  0.00     0.158 A 
ATOM     28  O   UNL d   1      58.767  49.374  49.188  0.00  0.00    -0.300 OA
ATOM     29  C   UNL d   1      58.042  49.207  48.832  0.00  0.00     0.123 A 
ATOM     30  C   UNL d   1      57.572  48.809  49.386  0.00  0.00     0.029 A 
ATOM     31  C   UNL d   1      58.010  48.735  50.077  0.00  0.00     0.032 A 
ENDBRANCH  25  27
ENDBRANCH   2  24
TORSDOF 6
ENDMDL
