MODEL 1
REMARK VINA RESULT:      31.6      0.000      0.000
REMARK  3 active torsions:
REMARK  status: ('A' for Active; 'I' for Inactive)
REMARK    1  A    between atoms: C_4  and  C_1 
REMARK    2  A    between atoms: C_13  and  N_2 
REMARK    3  A    between atoms: C_10  and  C_13 
ROOT
ATOM      1  C   UNL d   1      46.047 -17.385  44.163  0.00  0.00     0.171 A 
ATOM      2  N   UNL d   1      46.354 -17.864  43.461  0.00  0.00    -0.286 N 
ATOM      3  N   UNL d   1      45.892 -17.970  44.835  0.00  0.00    -0.225 NA
ATOM      4  C   UNL d   1      46.389 -18.731  43.695  0.00  0.00     0.083 A 
ATOM      5  C   UNL d   1      46.097 -18.797  44.560  0.00  0.00     0.099 A 
ATOM      6  C   UNL d   1      46.646 -19.469  43.235  0.00  0.00     0.019 A 
ATOM      7  C   UNL d   1      46.069 -19.601  44.952  0.00  0.00     0.021 A 
ATOM      8  C   UNL d   1      46.608 -20.263  43.651  0.00  0.00     0.002 A 
ATOM      9  C   UNL d   1      46.317 -20.329  44.517  0.00  0.00     0.002 A 
ENDROOT
BRANCH   2  10
ATOM     10  C   UNL d   1      46.620 -18.214  42.828  0.00  0.00     0.106 C 
BRANCH  10  11
ATOM     11  C   UNL d   1      46.246 -18.083  42.122  0.00  0.00     0.118 A 
ATOM     12  O   UNL d   1      45.506 -18.279  41.935  0.00  0.00    -0.299 OA
ATOM     13  C   UNL d   1      45.334 -18.056  41.178  0.00  0.00     0.134 A 
ATOM     14 BR   UNL d   1      44.677 -18.120  40.718  0.00  0.00    -0.022 Br
ATOM     15  C   UNL d   1      45.998 -17.708  40.886  0.00  0.00     0.034 A 
ATOM     16  C   UNL d   1      46.577 -17.716  41.461  0.00  0.00     0.029 A 
ENDBRANCH  10  11
ENDBRANCH   2  10
BRANCH   1  17
ATOM     17  C   UNL d   1      45.920 -16.500  44.188  0.00  0.00     0.135 A 
ATOM     18  O   UNL d   1      46.469 -15.954  43.939  0.00  0.00    -0.297 OA
ATOM     19  C   UNL d   1      46.123 -15.226  44.062  0.00  0.00     0.134 A 
ATOM     20 BR   UNL d   1      46.198 -14.421  44.004  0.00  0.00    -0.022 Br
ATOM     21  C   UNL d   1      45.381 -15.342  44.378  0.00  0.00     0.034 A 
ATOM     22  C   UNL d   1      45.269 -16.141  44.451  0.00  0.00     0.030 A 
ENDBRANCH   1  17
TORSDOF 3
ENDMDL
