MODEL 1
REMARK VINA RESULT:      12.9      0.000      0.000
REMARK  7 active torsions:
REMARK  status: ('A' for Active; 'I' for Inactive)
REMARK    1  A    between atoms: S_3  and  N_12 
REMARK    2  A    between atoms: C_16  and  S_3 
REMARK    3  A    between atoms: C_17  and  C_7 
REMARK    4  A    between atoms: O_19  and  C_8 
REMARK    5  A    between atoms: O_20  and  C_11 
REMARK    6  A    between atoms: N_12  and  C_18 
REMARK    7  A    between atoms: C_18  and  C_17 
ROOT
ATOM      1  N   UNL d   1      46.333 -17.776  42.635  0.00  0.00    -0.206 NA
ATOM      2  C   UNL d   1      46.423 -18.799  43.627  0.00  0.00     0.042 A 
ATOM      3  C   UNL d   1      46.433 -18.568  42.835  0.00  0.00     0.109 A 
ATOM      4  C   UNL d   1      46.313 -18.239  44.223  0.00  0.00     0.008 A 
ATOM      5  C   UNL d   1      46.223 -17.206  43.229  0.00  0.00     0.279 A 
ATOM      6  C   UNL d   1      46.212 -17.437  44.021  0.00  0.00     0.060 A 
ATOM      7  C   UNL d   1      46.522 -19.592  43.828  0.00  0.00     0.096 A 
ATOM      8  C   UNL d   1      46.542 -19.130  42.243  0.00  0.00     0.112 A 
ATOM      9  O   UNL d   1      46.123 -16.414  43.029  0.00  0.00    -0.265 OA
ATOM     10  C   UNL d   1      46.631 -20.153  43.235  0.00  0.00     0.026 A 
ATOM     11  C   UNL d   1      46.642 -19.922  42.443  0.00  0.00     0.028 A 
ENDROOT
BRANCH   6  12
ATOM     12  C   UNL d   1      46.102 -16.871  44.615  0.00  0.00     0.026 C 
BRANCH  12  13
ATOM     13  C   UNL d   1      46.058 -16.073  44.418  0.00  0.00     0.112 C 
BRANCH  13  14
ATOM     14  N   UNL d   1      45.732 -15.537  44.953  0.00  0.00    -0.157 NA
BRANCH  14  15
ATOM     15  S   UNL d   1      45.565 -14.767  44.703  0.00  0.00     0.286 S 
ATOM     16  O   UNL d   1      45.597 -13.978  44.462  0.00  0.00    -0.198 OA
ATOM     17  O   UNL d   1      46.386 -14.793  44.770  0.00  0.00    -0.198 OA
BRANCH  15  18
ATOM     18  C   UNL d   1      44.739 -14.760  44.642  0.00  0.00     0.117 C 
ATOM     19  C   UNL d   1      44.354 -14.115  44.304  0.00  0.00     0.014 C 
ENDBRANCH  15  18
ENDBRANCH  14  15
ENDBRANCH  13  14
ENDBRANCH  12  13
ENDBRANCH   6  12
BRANCH   7  20
ATOM     20  O   UNL d   1      46.512 -19.820  44.612  0.00  0.00    -0.328 OA
ATOM     21  C   UNL d   1      45.866 -20.242  44.910  0.00  0.00     0.181 C 
ENDBRANCH   7  20
BRANCH   8  22
ATOM     22  O   UNL d   1      46.553 -18.900  41.451  0.00  0.00    -0.327 OA
ATOM     23  C   UNL d   1      46.234 -19.401  40.871  0.00  0.00     0.181 C 
ENDBRANCH   8  22
TORSDOF 7
ENDMDL
