MODEL 1
REMARK VINA RESULT:      -7.9      0.000      0.000
REMARK  5 active torsions:
REMARK  status: ('A' for Active; 'I' for Inactive)
REMARK    1  A    between atoms: C_11  and  C_5 
REMARK    2  A    between atoms: C_25  and  N_6 
REMARK    3  A    between atoms: N_14  and  C_27 
REMARK    4  A    between atoms: C_26  and  C_25 
REMARK    5  A    between atoms: C_27  and  C_26 
ROOT
ATOM      1  C   UNL d   1     -48.441  12.694  23.100  0.00  0.00     0.082 A 
ATOM      2  C   UNL d   1     -47.662  12.973  23.108  0.00  0.00     0.267 A 
ATOM      3  C   UNL d   1     -48.607  11.905  23.289  0.00  0.00     0.108 A 
ATOM      4  C   UNL d   1     -49.842  12.936  22.893  0.00  0.00     0.113 A 
ATOM      5  C   UNL d   1     -49.059  13.219  22.900  0.00  0.00     0.043 A 
ATOM      6  N   UNL d   1     -47.053  12.450  23.307  0.00  0.00    -0.273 N 
ATOM      7  C   UNL d   1     -50.004  12.151  23.081  0.00  0.00     0.213 A 
ATOM      8  O   UNL d   1     -49.384  11.634  23.280  0.00  0.00    -0.287 OA
ATOM      9  C   UNL d   1     -47.996  11.395  23.485  0.00  0.00     0.043 A 
ATOM     10  C   UNL d   1     -47.220  11.661  23.496  0.00  0.00     0.069 A 
ATOM     11  C   UNL d   1     -50.453  13.452  22.695  0.00  0.00     0.105 C 
ATOM     12  N   UNL d   1     -51.064  13.966  22.498  0.00  0.00    -0.191 NA
ATOM     13  O   UNL d   1     -47.495  13.763  22.919  0.00  0.00    -0.267 OA
ATOM     14  N   UNL d   1     -50.782  11.871  23.074  0.00  0.00    -0.120 N 
ATOM     15  C   UNL d   1     -46.596  11.144  23.695  0.00  0.00     0.019 C 
ENDROOT
BRANCH   5  16
ATOM     16  C   UNL d   1     -48.896  14.005  22.711  0.00  0.00     0.101 A 
ATOM     17  O   UNL d   1     -48.700  14.293  21.972  0.00  0.00    -0.305 OA
ATOM     18  C   UNL d   1     -48.585  15.108  22.035  0.00  0.00     0.123 A 
ATOM     19  C   UNL d   1     -48.713  15.319  22.822  0.00  0.00     0.029 A 
ATOM     20  C   UNL d   1     -48.906  14.643  23.246  0.00  0.00     0.027 A 
ENDBRANCH   5  16
BRANCH   6  21
ATOM     21  C   UNL d   1     -46.262  12.727  23.316  0.00  0.00     0.085 C 
BRANCH  21  22
ATOM     22  C   UNL d   1     -45.779  12.618  22.655  0.00  0.00     0.038 C 
BRANCH  22  23
ATOM     23  C   UNL d   1     -45.126  13.108  22.539  0.00  0.00     0.083 C 
BRANCH  23  24
ATOM     24  N   UNL d   1     -44.470  12.839  22.115  0.00  0.00    -0.285 N 
ATOM     25  C   UNL d   1     -43.974  12.219  22.325  0.00  0.00     0.183 A 
ATOM     26  N   UNL d   1     -43.397  12.145  21.744  0.00  0.00    -0.222 NA
ATOM     27  C   UNL d   1     -43.534  12.719  21.171  0.00  0.00     0.120 A 
ATOM     28  C   UNL d   1     -44.191  13.146  21.396  0.00  0.00     0.102 A 
ENDBRANCH  23  24
ENDBRANCH  22  23
ENDBRANCH  21  22
ENDBRANCH   6  21
TORSDOF 5
ENDMDL
MODEL 2
REMARK VINA RESULT:      -7.5      1.316      2.441
REMARK  5 active torsions:
REMARK  status: ('A' for Active; 'I' for Inactive)
REMARK    1  A    between atoms: C_11  and  C_5 
REMARK    2  A    between atoms: C_25  and  N_6 
REMARK    3  A    between atoms: N_14  and  C_27 
REMARK    4  A    between atoms: C_26  and  C_25 
REMARK    5  A    between atoms: C_27  and  C_26 
ROOT
ATOM      1  C   UNL d   1     -48.232  13.651  22.831  0.00  0.00     0.082 A 
ATOM      2  C   UNL d   1     -47.832  13.017  23.181  0.00  0.00     0.267 A 
ATOM      3  C   UNL d   1     -47.832  14.351  22.645  0.00  0.00     0.108 A 
ATOM      4  C   UNL d   1     -49.450  14.214  22.316  0.00  0.00     0.113 A 
ATOM      5  C   UNL d   1     -49.048  13.576  22.668  0.00  0.00     0.043 A 
ATOM      6  N   UNL d   1     -47.024  13.095  23.341  0.00  0.00    -0.273 N 
ATOM      7  C   UNL d   1     -49.048  14.910  22.132  0.00  0.00     0.213 A 
ATOM      8  O   UNL d   1     -48.236  14.978  22.297  0.00  0.00    -0.287 OA
ATOM      9  C   UNL d   1     -47.030  14.418  22.807  0.00  0.00     0.043 A 
ATOM     10  C   UNL d   1     -46.624  13.795  23.154  0.00  0.00     0.069 A 
ATOM     11  C   UNL d   1     -50.254  14.143  22.155  0.00  0.00     0.105 C 
ATOM     12  N   UNL d   1     -51.057  14.072  21.993  0.00  0.00    -0.191 NA
ATOM     13  O   UNL d   1     -48.233  12.316  23.368  0.00  0.00    -0.267 OA
ATOM     14  N   UNL d   1     -49.448  15.543  21.782  0.00  0.00    -0.120 N 
ATOM     15  C   UNL d   1     -45.809  13.862  23.321  0.00  0.00     0.019 C 
ENDROOT
BRANCH   5  16
ATOM     16  C   UNL d   1     -49.450  12.880  22.853  0.00  0.00     0.101 A 
ATOM     17  O   UNL d   1     -49.760  12.681  23.583  0.00  0.00    -0.305 OA
ATOM     18  C   UNL d   1     -50.115  11.938  23.519  0.00  0.00     0.123 A 
ATOM     19  C   UNL d   1     -50.020  11.681  22.741  0.00  0.00     0.029 A 
ATOM     20  C   UNL d   1     -49.610  12.258  22.323  0.00  0.00     0.027 A 
ENDBRANCH   5  16
BRANCH   6  21
ATOM     21  C   UNL d   1     -46.613  12.457  23.695  0.00  0.00     0.085 C 
BRANCH  21  22
ATOM     22  C   UNL d   1     -46.019  12.065  23.276  0.00  0.00     0.038 C 
BRANCH  22  23
ATOM     23  C   UNL d   1     -45.897  11.258  23.394  0.00  0.00     0.083 C 
BRANCH  23  24
ATOM     24  N   UNL d   1     -45.134  10.942  23.371  0.00  0.00    -0.285 N 
ATOM     25  C   UNL d   1     -44.474  11.285  23.022  0.00  0.00     0.183 A 
ATOM     26  N   UNL d   1     -43.835  10.778  23.132  0.00  0.00    -0.222 NA
ATOM     27  C   UNL d   1     -44.097  10.120  23.550  0.00  0.00     0.120 A 
ATOM     28  C   UNL d   1     -44.893  10.218  23.698  0.00  0.00     0.102 A 
ENDBRANCH  23  24
ENDBRANCH  22  23
ENDBRANCH  21  22
ENDBRANCH   6  21
TORSDOF 5
ENDMDL
MODEL 3
REMARK VINA RESULT:      -6.8      0.921      2.170
REMARK  5 active torsions:
REMARK  status: ('A' for Active; 'I' for Inactive)
REMARK    1  A    between atoms: C_11  and  C_5 
REMARK    2  A    between atoms: C_25  and  N_6 
REMARK    3  A    between atoms: N_14  and  C_27 
REMARK    4  A    between atoms: C_26  and  C_25 
REMARK    5  A    between atoms: C_27  and  C_26 
ROOT
ATOM      1  C   UNL d   1     -48.285  13.730  22.748  0.00  0.00     0.082 A 
ATOM      2  C   UNL d   1     -47.551  13.384  22.910  0.00  0.00     0.267 A 
ATOM      3  C   UNL d   1     -48.340  14.537  22.572  0.00  0.00     0.108 A 
ATOM      4  C   UNL d   1     -49.709  13.605  22.603  0.00  0.00     0.113 A 
ATOM      5  C   UNL d   1     -48.971  13.255  22.765  0.00  0.00     0.043 A 
ATOM      6  N   UNL d   1     -46.874  13.859  22.892  0.00  0.00    -0.273 N 
ATOM      7  C   UNL d   1     -49.760  14.408  22.427  0.00  0.00     0.213 A 
ATOM      8  O   UNL d   1     -49.074  14.876  22.412  0.00  0.00    -0.287 OA
ATOM      9  C   UNL d   1     -47.662  14.999  22.557  0.00  0.00     0.043 A 
ATOM     10  C   UNL d   1     -46.930  14.666  22.715  0.00  0.00     0.069 A 
ATOM     11  C   UNL d   1     -50.387  13.138  22.619  0.00  0.00     0.105 C 
ATOM     12  N   UNL d   1     -51.064  12.672  22.635  0.00  0.00    -0.191 NA
ATOM     13  O   UNL d   1     -47.496  12.576  23.087  0.00  0.00    -0.267 OA
ATOM     14  N   UNL d   1     -50.494  14.754  22.266  0.00  0.00    -0.120 N 
ATOM     15  C   UNL d   1     -46.239  15.134  22.700  0.00  0.00     0.019 C 
ENDROOT
BRANCH   5  16
ATOM     16  C   UNL d   1     -48.920  12.450  22.941  0.00  0.00     0.101 A 
ATOM     17  O   UNL d   1     -48.780  11.848  22.406  0.00  0.00    -0.305 OA
ATOM     18  C   UNL d   1     -48.774  11.133  22.819  0.00  0.00     0.123 A 
ATOM     19  C   UNL d   1     -48.910  11.302  23.614  0.00  0.00     0.029 A 
ATOM     20  C   UNL d   1     -49.001  12.114  23.698  0.00  0.00     0.027 A 
ENDBRANCH   5  16
BRANCH   6  21
ATOM     21  C   UNL d   1     -46.127  13.514  23.055  0.00  0.00     0.085 C 
BRANCH  21  22
ATOM     22  C   UNL d   1     -45.626  13.304  22.433  0.00  0.00     0.038 C 
BRANCH  22  23
ATOM     23  C   UNL d   1     -45.159  12.627  22.494  0.00  0.00     0.083 C 
BRANCH  23  24
ATOM     24  N   UNL d   1     -44.433  12.583  22.102  0.00  0.00    -0.285 N 
ATOM     25  C   UNL d   1     -43.798  12.101  22.303  0.00  0.00     0.183 A 
ATOM     26  N   UNL d   1     -43.193  12.238  21.763  0.00  0.00    -0.222 NA
ATOM     27  C   UNL d   1     -43.451  12.805  21.225  0.00  0.00     0.120 A 
ATOM     28  C   UNL d   1     -44.210  13.018  21.431  0.00  0.00     0.102 A 
ENDBRANCH  23  24
ENDBRANCH  22  23
ENDBRANCH  21  22
ENDBRANCH   6  21
TORSDOF 5
ENDMDL
MODEL 4
REMARK VINA RESULT:      -6.3      1.449      4.342
REMARK  5 active torsions:
REMARK  status: ('A' for Active; 'I' for Inactive)
REMARK    1  A    between atoms: C_11  and  C_5 
REMARK    2  A    between atoms: C_25  and  N_6 
REMARK    3  A    between atoms: N_14  and  C_27 
REMARK    4  A    between atoms: C_26  and  C_25 
REMARK    5  A    between atoms: C_27  and  C_26 
ROOT
ATOM      1  C   UNL d   1     -47.634  12.058  23.332  0.00  0.00     0.082 A 
ATOM      2  C   UNL d   1     -48.251  12.608  23.304  0.00  0.00     0.267 A 
ATOM      3  C   UNL d   1     -47.789  11.258  23.480  0.00  0.00     0.108 A 
ATOM      4  C   UNL d   1     -46.230  11.764  23.237  0.00  0.00     0.113 A 
ATOM      5  C   UNL d   1     -46.850  12.319  23.209  0.00  0.00     0.043 A 
ATOM      6  N   UNL d   1     -49.025  12.345  23.427  0.00  0.00    -0.273 N 
ATOM      7  C   UNL d   1     -46.388  10.969  23.385  0.00  0.00     0.213 A 
ATOM      8  O   UNL d   1     -47.170  10.715  23.507  0.00  0.00    -0.287 OA
ATOM      9  C   UNL d   1     -48.561  11.007  23.601  0.00  0.00     0.043 A 
ATOM     10  C   UNL d   1     -49.180  11.545  23.575  0.00  0.00     0.069 A 
ATOM     11  C   UNL d   1     -45.457  12.019  23.116  0.00  0.00     0.105 C 
ATOM     12  N   UNL d   1     -44.684  12.274  22.995  0.00  0.00    -0.191 NA
ATOM     13  O   UNL d   1     -48.096  13.408  23.156  0.00  0.00    -0.267 OA
ATOM     14  N   UNL d   1     -45.771  10.419  23.413  0.00  0.00    -0.120 N 
ATOM     15  C   UNL d   1     -49.966  11.292  23.697  0.00  0.00     0.019 C 
ENDROOT
BRANCH   5  16
ATOM     16  C   UNL d   1     -46.692  13.115  23.061  0.00  0.00     0.101 A 
ATOM     17  O   UNL d   1     -46.583  13.697  23.624  0.00  0.00    -0.305 OA
ATOM     18  C   UNL d   1     -46.439  14.410  23.233  0.00  0.00     0.123 A 
ATOM     19  C   UNL d   1     -46.460  14.260  22.422  0.00  0.00     0.029 A 
ATOM     20  C   UNL d   1     -46.616  13.461  22.308  0.00  0.00     0.027 A 
ENDBRANCH   5  16
BRANCH   6  21
ATOM     21  C   UNL d   1     -49.655  12.898  23.400  0.00  0.00     0.085 C 
BRANCH  21  22
ATOM     22  C   UNL d   1     -49.930  13.174  22.672  0.00  0.00     0.038 C 
BRANCH  22  23
ATOM     23  C   UNL d   1     -50.674  13.525  22.621  0.00  0.00     0.083 C 
BRANCH  23  24
ATOM     24  N   UNL d   1     -50.818  14.126  22.072  0.00  0.00    -0.285 N 
ATOM     25  C   UNL d   1     -50.929  14.923  22.239  0.00  0.00     0.183 A 
ATOM     26  N   UNL d   1     -51.054  15.317  21.528  0.00  0.00    -0.222 NA
ATOM     27  C   UNL d   1     -51.020  14.766  20.918  0.00  0.00     0.120 A 
ATOM     28  C   UNL d   1     -50.876  14.035  21.249  0.00  0.00     0.102 A 
ENDBRANCH  23  24
ENDBRANCH  22  23
ENDBRANCH  21  22
ENDBRANCH   6  21
TORSDOF 5
ENDMDL
MODEL 5
REMARK VINA RESULT:      -5.3      1.280      1.542
REMARK  5 active torsions:
REMARK  status: ('A' for Active; 'I' for Inactive)
REMARK    1  A    between atoms: C_11  and  C_5 
REMARK    2  A    between atoms: C_25  and  N_6 
REMARK    3  A    between atoms: N_14  and  C_27 
REMARK    4  A    between atoms: C_26  and  C_25 
REMARK    5  A    between atoms: C_27  and  C_26 
ROOT
ATOM      1  C   UNL d   1     -48.735  12.822  22.808  0.00  0.00     0.082 A 
ATOM      2  C   UNL d   1     -47.958  12.797  23.090  0.00  0.00     0.267 A 
ATOM      3  C   UNL d   1     -49.210  12.144  22.820  0.00  0.00     0.108 A 
ATOM      4  C   UNL d   1     -49.818  13.566  22.226  0.00  0.00     0.113 A 
ATOM      5  C   UNL d   1     -49.035  13.542  22.510  0.00  0.00     0.043 A 
ATOM      6  N   UNL d   1     -47.663  12.082  23.385  0.00  0.00    -0.273 N 
ATOM      7  C   UNL d   1     -50.287  12.889  22.239  0.00  0.00     0.213 A 
ATOM      8  O   UNL d   1     -49.982  12.176  22.538  0.00  0.00    -0.287 OA
ATOM      9  C   UNL d   1     -48.908  11.440  23.115  0.00  0.00     0.043 A 
ATOM     10  C   UNL d   1     -48.138  11.404  23.398  0.00  0.00     0.069 A 
ATOM     11  C   UNL d   1     -50.116  14.274  21.931  0.00  0.00     0.105 C 
ATOM     12  N   UNL d   1     -50.416  14.981  21.636  0.00  0.00    -0.191 NA
ATOM     13  O   UNL d   1     -47.482  13.476  23.078  0.00  0.00    -0.267 OA
ATOM     14  N   UNL d   1     -51.064  12.914  21.957  0.00  0.00    -0.120 N 
ATOM     15  C   UNL d   1     -47.830  10.689  23.698  0.00  0.00     0.019 C 
ENDROOT
BRANCH   5  16
ATOM     16  C   UNL d   1     -48.565  14.219  22.496  0.00  0.00     0.101 A 
ATOM     17  O   UNL d   1     -48.568  14.820  23.050  0.00  0.00    -0.305 OA
ATOM     18  C   UNL d   1     -48.014  15.387  22.820  0.00  0.00     0.123 A 
ATOM     19  C   UNL d   1     -47.668  15.128  22.118  0.00  0.00     0.029 A 
ATOM     20  C   UNL d   1     -48.004  14.407  21.910  0.00  0.00     0.027 A 
ENDBRANCH   5  16
BRANCH   6  21
ATOM     21  C   UNL d   1     -46.877  12.051  23.673  0.00  0.00     0.085 C 
BRANCH  21  22
ATOM     22  C   UNL d   1     -46.362  11.464  23.402  0.00  0.00     0.038 C 
BRANCH  22  23
ATOM     23  C   UNL d   1     -45.564  11.640  23.288  0.00  0.00     0.083 C 
BRANCH  23  24
ATOM     24  N   UNL d   1     -44.991  11.050  23.361  0.00  0.00    -0.285 N 
ATOM     25  C   UNL d   1     -45.116  10.275  23.603  0.00  0.00     0.183 A 
ATOM     26  N   UNL d   1     -44.392   9.884  23.594  0.00  0.00    -0.222 NA
ATOM     27  C   UNL d   1     -43.815  10.417  23.347  0.00  0.00     0.120 A 
ATOM     28  C   UNL d   1     -44.180  11.132  23.203  0.00  0.00     0.102 A 
ENDBRANCH  23  24
ENDBRANCH  22  23
ENDBRANCH  21  22
ENDBRANCH   6  21
TORSDOF 5
ENDMDL
