MODEL 1
REMARK VINA RESULT:      14.6      0.000      0.000
REMARK  1 active torsions:
REMARK  status: ('A' for Active; 'I' for Inactive)
REMARK    1  A    between atoms: C_6  and  C_1 
ROOT
ATOM      1  C   UNL d   1      58.444  49.706  50.762  0.00  0.00     0.168 A 
ATOM      2  C   UNL d   1      57.671  49.705  50.478  0.00  0.00     0.045 A 
ATOM      3  N   UNL d   1      58.419  49.708  51.586  0.00  0.00    -0.142 NA
ATOM      4  N   UNL d   1      57.624  49.707  51.815  0.00  0.00    -0.148 NA
ATOM      5  C   UNL d   1      57.158  49.705  51.119  0.00  0.00     0.105 A 
ATOM      6  C   UNL d   1      57.360  49.703  49.712  0.00  0.00     0.003 A 
ATOM      7  C   UNL d   1      56.339  49.704  51.015  0.00  0.00     0.021 A 
ATOM      8  C   UNL d   1      56.545  49.701  49.596  0.00  0.00     0.000 A 
ATOM      9  C   UNL d   1      56.034  49.702  50.249  0.00  0.00     0.002 A 
ATOM     10  C   UNL d   1      56.234  49.699  48.830  0.00  0.00     0.000 C 
ENDROOT
BRANCH   1  11
ATOM     11  C   UNL d   1      59.126  49.706  50.301  0.00  0.00     0.231 C 
ATOM     12  O   UNL d   1      59.072  49.707  49.475  0.00  0.00    -0.643 OA
ATOM     13  O   UNL d   1      59.870  49.704  50.662  0.00  0.00    -0.643 OA
ENDBRANCH   1  11
TORSDOF 1
ENDMDL
MODEL 2
REMARK VINA RESULT:      15.8      1.896      2.636
REMARK  1 active torsions:
REMARK  status: ('A' for Active; 'I' for Inactive)
REMARK    1  A    between atoms: C_6  and  C_1 
ROOT
ATOM      1  C   UNL d   1      60.382  49.687  51.288  0.00  0.00     0.168 A 
ATOM      2  C   UNL d   1      59.691  49.691  50.839  0.00  0.00     0.045 A 
ATOM      3  N   UNL d   1      61.027  49.689  50.775  0.00  0.00    -0.142 NA
ATOM      4  N   UNL d   1      60.734  49.695  50.001  0.00  0.00    -0.148 NA
ATOM      5  C   UNL d   1      59.898  49.696  50.045  0.00  0.00     0.105 A 
ATOM      6  C   UNL d   1      58.892  49.691  51.049  0.00  0.00     0.003 A 
ATOM      7  C   UNL d   1      59.324  49.701  49.451  0.00  0.00     0.021 A 
ATOM      8  C   UNL d   1      58.311  49.696  50.466  0.00  0.00     0.000 A 
ATOM      9  C   UNL d   1      58.527  49.701  49.666  0.00  0.00     0.002 A 
ATOM     10  C   UNL d   1      57.511  49.696  50.676  0.00  0.00     0.000 C 
ENDROOT
BRANCH   1  11
ATOM     11  C   UNL d   1      60.422  49.681  52.111  0.00  0.00     0.231 C 
ATOM     12  O   UNL d   1      61.156  49.671  52.494  0.00  0.00    -0.643 OA
ATOM     13  O   UNL d   1      59.727  49.684  52.559  0.00  0.00    -0.643 OA
ENDBRANCH   1  11
TORSDOF 1
ENDMDL
