MODEL 1
REMARK VINA RESULT:      77.8      0.000      0.000
REMARK  5 active torsions:
REMARK  status: ('A' for Active; 'I' for Inactive)
REMARK    1  A    between atoms: O_8  and  C_2 
REMARK    2  A    between atoms: C_10  and  C_3 
REMARK    3  A    between atoms: C_14  and  O_8 
REMARK    4  A    between atoms: N_9  and  C_10 
REMARK    5  A    between atoms: O_23  and  C_17 
ROOT
ATOM      1  C   UNL d   1     -50.671  25.725  33.381  0.00  0.00     0.108 A 
ATOM      2  C   UNL d   1     -49.632  27.025  33.457  0.00  0.00     0.164 A 
ATOM      3  C   UNL d   1     -51.179  25.075  33.344  0.00  0.00     0.079 A 
ATOM      4  C   UNL d   1     -49.844  25.604  33.420  0.00  0.00     0.064 A 
ATOM      5  C   UNL d   1     -49.329  26.245  33.457  0.00  0.00     0.222 A 
ATOM      6  O   UNL d   1     -50.976  26.493  33.381  0.00  0.00    -0.303 OA
ATOM      7  C   UNL d   1     -50.456  27.147  33.419  0.00  0.00     0.150 A 
ATOM      8  C   UNL d   1     -49.545  24.825  33.420  0.00  0.00     0.009 A 
ATOM      9  C   UNL d   1     -50.886  24.309  33.343  0.00  0.00     0.199 A 
ATOM     10  O   UNL d   1     -48.513  26.129  33.496  0.00  0.00    -0.284 OA
ATOM     11  C   UNL d   1     -50.060  24.183  33.382  0.00  0.00     0.042 A 
ATOM     12  O   UNL d   1     -51.388  23.666  33.306  0.00  0.00    -0.286 OA
ENDROOT
BRANCH   2  13
ATOM     13  O   UNL d   1     -49.119  27.667  33.495  0.00  0.00    -0.300 OA
BRANCH  13  14
ATOM     14  C   UNL d   1     -48.937  27.998  34.220  0.00  0.00     0.122 A 
ATOM     15  C   UNL d   1     -48.948  28.810  34.312  0.00  0.00     0.117 A 
ATOM     16  C   UNL d   1     -48.766  29.144  35.040  0.00  0.00     0.026 A 
ATOM     17  C   UNL d   1     -48.573  28.653  35.676  0.00  0.00     0.002 A 
ATOM     18  C   UNL d   1     -48.562  27.841  35.584  0.00  0.00     0.002 A 
ATOM     19  C   UNL d   1     -48.745  27.507  34.852  0.00  0.00     0.027 A 
BRANCH  15  20
ATOM     20  O   UNL d   1     -49.142  29.289  33.671  0.00  0.00    -0.326 OA
ATOM     21  C   UNL d   1     -49.081  30.109  33.734  0.00  0.00     0.181 C 
ENDBRANCH  15  20
ENDBRANCH  13  14
ENDBRANCH   2  13
BRANCH   3  22
ATOM     22  C   UNL d   1     -51.989  25.199  33.306  0.00  0.00     0.086 C 
BRANCH  22  23
ATOM     23  N   UNL d   1     -52.503  24.696  33.714  0.00  0.00    -0.300 N 
ATOM     24  C   UNL d   1     -52.887  24.088  33.309  0.00  0.00     0.100 A 
ATOM     25  C   UNL d   1     -53.399  23.587  33.714  0.00  0.00     0.100 A 
ATOM     26  N   UNL d   1     -53.527  23.692  34.524  0.00  0.00    -0.299 N 
ATOM     27  C   UNL d   1     -53.142  24.301  34.925  0.00  0.00     0.100 A 
ATOM     28  C   UNL d   1     -54.039  23.191  34.929  0.00  0.00     0.100 C 
ATOM     29  C   UNL d   1     -52.624  24.810  34.521  0.00  0.00     0.100 A 
ENDBRANCH  22  23
ENDBRANCH   3  22
TORSDOF 5
ENDMDL
MODEL 2
REMARK VINA RESULT:      80.3      1.102      2.013
REMARK  5 active torsions:
REMARK  status: ('A' for Active; 'I' for Inactive)
REMARK    1  A    between atoms: O_8  and  C_2 
REMARK    2  A    between atoms: C_10  and  C_3 
REMARK    3  A    between atoms: C_14  and  O_8 
REMARK    4  A    between atoms: N_9  and  C_10 
REMARK    5  A    between atoms: O_23  and  C_17 
ROOT
ATOM      1  C   UNL d   1     -50.423  27.141  33.535  0.00  0.00     0.108 A 
ATOM      2  C   UNL d   1     -49.348  28.393  33.760  0.00  0.00     0.164 A 
ATOM      3  C   UNL d   1     -50.963  26.526  33.424  0.00  0.00     0.079 A 
ATOM      4  C   UNL d   1     -50.701  27.922  33.645  0.00  0.00     0.064 A 
ATOM      5  C   UNL d   1     -50.171  28.542  33.757  0.00  0.00     0.222 A 
ATOM      6  O   UNL d   1     -49.611  26.987  33.537  0.00  0.00    -0.303 OA
ATOM      7  C   UNL d   1     -49.070  27.615  33.650  0.00  0.00     0.150 A 
ATOM      8  C   UNL d   1     -51.523  28.068  33.642  0.00  0.00     0.009 A 
ATOM      9  C   UNL d   1     -51.771  26.668  33.421  0.00  0.00     0.199 A 
ATOM     10  O   UNL d   1     -50.442  29.314  33.866  0.00  0.00    -0.284 OA
ATOM     11  C   UNL d   1     -52.054  27.448  33.531  0.00  0.00     0.042 A 
ATOM     12  O   UNL d   1     -52.305  26.060  33.311  0.00  0.00    -0.286 OA
ENDROOT
BRANCH   2  13
ATOM     13  O   UNL d   1     -48.817  29.012  33.871  0.00  0.00    -0.300 OA
BRANCH  13  14
ATOM     14  C   UNL d   1     -48.443  29.099  34.592  0.00  0.00     0.122 A 
ATOM     15  C   UNL d   1     -48.052  29.795  34.768  0.00  0.00     0.117 A 
ATOM     16  C   UNL d   1     -47.676  29.884  35.492  0.00  0.00     0.026 A 
ATOM     17  C   UNL d   1     -47.695  29.265  36.040  0.00  0.00     0.002 A 
ATOM     18  C   UNL d   1     -48.086  28.569  35.864  0.00  0.00     0.002 A 
ATOM     19  C   UNL d   1     -48.463  28.481  35.136  0.00  0.00     0.027 A 
BRANCH  15  20
ATOM     20  O   UNL d   1     -48.040  30.404  34.215  0.00  0.00    -0.326 OA
ATOM     21  C   UNL d   1     -48.219  31.176  34.445  0.00  0.00     0.181 C 
ENDBRANCH  15  20
ENDBRANCH  13  14
ENDBRANCH   2  13
BRANCH   3  22
ATOM     22  C   UNL d   1     -50.686  25.761  33.316  0.00  0.00     0.086 C 
BRANCH  22  23
ATOM     23  N   UNL d   1     -51.190  25.118  33.441  0.00  0.00    -0.300 N 
ATOM     24  C   UNL d   1     -50.879  24.398  33.697  0.00  0.00     0.100 A 
ATOM     25  C   UNL d   1     -51.379  23.757  33.820  0.00  0.00     0.100 A 
ATOM     26  N   UNL d   1     -52.192  23.834  33.688  0.00  0.00    -0.299 N 
ATOM     27  C   UNL d   1     -52.500  24.555  33.432  0.00  0.00     0.100 A 
ATOM     28  C   UNL d   1     -52.693  23.193  33.812  0.00  0.00     0.100 C 
ATOM     29  C   UNL d   1     -51.998  25.206  33.306  0.00  0.00     0.100 A 
ENDBRANCH  22  23
ENDBRANCH   3  22
TORSDOF 5
ENDMDL
