MODEL 1
REMARK VINA RESULT:      -7.9      0.000      0.000
REMARK  3 active torsions:
REMARK  status: ('A' for Active; 'I' for Inactive)
REMARK    1  A    between atoms: N_2  and  C_1 
REMARK    2  A    between atoms: C_5  and  C_4 
REMARK       I    between atoms: N_6  and  C_5 
REMARK    3  A    between atoms: C_9  and  N_6 
ROOT
ATOM      1  C   UNL d   1     -48.622  12.986  21.547  0.00  0.00     0.285 C 
ATOM      2  N   UNL d   1     -49.183  13.593  21.565  0.00  0.00    -0.205 NA
ATOM      3  O   UNL d   1     -48.432  12.611  20.856  0.00  0.00    -0.265 OA
ENDROOT
BRANCH   1   4
ATOM      4  C   UNL d   1     -48.243  12.748  22.234  0.00  0.00     0.089 A 
ATOM      5  S   UNL d   1     -47.487  12.934  22.419  0.00  0.00    -0.059 SA
ATOM      6  C   UNL d   1     -47.281  12.615  23.134  0.00  0.00     0.156 A 
ATOM      7  C   UNL d   1     -47.956  12.197  23.419  0.00  0.00     0.031 A 
ATOM      8  C   UNL d   1     -48.558  12.282  22.853  0.00  0.00     0.014 A 
BRANCH   6   9
ATOM      9  N   UNL d   1     -46.562  12.691  23.491  0.00  0.00    -0.107 N 
ATOM     10  O   UNL d   1     -46.190  13.401  23.698  0.00  0.00    -0.531 OA
ATOM     11  O   UNL d   1     -46.106  12.069  23.696  0.00  0.00    -0.531 OA
ENDBRANCH   6   9
ENDBRANCH   1   4
BRANCH   2  12
ATOM     12  C   UNL d   1     -49.360  13.958  22.271  0.00  0.00     0.112 A 
ATOM     13  C   UNL d   1     -49.113  14.734  22.404  0.00  0.00     0.158 A 
ATOM     14  F   UNL d   1     -48.684  15.147  21.823  0.00  0.00    -0.203 F 
ATOM     15  C   UNL d   1     -49.290  15.099  23.109  0.00  0.00     0.031 A 
ATOM     16  C   UNL d   1     -49.714  14.692  23.688  0.00  0.00     0.002 A 
ATOM     17  C   UNL d   1     -49.961  13.929  23.567  0.00  0.00     0.002 A 
ATOM     18  C   UNL d   1     -49.784  13.551  22.849  0.00  0.00     0.021 A 
ENDBRANCH   2  12
TORSDOF 3
ENDMDL
MODEL 2
REMARK VINA RESULT:      -7.6      1.336      1.857
REMARK  3 active torsions:
REMARK  status: ('A' for Active; 'I' for Inactive)
REMARK    1  A    between atoms: N_2  and  C_1 
REMARK    2  A    between atoms: C_5  and  C_4 
REMARK       I    between atoms: N_6  and  C_5 
REMARK    3  A    between atoms: C_9  and  N_6 
ROOT
ATOM      1  C   UNL d   1     -48.703  14.603  22.265  0.00  0.00     0.285 C 
ATOM      2  N   UNL d   1     -49.496  14.372  22.286  0.00  0.00    -0.205 NA
ATOM      3  O   UNL d   1     -48.494  15.381  22.191  0.00  0.00    -0.265 OA
ENDROOT
BRANCH   1   4
ATOM      4  C   UNL d   1     -48.105  14.044  22.320  0.00  0.00     0.089 A 
ATOM      5  S   UNL d   1     -47.648  13.935  22.967  0.00  0.00    -0.059 SA
ATOM      6  C   UNL d   1     -47.111  13.342  22.843  0.00  0.00     0.156 A 
ATOM      7  C   UNL d   1     -47.240  13.057  22.059  0.00  0.00     0.031 A 
ATOM      8  C   UNL d   1     -47.864  13.499  21.733  0.00  0.00     0.014 A 
BRANCH   6   9
ATOM      9  N   UNL d   1     -46.565  13.085  23.376  0.00  0.00    -0.107 N 
ATOM     10  O   UNL d   1     -46.507  12.321  23.689  0.00  0.00    -0.531 OA
ATOM     11  O   UNL d   1     -45.992  13.552  23.677  0.00  0.00    -0.531 OA
ENDBRANCH   6   9
ENDBRANCH   1   4
BRANCH   2  12
ATOM     12  C   UNL d   1     -49.686  13.585  22.362  0.00  0.00     0.112 A 
ATOM     13  C   UNL d   1     -50.021  13.310  23.065  0.00  0.00     0.158 A 
ATOM     14  F   UNL d   1     -50.166  13.831  23.696  0.00  0.00    -0.203 F 
ATOM     15  C   UNL d   1     -50.210  12.522  23.140  0.00  0.00     0.031 A 
ATOM     16  C   UNL d   1     -50.067  12.003  22.515  0.00  0.00     0.002 A 
ATOM     17  C   UNL d   1     -49.739  12.262  21.822  0.00  0.00     0.002 A 
ATOM     18  C   UNL d   1     -49.543  13.065  21.737  0.00  0.00     0.021 A 
ENDBRANCH   2  12
TORSDOF 3
ENDMDL
MODEL 3
REMARK VINA RESULT:      -7.2      1.957      2.704
REMARK  3 active torsions:
REMARK  status: ('A' for Active; 'I' for Inactive)
REMARK    1  A    between atoms: N_2  and  C_1 
REMARK    2  A    between atoms: C_5  and  C_4 
REMARK       I    between atoms: N_6  and  C_5 
REMARK    3  A    between atoms: C_9  and  N_6 
ROOT
ATOM      1  C   UNL d   1     -48.473  12.949  21.557  0.00  0.00     0.285 C 
ATOM      2  N   UNL d   1     -48.866  12.227  21.643  0.00  0.00    -0.205 NA
ATOM      3  O   UNL d   1     -48.012  13.100  20.910  0.00  0.00    -0.265 OA
ENDROOT
BRANCH   1   4
ATOM      4  C   UNL d   1     -48.542  13.532  22.129  0.00  0.00     0.089 A 
ATOM      5  S   UNL d   1     -49.044  14.153  22.082  0.00  0.00    -0.059 SA
ATOM      6  C   UNL d   1     -48.977  14.626  22.735  0.00  0.00     0.156 A 
ATOM      7  C   UNL d   1     -48.388  14.278  23.229  0.00  0.00     0.031 A 
ATOM      8  C   UNL d   1     -48.117  13.592  22.847  0.00  0.00     0.014 A 
BRANCH   6   9
ATOM      9  N   UNL d   1     -49.399  15.299  22.871  0.00  0.00    -0.107 N 
ATOM     10  O   UNL d   1     -49.653  15.843  22.300  0.00  0.00    -0.531 OA
ATOM     11  O   UNL d   1     -49.631  15.531  23.598  0.00  0.00    -0.531 OA
ENDBRANCH   6   9
ENDBRANCH   1   4
BRANCH   2  12
ATOM     12  C   UNL d   1     -49.326  12.094  22.302  0.00  0.00     0.112 A 
ATOM     13  C   UNL d   1     -50.148  12.110  22.237  0.00  0.00     0.158 A 
ATOM     14  F   UNL d   1     -50.512  12.259  21.504  0.00  0.00    -0.203 F 
ATOM     15  C   UNL d   1     -50.608  11.977  22.895  0.00  0.00     0.031 A 
ATOM     16  C   UNL d   1     -50.250  11.828  23.623  0.00  0.00     0.002 A 
ATOM     17  C   UNL d   1     -49.443  11.811  23.698  0.00  0.00     0.002 A 
ATOM     18  C   UNL d   1     -48.968  11.945  23.030  0.00  0.00     0.021 A 
ENDBRANCH   2  12
TORSDOF 3
ENDMDL
MODEL 4
REMARK VINA RESULT:      -7.2      1.459      1.827
REMARK  3 active torsions:
REMARK  status: ('A' for Active; 'I' for Inactive)
REMARK    1  A    between atoms: N_2  and  C_1 
REMARK    2  A    between atoms: C_5  and  C_4 
REMARK       I    between atoms: N_6  and  C_5 
REMARK    3  A    between atoms: C_9  and  N_6 
ROOT
ATOM      1  C   UNL d   1     -48.558  11.611  22.764  0.00  0.00     0.285 C 
ATOM      2  N   UNL d   1     -49.375  11.692  22.859  0.00  0.00    -0.205 NA
ATOM      3  O   UNL d   1     -48.195  10.894  22.853  0.00  0.00    -0.265 OA
ENDROOT
BRANCH   1   4
ATOM      4  C   UNL d   1     -48.094  12.260  22.576  0.00  0.00     0.089 A 
ATOM      5  S   UNL d   1     -47.567  12.597  23.075  0.00  0.00    -0.059 SA
ATOM      6  C   UNL d   1     -47.200  13.226  22.721  0.00  0.00     0.156 A 
ATOM      7  C   UNL d   1     -47.520  13.290  21.943  0.00  0.00     0.031 A 
ATOM      8  C   UNL d   1     -48.081  12.684  21.855  0.00  0.00     0.014 A 
BRANCH   6   9
ATOM      9  N   UNL d   1     -46.637  13.692  23.062  0.00  0.00    -0.107 N 
ATOM     10  O   UNL d   1     -46.113  13.468  23.663  0.00  0.00    -0.531 OA
ATOM     11  O   UNL d   1     -46.513  14.452  22.854  0.00  0.00    -0.531 OA
ENDBRANCH   6   9
ENDBRANCH   1   4
BRANCH   2  12
ATOM     12  C   UNL d   1     -49.722  12.422  22.766  0.00  0.00     0.112 A 
ATOM     13  C   UNL d   1     -50.172  12.578  22.091  0.00  0.00     0.158 A 
ATOM     14  F   UNL d   1     -50.274  11.997  21.506  0.00  0.00    -0.203 F 
ATOM     15  C   UNL d   1     -50.519  13.309  21.998  0.00  0.00     0.031 A 
ATOM     16  C   UNL d   1     -50.420  13.888  22.577  0.00  0.00     0.002 A 
ATOM     17  C   UNL d   1     -49.980  13.745  23.242  0.00  0.00     0.002 A 
ATOM     18  C   UNL d   1     -49.623  13.002  23.345  0.00  0.00     0.021 A 
ENDBRANCH   2  12
TORSDOF 3
ENDMDL
MODEL 5
REMARK VINA RESULT:      -7.1      2.017      2.870
REMARK  3 active torsions:
REMARK  status: ('A' for Active; 'I' for Inactive)
REMARK    1  A    between atoms: N_2  and  C_1 
REMARK    2  A    between atoms: C_5  and  C_4 
REMARK       I    between atoms: N_6  and  C_5 
REMARK    3  A    between atoms: C_9  and  N_6 
ROOT
ATOM      1  C   UNL d   1     -49.722  12.588  21.790  0.00  0.00     0.285 C 
ATOM      2  N   UNL d   1     -49.006  12.178  21.744  0.00  0.00    -0.205 NA
ATOM      3  O   UNL d   1     -50.315  12.457  21.256  0.00  0.00    -0.265 OA
ENDROOT
BRANCH   1   4
ATOM      4  C   UNL d   1     -49.848  13.142  22.381  0.00  0.00     0.089 A 
ATOM      5  S   UNL d   1     -49.805  13.933  22.275  0.00  0.00    -0.059 SA
ATOM      6  C   UNL d   1     -49.959  14.324  22.967  0.00  0.00     0.156 A 
ATOM      7  C   UNL d   1     -50.110  13.735  23.552  0.00  0.00     0.031 A 
ATOM      8  C   UNL d   1     -50.040  12.995  23.183  0.00  0.00     0.014 A 
BRANCH   6   9
ATOM      9  N   UNL d   1     -49.963  15.124  23.062  0.00  0.00    -0.107 N 
ATOM     10  O   UNL d   1     -50.306  15.677  22.549  0.00  0.00    -0.531 OA
ATOM     11  O   UNL d   1     -49.626  15.494  23.683  0.00  0.00    -0.531 OA
ENDBRANCH   6   9
ENDBRANCH   1   4
BRANCH   2  12
ATOM     12  C   UNL d   1     -48.421  12.325  22.291  0.00  0.00     0.112 A 
ATOM     13  C   UNL d   1     -47.742  12.736  22.064  0.00  0.00     0.158 A 
ATOM     14  F   UNL d   1     -47.650  13.002  21.282  0.00  0.00    -0.203 F 
ATOM     15  C   UNL d   1     -47.158  12.883  22.611  0.00  0.00     0.031 A 
ATOM     16  C   UNL d   1     -47.246  12.621  23.388  0.00  0.00     0.002 A 
ATOM     17  C   UNL d   1     -47.909  12.217  23.621  0.00  0.00     0.002 A 
ATOM     18  C   UNL d   1     -48.510  12.063  23.068  0.00  0.00     0.021 A 
ENDBRANCH   2  12
TORSDOF 3
ENDMDL
MODEL 6
REMARK VINA RESULT:      -6.0      1.979      3.059
REMARK  3 active torsions:
REMARK  status: ('A' for Active; 'I' for Inactive)
REMARK    1  A    between atoms: N_2  and  C_1 
REMARK    2  A    between atoms: C_5  and  C_4 
REMARK       I    between atoms: N_6  and  C_5 
REMARK    3  A    between atoms: C_9  and  N_6 
ROOT
ATOM      1  C   UNL d   1     -48.894  13.156  21.615  0.00  0.00     0.285 C 
ATOM      2  N   UNL d   1     -48.271  12.638  21.779  0.00  0.00    -0.205 NA
ATOM      3  O   UNL d   1     -49.472  12.962  21.083  0.00  0.00    -0.265 OA
ENDROOT
BRANCH   1   4
ATOM      4  C   UNL d   1     -48.941  13.884  21.990  0.00  0.00     0.089 A 
ATOM      5  S   UNL d   1     -49.479  14.067  22.552  0.00  0.00    -0.059 SA
ATOM      6  C   UNL d   1     -49.376  14.828  22.810  0.00  0.00     0.156 A 
ATOM      7  C   UNL d   1     -48.725  15.146  22.378  0.00  0.00     0.031 A 
ATOM      8  C   UNL d   1     -48.454  14.553  21.864  0.00  0.00     0.014 A 
BRANCH   6   9
ATOM      9  N   UNL d   1     -49.820  15.196  23.373  0.00  0.00    -0.107 N 
ATOM     10  O   UNL d   1     -50.529  14.917  23.698  0.00  0.00    -0.531 OA
ATOM     11  O   UNL d   1     -49.622  15.897  23.698  0.00  0.00    -0.531 OA
ENDBRANCH   6   9
ENDBRANCH   1   4
BRANCH   2  12
ATOM     12  C   UNL d   1     -47.700  12.852  22.317  0.00  0.00     0.112 A 
ATOM     13  C   UNL d   1     -47.666  12.475  23.050  0.00  0.00     0.158 A 
ATOM     14  F   UNL d   1     -48.212  11.878  23.245  0.00  0.00    -0.203 F 
ATOM     15  C   UNL d   1     -47.095  12.688  23.588  0.00  0.00     0.031 A 
ATOM     16  C   UNL d   1     -46.552  13.280  23.399  0.00  0.00     0.002 A 
ATOM     17  C   UNL d   1     -46.576  13.656  22.682  0.00  0.00     0.002 A 
ATOM     18  C   UNL d   1     -47.157  13.443  22.127  0.00  0.00     0.021 A 
ENDBRANCH   2  12
TORSDOF 3
ENDMDL
