MODEL 1
REMARK VINA RESULT:     -10.3      0.000      0.000
REMARK  3 active torsions:
REMARK  status: ('A' for Active; 'I' for Inactive)
REMARK    1  A    between atoms: C_5  and  C_1 
REMARK    2  A    between atoms: C_4  and  C_2 
REMARK       I    between atoms: N_8  and  C_4 
REMARK    3  A    between atoms: C_10  and  N_8 
ROOT
ATOM      1  C   UNL d   1      53.847  31.793  53.905  0.00  0.00     0.118 A 
ATOM      2  C   UNL d   1      53.231  31.777  53.353  0.00  0.00     0.103 A 
ATOM      3  N   UNL d   1      54.056  31.011  54.051  0.00  0.00    -0.126 NA
ATOM      4  O   UNL d   1      53.585  30.516  53.601  0.00  0.00    -0.211 OA
ATOM      5  C   UNL d   1      53.072  30.995  53.168  0.00  0.00     0.131 A 
ATOM      6  C   UNL d   1      52.492  30.738  52.635  0.00  0.00     0.029 C 
ENDROOT
BRANCH   2   7
ATOM      7  C   UNL d   1      52.847  32.444  53.045  0.00  0.00     0.283 C 
ATOM      8  N   UNL d   1      52.077  32.617  53.284  0.00  0.00    -0.204 NA
ATOM      9  O   UNL d   1      53.242  32.920  52.507  0.00  0.00    -0.265 OA
BRANCH   8  10
ATOM     10  C   UNL d   1      51.696  33.279  52.979  0.00  0.00     0.130 A 
ATOM     11  C   UNL d   1      50.997  33.601  53.263  0.00  0.00     0.243 A 
ATOM     12  S   UNL d   1      50.808  34.262  52.797  0.00  0.00    -0.044 SA
ATOM     13  O   UNL d   1      50.556  33.326  53.896  0.00  0.00    -0.278 OA
ATOM     14  C   UNL d   1      51.392  34.344  52.226  0.00  0.00     0.040 A 
ATOM     15  C   UNL d   1      51.948  33.732  52.338  0.00  0.00     0.030 A 
ENDBRANCH   8  10
ENDBRANCH   2   7
BRANCH   1  16
ATOM     16  C   UNL d   1      54.185  32.456  54.244  0.00  0.00     0.058 A 
ATOM     17  C   UNL d   1      53.919  32.736  54.981  0.00  0.00     0.142 A 
ATOM     18  F   UNL d   1      53.309  32.334  55.364  0.00  0.00    -0.204 F 
ATOM     19  C   UNL d   1      54.266  33.401  55.309  0.00  0.00     0.030 A 
ATOM     20  C   UNL d   1      54.875  33.799  54.922  0.00  0.00     0.003 A 
ATOM     21  C   UNL d   1      55.141  33.517  54.184  0.00  0.00     0.012 A 
ATOM     22  C   UNL d   1      54.796  32.850  53.850  0.00  0.00     0.061 A 
ATOM     23 CL   UNL d   1      55.236  32.793  53.140  0.00  0.00    -0.082 Cl
ENDBRANCH   1  16
TORSDOF 3
ENDMDL
MODEL 2
REMARK VINA RESULT:      -8.7      1.438      2.261
REMARK  3 active torsions:
REMARK  status: ('A' for Active; 'I' for Inactive)
REMARK    1  A    between atoms: C_5  and  C_1 
REMARK    2  A    between atoms: C_4  and  C_2 
REMARK       I    between atoms: N_8  and  C_4 
REMARK    3  A    between atoms: C_10  and  N_8 
ROOT
ATOM      1  C   UNL d   1      53.877  33.680  54.526  0.00  0.00     0.118 A 
ATOM      2  C   UNL d   1      53.383  34.289  54.264  0.00  0.00     0.103 A 
ATOM      3  N   UNL d   1      54.267  33.959  55.194  0.00  0.00    -0.126 NA
ATOM      4  O   UNL d   1      54.024  34.725  55.348  0.00  0.00    -0.211 OA
ATOM      5  C   UNL d   1      53.474  34.928  54.768  0.00  0.00     0.131 A 
ATOM      6  C   UNL d   1      53.077  35.652  54.699  0.00  0.00     0.029 C 
ENDROOT
BRANCH   2   7
ATOM      7  C   UNL d   1      52.885  34.250  53.602  0.00  0.00     0.283 C 
ATOM      8  N   UNL d   1      52.072  34.166  53.710  0.00  0.00    -0.204 NA
ATOM      9  O   UNL d   1      53.212  34.297  52.852  0.00  0.00    -0.265 OA
BRANCH   8  10
ATOM     10  C   UNL d   1      51.577  34.128  53.054  0.00  0.00     0.130 A 
ATOM     11  C   UNL d   1      50.813  33.829  53.048  0.00  0.00     0.243 A 
ATOM     12  S   UNL d   1      50.514  33.895  52.277  0.00  0.00    -0.044 SA
ATOM     13  O   UNL d   1      50.408  33.517  53.688  0.00  0.00    -0.278 OA
ATOM     14  C   UNL d   1      51.096  34.235  51.808  0.00  0.00     0.040 A 
ATOM     15  C   UNL d   1      51.761  34.382  52.291  0.00  0.00     0.030 A 
ENDBRANCH   8  10
ENDBRANCH   2   7
BRANCH   1  16
ATOM     16  C   UNL d   1      53.965  32.939  54.188  0.00  0.00     0.058 A 
ATOM     17  C   UNL d   1      53.498  32.301  54.445  0.00  0.00     0.142 A 
ATOM     18  F   UNL d   1      52.945  32.425  55.045  0.00  0.00    -0.204 F 
ATOM     19  C   UNL d   1      53.595  31.565  54.099  0.00  0.00     0.030 A 
ATOM     20  C   UNL d   1      54.148  31.446  53.501  0.00  0.00     0.003 A 
ATOM     21  C   UNL d   1      54.616  32.087  53.244  0.00  0.00     0.012 A 
ATOM     22  C   UNL d   1      54.522  32.828  53.588  0.00  0.00     0.061 A 
ATOM     23 CL   UNL d   1      55.092  33.266  53.160  0.00  0.00    -0.082 Cl
ENDBRANCH   1  16
TORSDOF 3
ENDMDL
MODEL 3
REMARK VINA RESULT:      -8.7      1.752      3.342
REMARK  3 active torsions:
REMARK  status: ('A' for Active; 'I' for Inactive)
REMARK    1  A    between atoms: C_5  and  C_1 
REMARK    2  A    between atoms: C_4  and  C_2 
REMARK       I    between atoms: N_8  and  C_4 
REMARK    3  A    between atoms: C_10  and  N_8 
ROOT
ATOM      1  C   UNL d   1      52.888  34.084  54.026  0.00  0.00     0.118 A 
ATOM      2  C   UNL d   1      53.465  33.498  54.118  0.00  0.00     0.103 A 
ATOM      3  N   UNL d   1      53.082  34.693  54.542  0.00  0.00    -0.126 NA
ATOM      4  O   UNL d   1      53.764  34.497  54.949  0.00  0.00    -0.211 OA
ATOM      5  C   UNL d   1      54.000  33.753  54.684  0.00  0.00     0.131 A 
ATOM      6  C   UNL d   1      54.664  33.327  54.941  0.00  0.00     0.029 C 
ENDROOT
BRANCH   2   7
ATOM      7  C   UNL d   1      53.489  32.780  53.705  0.00  0.00     0.283 C 
ATOM      8  N   UNL d   1      53.307  32.078  54.098  0.00  0.00    -0.204 NA
ATOM      9  O   UNL d   1      53.694  32.782  52.912  0.00  0.00    -0.265 OA
BRANCH   8  10
ATOM     10  C   UNL d   1      53.331  31.366  53.689  0.00  0.00     0.130 A 
ATOM     11  C   UNL d   1      53.262  30.619  54.023  0.00  0.00     0.243 A 
ATOM     12  S   UNL d   1      53.316  30.057  53.415  0.00  0.00    -0.044 SA
ATOM     13  O   UNL d   1      53.157  30.450  54.817  0.00  0.00    -0.278 OA
ATOM     14  C   UNL d   1      53.419  30.458  52.707  0.00  0.00     0.040 A 
ATOM     15  C   UNL d   1      53.429  31.276  52.875  0.00  0.00     0.030 A 
ENDBRANCH   8  10
ENDBRANCH   2   7
BRANCH   1  16
ATOM     16  C   UNL d   1      52.246  34.064  53.518  0.00  0.00     0.058 A 
ATOM     17  C   UNL d   1      51.528  33.723  53.761  0.00  0.00     0.142 A 
ATOM     18  F   UNL d   1      51.472  33.406  54.521  0.00  0.00    -0.204 F 
ATOM     19  C   UNL d   1      50.893  33.710  53.244  0.00  0.00     0.030 A 
ATOM     20  C   UNL d   1      50.953  34.028  52.487  0.00  0.00     0.003 A 
ATOM     21  C   UNL d   1      51.675  34.369  52.245  0.00  0.00     0.012 A 
ATOM     22  C   UNL d   1      52.315  34.385  52.760  0.00  0.00     0.061 A 
ATOM     23 CL   UNL d   1      52.884  34.768  52.280  0.00  0.00    -0.082 Cl
ENDBRANCH   1  16
TORSDOF 3
ENDMDL
MODEL 4
REMARK VINA RESULT:      -8.4      1.905      3.322
REMARK  3 active torsions:
REMARK  status: ('A' for Active; 'I' for Inactive)
REMARK    1  A    between atoms: C_5  and  C_1 
REMARK    2  A    between atoms: C_4  and  C_2 
REMARK       I    between atoms: N_8  and  C_4 
REMARK    3  A    between atoms: C_10  and  N_8 
ROOT
ATOM      1  C   UNL d   1      52.455  32.321  52.835  0.00  0.00     0.118 A 
ATOM      2  C   UNL d   1      53.018  32.014  53.358  0.00  0.00     0.103 A 
ATOM      3  N   UNL d   1      52.284  31.727  52.293  0.00  0.00    -0.126 NA
ATOM      4  O   UNL d   1      52.728  31.062  52.470  0.00  0.00    -0.211 OA
ATOM      5  C   UNL d   1      53.184  31.244  53.133  0.00  0.00     0.131 A 
ATOM      6  C   UNL d   1      53.721  30.740  53.514  0.00  0.00     0.029 C 
ENDROOT
BRANCH   2   7
ATOM      7  C   UNL d   1      53.352  32.424  53.997  0.00  0.00     0.283 C 
ATOM      8  N   UNL d   1      54.145  32.646  53.969  0.00  0.00    -0.204 NA
ATOM      9  O   UNL d   1      52.884  32.599  54.647  0.00  0.00    -0.265 OA
BRANCH   8  10
ATOM     10  C   UNL d   1      54.476  33.052  54.602  0.00  0.00     0.130 A 
ATOM     11  C   UNL d   1      55.164  33.499  54.577  0.00  0.00     0.243 A 
ATOM     12  S   UNL d   1      55.298  33.812  55.334  0.00  0.00    -0.044 SA
ATOM     13  O   UNL d   1      55.641  33.620  53.923  0.00  0.00    -0.278 OA
ATOM     14  C   UNL d   1      54.691  33.557  55.825  0.00  0.00     0.040 A 
ATOM     15  C   UNL d   1      54.176  33.082  55.370  0.00  0.00     0.030 A 
ENDBRANCH   8  10
ENDBRANCH   2   7
BRANCH   1  16
ATOM     16  C   UNL d   1      52.129  33.071  52.851  0.00  0.00     0.058 A 
ATOM     17  C   UNL d   1      52.511  33.705  52.471  0.00  0.00     0.142 A 
ATOM     18  F   UNL d   1      53.223  33.566  52.079  0.00  0.00    -0.204 F 
ATOM     19  C   UNL d   1      52.173  34.451  52.494  0.00  0.00     0.030 A 
ATOM     20  C   UNL d   1      51.461  34.585  52.887  0.00  0.00     0.003 A 
ATOM     21  C   UNL d   1      51.080  33.948  53.267  0.00  0.00     0.012 A 
ATOM     22  C   UNL d   1      51.415  33.197  53.247  0.00  0.00     0.061 A 
ATOM     23 CL   UNL d   1      50.847  32.768  53.688  0.00  0.00    -0.082 Cl
ENDBRANCH   1  16
TORSDOF 3
ENDMDL
MODEL 5
REMARK VINA RESULT:      -8.2      1.732      2.855
REMARK  3 active torsions:
REMARK  status: ('A' for Active; 'I' for Inactive)
REMARK    1  A    between atoms: C_5  and  C_1 
REMARK    2  A    between atoms: C_4  and  C_2 
REMARK       I    between atoms: N_8  and  C_4 
REMARK    3  A    between atoms: C_10  and  N_8 
ROOT
ATOM      1  C   UNL d   1      53.138  34.009  53.431  0.00  0.00     0.118 A 
ATOM      2  C   UNL d   1      52.536  33.521  53.142  0.00  0.00     0.103 A 
ATOM      3  N   UNL d   1      53.035  34.747  53.084  0.00  0.00    -0.126 NA
ATOM      4  O   UNL d   1      52.384  34.725  52.589  0.00  0.00    -0.211 OA
ATOM      5  C   UNL d   1      52.075  33.961  52.627  0.00  0.00     0.131 A 
ATOM      6  C   UNL d   1      51.412  33.678  52.217  0.00  0.00     0.029 C 
ENDROOT
BRANCH   2   7
ATOM      7  C   UNL d   1      52.425  32.725  53.345  0.00  0.00     0.283 C 
ATOM      8  N   UNL d   1      52.626  32.136  52.804  0.00  0.00    -0.204 NA
ATOM      9  O   UNL d   1      52.118  32.540  54.081  0.00  0.00    -0.265 OA
BRANCH   8  10
ATOM     10  C   UNL d   1      52.516  31.346  53.005  0.00  0.00     0.130 A 
ATOM     11  C   UNL d   1      52.898  30.708  52.659  0.00  0.00     0.243 A 
ATOM     12  S   UNL d   1      52.627  30.014  53.025  0.00  0.00    -0.044 SA
ATOM     13  O   UNL d   1      53.453  30.740  52.057  0.00  0.00    -0.278 OA
ATOM     14  C   UNL d   1      52.077  30.227  53.596  0.00  0.00     0.040 A 
ATOM     15  C   UNL d   1      52.006  31.059  53.585  0.00  0.00     0.030 A 
ENDBRANCH   8  10
ENDBRANCH   2   7
BRANCH   1  16
ATOM     16  C   UNL d   1      53.727  33.800  53.960  0.00  0.00     0.058 A 
ATOM     17  C   UNL d   1      54.444  33.480  53.689  0.00  0.00     0.142 A 
ATOM     18  F   UNL d   1      54.554  33.375  52.878  0.00  0.00    -0.204 F 
ATOM     19  C   UNL d   1      55.025  33.275  54.229  0.00  0.00     0.030 A 
ATOM     20  C   UNL d   1      54.911  33.382  55.038  0.00  0.00     0.003 A 
ATOM     21  C   UNL d   1      54.191  33.704  55.308  0.00  0.00     0.012 A 
ATOM     22  C   UNL d   1      53.604  33.910  54.770  0.00  0.00     0.061 A 
ATOM     23 CL   UNL d   1      53.015  34.196  55.292  0.00  0.00    -0.082 Cl
ENDBRANCH   1  16
TORSDOF 3
ENDMDL
