MODEL 1
REMARK VINA RESULT:      17.6      0.000      0.000
REMARK  9 active torsions:
REMARK  status: ('A' for Active; 'I' for Inactive)
REMARK    1  A    between atoms: C_10  and  N_1 
REMARK    2  A    between atoms: C_7  and  N_3 
REMARK    3  A    between atoms: C_8  and  C_7 
REMARK       I    between atoms: N_12  and  C_8 
REMARK    4  A    between atoms: C_13  and  C_10 
REMARK    5  A    between atoms: C_21  and  N_12 
REMARK    6  A    between atoms: C_28  and  N_12 
REMARK       I    between atoms: N_19  and  C_13 
REMARK    7  A    between atoms: C_17  and  C_26 
REMARK    8  A    between atoms: C_26  and  N_19 
REMARK    9  A    between atoms: C_27  and  C_21 
ROOT
ATOM      1  N   UNL d   1     -41.502-122.096 -51.185  0.00  0.00    -0.220 N 
ATOM      2  C   UNL d   1     -41.604-121.517 -51.762  0.00  0.00     0.342 A 
ATOM      3  N   UNL d   1     -41.550-121.712 -52.579  0.00  0.00    -0.254 N 
ATOM      4  C   UNL d   1     -41.289-123.077 -52.200  0.00  0.00     0.102 A 
ATOM      5  C   UNL d   1     -41.346-122.869 -51.409  0.00  0.00     0.276 A 
ATOM      6  C   UNL d   1     -41.393-122.487 -52.788  0.00  0.00     0.080 A 
ATOM      7  S   UNL d   1     -41.138-123.809 -52.586  0.00  0.00    -0.080 SA
ATOM      8  C   UNL d   1     -41.306-122.858 -53.546  0.00  0.00     0.025 A 
ATOM      9  O   UNL d   1     -41.760-120.748 -51.551  0.00  0.00    -0.245 OA
ATOM     10  C   UNL d   1     -41.147-123.676 -53.411  0.00  0.00     0.037 A 
ATOM     11  O   UNL d   1     -41.245-123.442 -50.838  0.00  0.00    -0.266 OA
ENDROOT
BRANCH   3  12
ATOM     12  C   UNL d   1     -41.649-121.148 -53.158  0.00  0.00     0.146 C 
BRANCH  12  13
ATOM     13  C   UNL d   1     -42.223-121.248 -53.746  0.00  0.00     0.283 C 
ATOM     14  N   UNL d   1     -42.214-120.766 -54.415  0.00  0.00    -0.271 N 
ATOM     15  O   UNL d   1     -42.797-121.828 -53.654  0.00  0.00    -0.265 OA
BRANCH  14  16
ATOM     16  C   UNL d   1     -42.791-120.873 -54.997  0.00  0.00     0.083 C 
BRANCH  16  17
ATOM     17  C   UNL d   1     -42.636-121.366 -55.638  0.00  0.00     0.018 A 
ATOM     18  C   UNL d   1     -41.918-121.309 -56.035  0.00  0.00     0.002 A 
ATOM     19  C   UNL d   1     -41.758-121.807 -56.684  0.00  0.00     0.000 A 
ATOM     20  C   UNL d   1     -42.317-122.352 -56.925  0.00  0.00     0.000 A 
ATOM     21  C   UNL d   1     -43.040-122.414 -56.529  0.00  0.00     0.000 A 
ATOM     22  C   UNL d   1     -43.201-121.920 -55.884  0.00  0.00     0.002 A 
ENDBRANCH  16  17
ENDBRANCH  14  16
BRANCH  14  23
ATOM     23  C   UNL d   1     -41.641-120.191 -54.500  0.00  0.00     0.083 C 
ATOM     24  C   UNL d   1     -41.573-119.585 -53.946  0.00  0.00     0.021 C 
ENDBRANCH  14  23
ENDBRANCH  12  13
ENDBRANCH   3  12
BRANCH   1  25
ATOM     25  C   UNL d   1     -41.557-121.898 -50.406  0.00  0.00     0.150 C 
BRANCH  25  26
ATOM     26  C   UNL d   1     -42.092-122.291 -49.918  0.00  0.00     0.297 C 
ATOM     27  N   UNL d   1     -41.827-122.713 -49.259  0.00  0.00    -0.203 NA
ATOM     28  O   UNL d   1     -42.899-122.266 -50.084  0.00  0.00    -0.264 OA
BRANCH  27  29
ATOM     29  C   UNL d   1     -42.359-123.106 -48.770  0.00  0.00     0.127 C 
BRANCH  29  30
ATOM     30  C   UNL d   1     -42.284-123.063 -47.953  0.00  0.00     0.119 A 
ATOM     31  O   UNL d   1     -41.725-123.467 -47.495  0.00  0.00    -0.304 OA
ATOM     32  C   UNL d   1     -41.852-123.261 -46.709  0.00  0.00     0.123 A 
ATOM     33  C   UNL d   1     -42.490-122.729 -46.678  0.00  0.00     0.029 A 
ATOM     34  C   UNL d   1     -42.747-122.616 -47.452  0.00  0.00     0.028 A 
ENDBRANCH  29  30
ENDBRANCH  27  29
ENDBRANCH  25  26
ENDBRANCH   1  25
TORSDOF 9
ENDMDL
