MODEL 1
REMARK VINA RESULT:      72.4      0.000      0.000
REMARK  3 active torsions:
REMARK  status: ('A' for Active; 'I' for Inactive)
REMARK    1  A    between atoms: N_6  and  C_1 
REMARK    2  A    between atoms: C_14  and  N_4 
REMARK    3  A    between atoms: C_7  and  N_6 
ROOT
ATOM      1  C   UNL d   1     -49.358  27.456  33.833  0.00  0.00     0.157 A 
ATOM      2  C   UNL d   1     -48.723  27.715  34.294  0.00  0.00     0.298 A 
ATOM      3  N   UNL d   1     -49.552  28.693  34.096  0.00  0.00    -0.238 N 
ATOM      4  N   UNL d   1     -48.833  28.476  34.462  0.00  0.00    -0.209 N 
ATOM      5  C   UNL d   1     -49.820  28.031  33.732  0.00  0.00     0.104 A 
ATOM      6  O   UNL d   1     -48.076  27.250  34.541  0.00  0.00    -0.263 OA
ATOM      7  C   UNL d   1     -49.944  29.433  34.087  0.00  0.00     0.120 C 
ATOM      8  C   UNL d   1     -50.500  28.001  33.313  0.00  0.00     0.022 C 
ENDROOT
BRANCH   1   9
ATOM      9  N   UNL d   1     -49.480  26.703  33.529  0.00  0.00    -0.239 NA
BRANCH   9  10
ATOM     10  C   UNL d   1     -50.228  26.407  33.481  0.00  0.00     0.082 A 
ATOM     11  C   UNL d   1     -50.372  25.576  33.428  0.00  0.00     0.021 A 
ATOM     12  C   UNL d   1     -51.129  25.268  33.379  0.00  0.00     0.040 A 
ATOM     13  C   UNL d   1     -49.730  25.068  33.424  0.00  0.00     0.002 A 
ATOM     14  C   UNL d   1     -51.257  24.457  33.327  0.00  0.00     0.003 A 
ATOM     15  C   UNL d   1     -51.772  25.776  33.383  0.00  0.00     0.196 A 
ATOM     16  C   UNL d   1     -50.598  23.960  33.325  0.00  0.00     0.000 A 
ATOM     17  C   UNL d   1     -49.843  24.256  33.373  0.00  0.00     0.000 A 
ATOM     18  C   UNL d   1     -51.656  26.591  33.434  0.00  0.00     0.044 A 
ATOM     19  O   UNL d   1     -52.561  25.448  33.332  0.00  0.00    -0.287 OA
ATOM     20  C   UNL d   1     -50.862  26.908  33.485  0.00  0.00     0.022 A 
ENDBRANCH   9  10
ENDBRANCH   1   9
BRANCH   4  21
ATOM     21  C   UNL d   1     -48.333  28.950  34.908  0.00  0.00     0.085 A 
ATOM     22  C   UNL d   1     -48.171  28.743  35.708  0.00  0.00     0.019 A 
ATOM     23  C   UNL d   1     -47.666  29.215  36.168  0.00  0.00     0.002 A 
ATOM     24  C   UNL d   1     -47.312  29.898  35.853  0.00  0.00     0.000 A 
ATOM     25  C   UNL d   1     -47.466  30.113  35.060  0.00  0.00     0.002 A 
ATOM     26  C   UNL d   1     -47.972  29.635  34.605  0.00  0.00     0.019 A 
ENDBRANCH   4  21
TORSDOF 3
ENDMDL
MODEL 2
REMARK VINA RESULT:      73.9      1.923      2.719
REMARK  3 active torsions:
REMARK  status: ('A' for Active; 'I' for Inactive)
REMARK    1  A    between atoms: N_6  and  C_1 
REMARK    2  A    between atoms: C_14  and  N_4 
REMARK    3  A    between atoms: C_7  and  N_6 
ROOT
ATOM      1  C   UNL d   1     -50.904  26.558  34.044  0.00  0.00     0.157 A 
ATOM      2  C   UNL d   1     -51.210  26.437  34.801  0.00  0.00     0.298 A 
ATOM      3  N   UNL d   1     -50.161  27.197  34.865  0.00  0.00    -0.238 N 
ATOM      4  N   UNL d   1     -50.760  26.827  35.316  0.00  0.00    -0.209 N 
ATOM      5  C   UNL d   1     -50.304  26.995  34.104  0.00  0.00     0.104 A 
ATOM      6  O   UNL d   1     -51.882  25.980  34.990  0.00  0.00    -0.263 OA
ATOM      7  C   UNL d   1     -49.528  27.684  35.118  0.00  0.00     0.120 C 
ATOM      8  C   UNL d   1     -49.854  27.238  33.489  0.00  0.00     0.022 C 
ENDROOT
BRANCH   1   9
ATOM      9  N   UNL d   1     -51.192  26.258  33.335  0.00  0.00    -0.239 NA
BRANCH   9  10
ATOM     10  C   UNL d   1     -51.717  25.646  33.343  0.00  0.00     0.082 A 
ATOM     11  C   UNL d   1     -51.457  24.842  33.334  0.00  0.00     0.021 A 
ATOM     12  C   UNL d   1     -51.985  24.215  33.342  0.00  0.00     0.040 A 
ATOM     13  C   UNL d   1     -50.653  24.691  33.318  0.00  0.00     0.002 A 
ATOM     14  C   UNL d   1     -51.721  23.436  33.333  0.00  0.00     0.003 A 
ATOM     15  C   UNL d   1     -52.790  24.366  33.358  0.00  0.00     0.196 A 
ATOM     16  C   UNL d   1     -50.905  23.303  33.317  0.00  0.00     0.000 A 
ATOM     17  C   UNL d   1     -50.375  23.918  33.309  0.00  0.00     0.000 A 
ATOM     18  C   UNL d   1     -53.066  25.143  33.367  0.00  0.00     0.044 A 
ATOM     19  O   UNL d   1     -53.335  23.706  33.366  0.00  0.00    -0.287 OA
ATOM     20  C   UNL d   1     -52.511  25.795  33.359  0.00  0.00     0.022 A 
ENDBRANCH   9  10
ENDBRANCH   1   9
BRANCH   4  21
ATOM     21  C   UNL d   1     -50.868  26.855  36.129  0.00  0.00     0.085 A 
ATOM     22  C   UNL d   1     -50.230  27.095  36.623  0.00  0.00     0.019 A 
ATOM     23  C   UNL d   1     -50.328  27.127  37.447  0.00  0.00     0.002 A 
ATOM     24  C   UNL d   1     -51.054  26.925  37.801  0.00  0.00     0.000 A 
ATOM     25  C   UNL d   1     -51.693  26.686  37.319  0.00  0.00     0.002 A 
ATOM     26  C   UNL d   1     -51.587  26.656  36.494  0.00  0.00     0.019 A 
ENDBRANCH   4  21
TORSDOF 3
ENDMDL
