MODEL 1
REMARK VINA RESULT:      -2.4      0.000      0.000
REMARK  3 active torsions:
REMARK  status: ('A' for Active; 'I' for Inactive)
REMARK    1  A    between atoms: C_14  and  N_3 
REMARK    2  A    between atoms: O_17  and  C_12 
REMARK    3  A    between atoms: O_16  and  C_13 
ROOT
ATOM      1  C   UNL d   1      33.237  21.655 -21.831  0.00  0.00     0.166 A 
ATOM      2  C   UNL d   1      33.237  21.145 -21.154  0.00  0.00     0.117 A 
ATOM      3  N   UNL d   1      33.236  22.439 -21.554  0.00  0.00    -0.289 N 
ATOM      4  N   UNL d   1      33.237  21.304 -22.591  0.00  0.00    -0.225 NA
ATOM      5  N   UNL d   1      33.238  20.332 -21.252  0.00  0.00    -0.241 NA
ATOM      6  C   UNL d   1      33.236  21.638 -20.498  0.00  0.00     0.037 A 
ATOM      7  C   UNL d   1      33.236  22.426 -20.741  0.00  0.00     0.067 A 
ATOM      8  C   UNL d   1      33.238  20.495 -22.690  0.00  0.00     0.103 A 
ATOM      9  C   UNL d   1      33.238  20.009 -22.020  0.00  0.00     0.101 A 
ATOM     10  C   UNL d   1      33.239  20.185 -23.433  0.00  0.00     0.047 A 
ATOM     11  C   UNL d   1      33.239  19.196 -22.116  0.00  0.00     0.047 A 
ATOM     12  C   UNL d   1      33.240  18.845 -22.876  0.00  0.00     0.118 A 
ATOM     13  C   UNL d   1      33.240  19.367 -23.528  0.00  0.00     0.118 A 
ATOM     14  C   UNL d   1      33.236  21.459 -19.690  0.00  0.00     0.003 A 
ATOM     15  C   UNL d   1      33.235  23.011 -20.170  0.00  0.00     0.018 A 
ATOM     16  C   UNL d   1      33.235  22.063 -19.124  0.00  0.00     0.000 A 
ATOM     17  C   UNL d   1      33.235  22.851 -19.367  0.00  0.00     0.002 A 
ENDROOT
BRANCH   3  18
ATOM     18  C   UNL d   1      33.235  23.101 -22.020  0.00  0.00     0.082 C 
ATOM     19  C   UNL d   1      32.525  23.392 -22.324  0.00  0.00     0.021 C 
ENDBRANCH   3  18
BRANCH  13  20
ATOM     20  O   UNL d   1      33.240  19.052 -24.273  0.00  0.00    -0.326 OA
ATOM     21  C   UNL d   1      33.206  19.538 -24.944  0.00  0.00     0.181 C 
ENDBRANCH  13  20
BRANCH  12  22
ATOM     22  O   UNL d   1      33.241  18.010 -22.966  0.00  0.00    -0.326 OA
ATOM     23  C   UNL d   1      33.224  17.521 -22.291  0.00  0.00     0.181 C 
ENDBRANCH  12  22
TORSDOF 3
ENDMDL
MODEL 2
REMARK VINA RESULT:      -2.1      1.664      4.068
REMARK  3 active torsions:
REMARK  status: ('A' for Active; 'I' for Inactive)
REMARK    1  A    between atoms: C_14  and  N_3 
REMARK    2  A    between atoms: O_17  and  C_12 
REMARK    3  A    between atoms: O_16  and  C_13 
ROOT
ATOM      1  C   UNL d   1      33.236  19.900 -23.270  0.00  0.00     0.166 A 
ATOM      2  C   UNL d   1      33.235  19.471 -22.540  0.00  0.00     0.117 A 
ATOM      3  N   UNL d   1      33.236  19.344 -23.888  0.00  0.00    -0.289 N 
ATOM      4  N   UNL d   1      33.238  20.737 -23.238  0.00  0.00    -0.225 NA
ATOM      5  N   UNL d   1      33.235  19.873 -21.826  0.00  0.00    -0.241 NA
ATOM      6  C   UNL d   1      33.234  18.675 -22.743  0.00  0.00     0.037 A 
ATOM      7  C   UNL d   1      33.235  18.598 -23.564  0.00  0.00     0.067 A 
ATOM      8  C   UNL d   1      33.238  21.138 -22.528  0.00  0.00     0.103 A 
ATOM      9  C   UNL d   1      33.236  20.707 -21.823  0.00  0.00     0.101 A 
ATOM     10  C   UNL d   1      33.239  21.943 -22.528  0.00  0.00     0.047 A 
ATOM     11  C   UNL d   1      33.236  21.107 -21.109  0.00  0.00     0.047 A 
ATOM     12  C   UNL d   1      33.237  21.943 -21.076  0.00  0.00     0.118 A 
ATOM     13  C   UNL d   1      33.239  22.345 -21.808  0.00  0.00     0.118 A 
ATOM     14  C   UNL d   1      33.232  17.998 -22.267  0.00  0.00     0.003 A 
ATOM     15  C   UNL d   1      33.234  17.846 -23.885  0.00  0.00     0.018 A 
ATOM     16  C   UNL d   1      33.232  17.244 -22.608  0.00  0.00     0.000 A 
ATOM     17  C   UNL d   1      33.232  17.166 -23.429  0.00  0.00     0.002 A 
ENDROOT
BRANCH   3  18
ATOM     18  C   UNL d   1      33.237  19.520 -24.678  0.00  0.00     0.082 C 
ATOM     19  C   UNL d   1      32.526  19.542 -25.097  0.00  0.00     0.021 C 
ENDBRANCH   3  18
BRANCH  13  20
ATOM     20  O   UNL d   1      33.240  23.154 -21.803  0.00  0.00    -0.326 OA
ATOM     21  C   UNL d   1      32.954  23.587 -22.451  0.00  0.00     0.181 C 
ENDBRANCH  13  20
BRANCH  12  22
ATOM     22  O   UNL d   1      33.237  22.347 -20.340  0.00  0.00    -0.326 OA
ATOM     23  C   UNL d   1      32.961  21.959 -19.655  0.00  0.00     0.181 C 
ENDBRANCH  12  22
TORSDOF 3
ENDMDL
MODEL 3
REMARK VINA RESULT:      -1.4      0.964      2.311
REMARK  3 active torsions:
REMARK  status: ('A' for Active; 'I' for Inactive)
REMARK    1  A    between atoms: C_14  and  N_3 
REMARK    2  A    between atoms: O_17  and  C_12 
REMARK    3  A    between atoms: O_16  and  C_13 
ROOT
ATOM      1  C   UNL d   1      33.215  20.627 -22.066  0.00  0.00     0.166 A 
ATOM      2  C   UNL d   1      33.196  20.927 -22.859  0.00  0.00     0.117 A 
ATOM      3  N   UNL d   1      33.217  21.280 -21.552  0.00  0.00    -0.289 N 
ATOM      4  N   UNL d   1      33.228  19.797 -21.957  0.00  0.00    -0.225 NA
ATOM      5  N   UNL d   1      33.190  20.410 -23.494  0.00  0.00    -0.241 NA
ATOM      6  C   UNL d   1      33.187  21.745 -22.793  0.00  0.00     0.037 A 
ATOM      7  C   UNL d   1      33.200  21.960 -21.996  0.00  0.00     0.067 A 
ATOM      8  C   UNL d   1      33.222  19.282 -22.589  0.00  0.00     0.103 A 
ATOM      9  C   UNL d   1      33.203  19.588 -23.357  0.00  0.00     0.101 A 
ATOM     10  C   UNL d   1      33.234  18.489 -22.454  0.00  0.00     0.047 A 
ATOM     11  C   UNL d   1      33.197  19.073 -23.993  0.00  0.00     0.047 A 
ATOM     12  C   UNL d   1      33.210  18.243 -23.884  0.00  0.00     0.118 A 
ATOM     13  C   UNL d   1      33.228  17.971 -23.095  0.00  0.00     0.118 A 
ATOM     14  C   UNL d   1      33.169  22.333 -23.376  0.00  0.00     0.003 A 
ATOM     15  C   UNL d   1      33.194  22.756 -21.807  0.00  0.00     0.018 A 
ATOM     16  C   UNL d   1      33.163  23.134 -23.167  0.00  0.00     0.000 A 
ATOM     17  C   UNL d   1      33.176  23.349 -22.371  0.00  0.00     0.002 A 
ENDROOT
BRANCH   3  18
ATOM     18  C   UNL d   1      33.233  21.240 -20.743  0.00  0.00     0.082 C 
ATOM     19  C   UNL d   1      32.528  21.266 -20.315  0.00  0.00     0.021 C 
ENDBRANCH   3  18
BRANCH  13  20
ATOM     20  O   UNL d   1      33.241  17.172 -22.963  0.00  0.00    -0.326 OA
ATOM     21  C   UNL d   1      33.081  16.860 -22.212  0.00  0.00     0.181 C 
ENDBRANCH  13  20
BRANCH  12  22
ATOM     22  O   UNL d   1      33.203  17.721 -24.541  0.00  0.00    -0.326 OA
ATOM     23  C   UNL d   1      32.582  17.762 -25.096  0.00  0.00     0.181 C 
ENDBRANCH  12  22
TORSDOF 3
ENDMDL
MODEL 4
REMARK VINA RESULT:      -0.9      4.724      6.114
REMARK  3 active torsions:
REMARK  status: ('A' for Active; 'I' for Inactive)
REMARK    1  A    between atoms: C_14  and  N_3 
REMARK    2  A    between atoms: O_17  and  C_12 
REMARK    3  A    between atoms: O_16  and  C_13 
ROOT
ATOM      1  C   UNL d   1      29.663  17.057 -24.190  0.00  0.00     0.166 A 
ATOM      2  C   UNL d   1      29.652  16.344 -23.732  0.00  0.00     0.117 A 
ATOM      3  N   UNL d   1      28.873  17.272 -24.338  0.00  0.00    -0.289 N 
ATOM      4  N   UNL d   1      30.405  17.387 -24.391  0.00  0.00    -0.225 NA
ATOM      5  N   UNL d   1      30.354  15.995 -23.498  0.00  0.00    -0.241 NA
ATOM      6  C   UNL d   1      28.860  16.156 -23.622  0.00  0.00     0.037 A 
ATOM      7  C   UNL d   1      28.386  16.721 -23.992  0.00  0.00     0.067 A 
ATOM      8  C   UNL d   1      31.106  17.041 -24.159  0.00  0.00     0.103 A 
ATOM      9  C   UNL d   1      31.080  16.345 -23.713  0.00  0.00     0.101 A 
ATOM     10  C   UNL d   1      31.805  17.380 -24.367  0.00  0.00     0.047 A 
ATOM     11  C   UNL d   1      31.781  15.994 -23.478  0.00  0.00     0.047 A 
ATOM     12  C   UNL d   1      32.524  16.324 -23.679  0.00  0.00     0.118 A 
ATOM     13  C   UNL d   1      32.511  17.027 -24.131  0.00  0.00     0.118 A 
ATOM     14  C   UNL d   1      28.508  15.523 -23.221  0.00  0.00     0.003 A 
ATOM     15  C   UNL d   1      27.573  16.636 -23.949  0.00  0.00     0.018 A 
ATOM     16  C   UNL d   1      27.684  15.453 -23.187  0.00  0.00     0.000 A 
ATOM     17  C   UNL d   1      27.209  16.018 -23.557  0.00  0.00     0.002 A 
ENDROOT
BRANCH   3  18
ATOM     18  C   UNL d   1      28.634  17.921 -24.758  0.00  0.00     0.082 C 
ATOM     19  C   UNL d   1      28.461  18.626 -24.366  0.00  0.00     0.021 C 
ENDBRANCH   3  18
BRANCH  13  20
ATOM     20  O   UNL d   1      33.216  17.365 -24.338  0.00  0.00    -0.326 OA
ATOM     21  C   UNL d   1      33.241  18.060 -24.790  0.00  0.00     0.181 C 
ENDBRANCH  13  20
BRANCH  12  22
ATOM     22  O   UNL d   1      33.240  15.959 -23.435  0.00  0.00    -0.326 OA
ATOM     23  C   UNL d   1      33.241  15.454 -22.771  0.00  0.00     0.181 C 
ENDBRANCH  12  22
TORSDOF 3
ENDMDL
MODEL 5
REMARK VINA RESULT:      -0.3      0.928      1.253
REMARK  3 active torsions:
REMARK  status: ('A' for Active; 'I' for Inactive)
REMARK    1  A    between atoms: C_14  and  N_3 
REMARK    2  A    between atoms: O_17  and  C_12 
REMARK    3  A    between atoms: O_16  and  C_13 
ROOT
ATOM      1  C   UNL d   1      32.663  22.296 -20.800  0.00  0.00     0.166 A 
ATOM      2  C   UNL d   1      32.943  21.779 -20.190  0.00  0.00     0.117 A 
ATOM      3  N   UNL d   1      32.547  23.045 -20.459  0.00  0.00    -0.289 N 
ATOM      4  N   UNL d   1      32.564  21.982 -21.570  0.00  0.00    -0.225 NA
ATOM      5  N   UNL d   1      33.109  20.995 -20.358  0.00  0.00    -0.241 NA
ATOM      6  C   UNL d   1      32.984  22.233 -19.507  0.00  0.00     0.037 A 
ATOM      7  C   UNL d   1      32.743  23.005 -19.671  0.00  0.00     0.067 A 
ATOM      8  C   UNL d   1      32.729  21.202 -21.739  0.00  0.00     0.103 A 
ATOM      9  C   UNL d   1      33.001  20.709 -21.134  0.00  0.00     0.101 A 
ATOM     10  C   UNL d   1      32.624  20.929 -22.489  0.00  0.00     0.047 A 
ATOM     11  C   UNL d   1      33.167  19.925 -21.301  0.00  0.00     0.047 A 
ATOM     12  C   UNL d   1      33.068  19.612 -22.071  0.00  0.00     0.118 A 
ATOM     13  C   UNL d   1      32.791  20.139 -22.656  0.00  0.00     0.118 A 
ATOM     14  C   UNL d   1      33.218  22.032 -18.739  0.00  0.00     0.003 A 
ATOM     15  C   UNL d   1      32.743  23.551 -19.063  0.00  0.00     0.018 A 
ATOM     16  C   UNL d   1      33.212  22.597 -18.134  0.00  0.00     0.000 A 
ATOM     17  C   UNL d   1      32.971  23.369 -18.299  0.00  0.00     0.002 A 
ENDROOT
BRANCH   3  18
ATOM     18  C   UNL d   1      32.282  23.702 -20.850  0.00  0.00     0.082 C 
ATOM     19  C   UNL d   1      31.562  23.681 -21.255  0.00  0.00     0.021 C 
ENDBRANCH   3  18
BRANCH  13  20
ATOM     20  O   UNL d   1      32.687  19.860 -23.409  0.00  0.00    -0.326 OA
ATOM     21  C   UNL d   1      33.042  20.236 -24.058  0.00  0.00     0.181 C 
ENDBRANCH  13  20
BRANCH  12  22
ATOM     22  O   UNL d   1      33.241  18.806 -22.236  0.00  0.00    -0.326 OA
ATOM     23  C   UNL d   1      33.175  18.237 -21.629  0.00  0.00     0.181 C 
ENDBRANCH  12  22
TORSDOF 3
ENDMDL
