MODEL 1
REMARK VINA RESULT:      -3.9      0.000      0.000
REMARK  3 active torsions:
REMARK  status: ('A' for Active; 'I' for Inactive)
REMARK    1  A    between atoms: C_6  and  C_1 
REMARK    2  A    between atoms: C_7  and  C_4 
REMARK    3  A    between atoms: O_14  and  C_6 
ROOT
ATOM      1  C   UNL d   1      56.347  -0.082  32.609  0.00  0.00     0.167 A 
ATOM      2  C   UNL d   1      56.648   0.628  32.302  0.00  0.00     0.047 A 
ATOM      3  N   UNL d   1      57.108  -0.814  31.667  0.00  0.00    -0.148 NA
ATOM      4  C   UNL d   1      57.409  -0.110  31.359  0.00  0.00     0.105 A 
ATOM      5  N   UNL d   1      56.577  -0.806  32.293  0.00  0.00    -0.143 NA
ENDROOT
BRANCH   4   6
ATOM      6  C   UNL d   1      57.933   0.087  30.755  0.00  0.00     0.019 A 
ATOM      7  C   UNL d   1      58.633   0.484  30.938  0.00  0.00     0.002 A 
ATOM      8  C   UNL d   1      59.158   0.681  30.335  0.00  0.00     0.000 A 
ATOM      9  C   UNL d   1      58.809   0.682  31.714  0.00  0.00     0.000 C 
ATOM     10  C   UNL d   1      58.982   0.482  29.549  0.00  0.00     0.000 A 
ATOM     11  C   UNL d   1      58.281   0.086  29.376  0.00  0.00     0.000 A 
ATOM     12  C   UNL d   1      59.510   0.681  28.946  0.00  0.00     0.000 C 
ATOM     13  C   UNL d   1      57.758  -0.111  29.974  0.00  0.00     0.002 A 
ENDBRANCH   4   6
BRANCH   1  14
ATOM     14  C   UNL d   1      55.812  -0.059  33.240  0.00  0.00     0.316 C 
ATOM     15  O   UNL d   1      55.389  -0.734  33.441  0.00  0.00    -0.257 OA
BRANCH  14  16
ATOM     16  O   UNL d   1      55.705   0.635  33.662  0.00  0.00    -0.294 OA
ATOM     17  C   UNL d   1      55.332   0.617  34.434  0.00  0.00     0.185 C 
ENDBRANCH  14  16
ENDBRANCH   1  14
TORSDOF 3
ENDMDL
MODEL 2
REMARK VINA RESULT:      -3.0      2.892      4.368
REMARK  3 active torsions:
REMARK  status: ('A' for Active; 'I' for Inactive)
REMARK    1  A    between atoms: C_6  and  C_1 
REMARK    2  A    between atoms: C_7  and  C_4 
REMARK    3  A    between atoms: O_14  and  C_6 
ROOT
ATOM      1  C   UNL d   1      58.923  -1.837  29.349  0.00  0.00     0.167 A 
ATOM      2  C   UNL d   1      58.921  -1.938  30.172  0.00  0.00     0.047 A 
ATOM      3  N   UNL d   1      57.944  -0.823  29.468  0.00  0.00    -0.148 NA
ATOM      4  C   UNL d   1      57.939  -0.921  30.288  0.00  0.00     0.105 A 
ATOM      5  N   UNL d   1      58.434  -1.278  28.993  0.00  0.00    -0.143 NA
ENDROOT
BRANCH   4   6
ATOM      6  C   UNL d   1      57.534  -0.574  30.916  0.00  0.00     0.019 A 
ATOM      7  C   UNL d   1      57.638   0.229  31.074  0.00  0.00     0.002 A 
ATOM      8  C   UNL d   1      57.234   0.575  31.702  0.00  0.00     0.000 A 
ATOM      9  C   UNL d   1      58.141   0.682  30.611  0.00  0.00     0.000 C 
ATOM     10  C   UNL d   1      56.725   0.119  32.171  0.00  0.00     0.000 A 
ATOM     11  C   UNL d   1      56.627  -0.682  32.006  0.00  0.00     0.000 A 
ATOM     12  C   UNL d   1      56.320   0.469  32.800  0.00  0.00     0.000 C 
ATOM     13  C   UNL d   1      57.028  -1.029  31.383  0.00  0.00     0.002 A 
ENDBRANCH   4   6
BRANCH   1  14
ATOM     14  C   UNL d   1      59.423  -2.303  28.882  0.00  0.00     0.316 C 
ATOM     15  O   UNL d   1      60.226  -2.132  28.847  0.00  0.00    -0.257 OA
BRANCH  14  16
ATOM     16  O   UNL d   1      59.118  -2.932  28.455  0.00  0.00    -0.294 OA
ATOM     17  C   UNL d   1      59.470  -3.711  28.523  0.00  0.00     0.185 C 
ENDBRANCH  14  16
ENDBRANCH   1  14
TORSDOF 3
ENDMDL
MODEL 3
REMARK VINA RESULT:      -1.2      1.895      4.198
REMARK  3 active torsions:
REMARK  status: ('A' for Active; 'I' for Inactive)
REMARK    1  A    between atoms: C_6  and  C_1 
REMARK    2  A    between atoms: C_7  and  C_4 
REMARK    3  A    between atoms: O_14  and  C_6 
ROOT
ATOM      1  C   UNL d   1      57.798  -0.053  30.513  0.00  0.00     0.167 A 
ATOM      2  C   UNL d   1      57.572   0.591  30.986  0.00  0.00     0.047 A 
ATOM      3  N   UNL d   1      56.970  -0.909  31.277  0.00  0.00    -0.148 NA
ATOM      4  C   UNL d   1      56.742  -0.270  31.750  0.00  0.00     0.105 A 
ATOM      5  N   UNL d   1      57.497  -0.805  30.657  0.00  0.00    -0.143 NA
ENDROOT
BRANCH   4   6
ATOM      6  C   UNL d   1      56.242  -0.170  32.396  0.00  0.00     0.019 A 
ATOM      7  C   UNL d   1      55.989  -0.831  32.821  0.00  0.00     0.002 A 
ATOM      8  C   UNL d   1      55.490  -0.732  33.467  0.00  0.00     0.000 A 
ATOM      9  C   UNL d   1      56.232  -1.584  32.604  0.00  0.00     0.000 C 
ATOM     10  C   UNL d   1      55.242   0.028  33.689  0.00  0.00     0.000 A 
ATOM     11  C   UNL d   1      55.500   0.682  33.259  0.00  0.00     0.000 A 
ATOM     12  C   UNL d   1      54.741   0.125  34.338  0.00  0.00     0.000 C 
ATOM     13  C   UNL d   1      55.997   0.586  32.616  0.00  0.00     0.002 A 
ENDBRANCH   4   6
BRANCH   1  14
ATOM     14  C   UNL d   1      58.331   0.065  29.892  0.00  0.00     0.316 C 
ATOM     15  O   UNL d   1      58.066   0.031  29.114  0.00  0.00    -0.257 OA
BRANCH  14  16
ATOM     16  O   UNL d   1      59.121   0.215  30.050  0.00  0.00    -0.294 OA
ATOM     17  C   UNL d   1      59.688   0.269  29.409  0.00  0.00     0.185 C 
ENDBRANCH  14  16
ENDBRANCH   1  14
TORSDOF 3
ENDMDL
