MODEL 1
REMARK VINA RESULT:      68.1      0.000      0.000
REMARK  9 active torsions:
REMARK  status: ('A' for Active; 'I' for Inactive)
REMARK    1  A    between atoms: C_5  and  C_1 
REMARK    2  A    between atoms: N_11  and  C_2 
REMARK    3  A    between atoms: C_6  and  C_5 
REMARK    4  A    between atoms: C_7  and  C_5 
REMARK       I    between atoms: N_13  and  C_6 
REMARK    5  A    between atoms: C_16  and  N_11 
REMARK    6  A    between atoms: C_17  and  N_11 
REMARK    7  A    between atoms: C_14  and  N_13 
REMARK    8  A    between atoms: C_20  and  C_14 
REMARK    9  A    between atoms: C_15  and  C_20 
ROOT
ATOM      1  C   UNL d   1      59.569  49.348  50.440  0.00  0.00     0.117 A 
ATOM      2  C   UNL d   1      59.264  49.402  51.205  0.00  0.00     0.145 A 
ATOM      3  N   UNL d   1      59.064  49.397  49.791  0.00  0.00    -0.241 NA
ATOM      4  N   UNL d   1      58.455  49.504  51.321  0.00  0.00    -0.230 NA
ATOM      5  C   UNL d   1      57.952  49.553  50.671  0.00  0.00     0.100 A 
ATOM      6  C   UNL d   1      58.256  49.499  49.907  0.00  0.00     0.099 A 
ATOM      7  C   UNL d   1      57.142  49.655  50.787  0.00  0.00     0.021 A 
ATOM      8  C   UNL d   1      57.751  49.548  49.258  0.00  0.00     0.021 A 
ATOM      9  C   UNL d   1      56.635  49.704  50.137  0.00  0.00     0.002 A 
ATOM     10  C   UNL d   1      56.940  49.650  49.372  0.00  0.00     0.002 A 
ENDROOT
BRANCH   1  11
ATOM     11  C   UNL d   1      60.389  49.248  50.495  0.00  0.00     0.099 C 
BRANCH  11  12
ATOM     12  C   UNL d   1      60.930  48.823  50.037  0.00  0.00     0.282 C 
ATOM     13  O   UNL d   1      61.583  49.213  49.683  0.00  0.00    -0.265 OA
ATOM     14  N   UNL d   1      60.827  48.008  49.926  0.00  0.00    -0.206 NA
BRANCH  14  15
ATOM     15  C   UNL d   1      61.373  47.574  49.462  0.00  0.00     0.102 C 
BRANCH  15  16
ATOM     16  C   UNL d   1      61.996  47.100  49.701  0.00  0.00     0.021 C 
BRANCH  16  17
ATOM     17  C   UNL d   1      62.004  46.297  49.522  0.00  0.00     0.002 A 
ATOM     18  C   UNL d   1      62.635  45.987  49.091  0.00  0.00     0.000 A 
ATOM     19  C   UNL d   1      62.651  45.189  48.909  0.00  0.00     0.000 A 
ATOM     20  C   UNL d   1      62.035  44.695  49.157  0.00  0.00     0.000 A 
ATOM     21  C   UNL d   1      61.406  45.013  49.590  0.00  0.00     0.000 A 
ATOM     22  C   UNL d   1      61.396  45.813  49.769  0.00  0.00     0.000 A 
ENDBRANCH  16  17
ENDBRANCH  15  16
ENDBRANCH  14  15
ENDBRANCH  11  12
BRANCH  11  23
ATOM     23  C   UNL d   1      60.770  49.636  51.121  0.00  0.00     0.129 C 
ATOM     24  N   UNL d   1      61.553  49.708  51.370  0.00  0.00    -0.146 N 
ENDBRANCH  11  23
ENDBRANCH   1  11
BRANCH   2  25
ATOM     25  N   UNL d   1      59.895  49.335  51.736  0.00  0.00    -0.192 NA
BRANCH  25  26
ATOM     26  C   UNL d   1      59.873  48.845  52.398  0.00  0.00     0.057 C 
ATOM     27  C   UNL d   1      60.004  49.683  53.096  0.00  0.00     0.014 C 
ENDBRANCH  25  26
BRANCH  25  28
ATOM     28  C   UNL d   1      60.280  49.160  52.246  0.00  0.00     0.057 C 
ATOM     29  C   UNL d   1      60.713  49.698  53.005  0.00  0.00     0.014 C 
ENDBRANCH  25  28
ENDBRANCH   2  25
TORSDOF 9
ENDMDL
