MODEL 1
REMARK VINA RESULT:      -2.5      0.000      0.000
REMARK  5 active torsions:
REMARK  status: ('A' for Active; 'I' for Inactive)
REMARK    1  A    between atoms: C_4  and  S_1 
REMARK    2  A    between atoms: N_5  and  S_1 
REMARK    3  A    between atoms: C_2  and  C_9 
REMARK       I    between atoms: N_3  and  C_2 
REMARK    4  A    between atoms: C_8  and  N_3 
REMARK    5  A    between atoms: O_16  and  C_11 
ROOT
ATOM      1  C   UNL d   1      32.743  22.081 -20.720  0.00  0.00     0.104 A 
ATOM      2  C   UNL d   1      32.929  21.159 -22.110  0.00  0.00     0.058 A 
ATOM      3  C   UNL d   1      32.591  21.301 -20.721  0.00  0.00     0.013 A 
ATOM      4  C   UNL d   1      32.992  22.417 -21.414  0.00  0.00     0.013 A 
ATOM      5  C   UNL d   1      33.094  21.992 -22.114  0.00  0.00     0.005 A 
ATOM      6  C   UNL d   1      32.682  20.842 -21.407  0.00  0.00     0.005 A 
ENDROOT
BRANCH   2   7
ATOM      7  C   UNL d   1      33.022  20.690 -22.811  0.00  0.00     0.279 C 
ATOM      8  N   UNL d   1      32.952  19.911 -22.809  0.00  0.00    -0.206 NA
ATOM      9  O   UNL d   1      33.199  21.113 -23.529  0.00  0.00    -0.265 OA
BRANCH   8  10
ATOM     10  C   UNL d   1      33.048  19.480 -23.507  0.00  0.00     0.107 A 
ATOM     11  C   UNL d   1      33.060  18.672 -23.475  0.00  0.00     0.112 A 
ATOM     12  C   UNL d   1      33.156  18.243 -24.172  0.00  0.00     0.026 A 
ATOM     13  C   UNL d   1      33.239  18.620 -24.901  0.00  0.00     0.002 A 
ATOM     14  C   UNL d   1      33.225  19.456 -24.923  0.00  0.00     0.002 A 
ATOM     15  C   UNL d   1      33.129  19.882 -24.223  0.00  0.00     0.021 A 
BRANCH  11  16
ATOM     16  O   UNL d   1      32.983  18.351 -22.804  0.00  0.00    -0.327 OA
ATOM     17  C   UNL d   1      32.807  17.403 -22.937  0.00  0.00     0.181 C 
ENDBRANCH  11  16
ENDBRANCH   8  10
ENDBRANCH   2   7
BRANCH   1  18
ATOM     18  S   UNL d   1      32.668  22.630 -20.025  0.00  0.00     0.271 S 
ATOM     19  O   UNL d   1      32.137  23.158 -20.412  0.00  0.00    -0.200 OA
ATOM     20  O   UNL d   1      33.175  22.121 -19.660  0.00  0.00    -0.200 OA
BRANCH  18  21
ATOM     21  N   UNL d   1      32.638  23.129 -19.302  0.00  0.00    -0.226 N 
ATOM     22  C   UNL d   1      33.203  23.032 -18.707  0.00  0.00     0.111 C 
ATOM     23  C   UNL d   1      32.035  23.702 -19.218  0.00  0.00     0.111 C 
ENDBRANCH  18  21
ENDBRANCH   1  18
TORSDOF 5
ENDMDL
MODEL 2
REMARK VINA RESULT:      -2.4      2.167      5.279
REMARK  5 active torsions:
REMARK  status: ('A' for Active; 'I' for Inactive)
REMARK    1  A    between atoms: C_4  and  S_1 
REMARK    2  A    between atoms: N_5  and  S_1 
REMARK    3  A    between atoms: C_2  and  C_9 
REMARK       I    between atoms: N_3  and  C_2 
REMARK    4  A    between atoms: C_8  and  N_3 
REMARK    5  A    between atoms: O_16  and  C_11 
ROOT
ATOM      1  C   UNL d   1      32.518  17.912 -23.686  0.00  0.00     0.104 A 
ATOM      2  C   UNL d   1      32.774  19.222 -22.670  0.00  0.00     0.058 A 
ATOM      3  C   UNL d   1      33.080  17.894 -23.124  0.00  0.00     0.013 A 
ATOM      4  C   UNL d   1      32.072  18.585 -23.753  0.00  0.00     0.013 A 
ATOM      5  C   UNL d   1      32.173  19.246 -23.269  0.00  0.00     0.005 A 
ATOM      6  C   UNL d   1      33.208  18.541 -22.620  0.00  0.00     0.005 A 
ENDROOT
BRANCH   2   7
ATOM      7  C   UNL d   1      32.906  19.884 -22.154  0.00  0.00     0.279 C 
ATOM      8  N   UNL d   1      32.763  20.621 -22.371  0.00  0.00    -0.206 NA
ATOM      9  O   UNL d   1      33.206  19.704 -21.377  0.00  0.00    -0.265 OA
BRANCH   8  10
ATOM     10  C   UNL d   1      32.900  21.245 -21.848  0.00  0.00     0.107 A 
ATOM     11  C   UNL d   1      33.104  21.970 -22.142  0.00  0.00     0.112 A 
ATOM     12  C   UNL d   1      33.241  22.593 -21.619  0.00  0.00     0.026 A 
ATOM     13  C   UNL d   1      33.175  22.491 -20.803  0.00  0.00     0.002 A 
ATOM     14  C   UNL d   1      32.964  21.737 -20.510  0.00  0.00     0.002 A 
ATOM     15  C   UNL d   1      32.827  21.117 -21.037  0.00  0.00     0.021 A 
BRANCH  11  16
ATOM     16  O   UNL d   1      33.158  22.040 -22.885  0.00  0.00    -0.327 OA
ATOM     17  C   UNL d   1      33.012  22.975 -23.115  0.00  0.00     0.181 C 
ENDBRANCH  11  16
ENDBRANCH   8  10
ENDBRANCH   2   7
BRANCH   1  18
ATOM     18  S   UNL d   1      32.327  17.258 -24.258  0.00  0.00     0.271 S 
ATOM     19  O   UNL d   1      32.087  17.777 -24.878  0.00  0.00    -0.200 OA
ATOM     20  O   UNL d   1      32.558  16.768 -23.662  0.00  0.00    -0.200 OA
BRANCH  18  21
ATOM     21  N   UNL d   1      32.158  16.566 -24.772  0.00  0.00    -0.226 N 
ATOM     22  C   UNL d   1      32.762  16.038 -24.969  0.00  0.00     0.111 C 
ATOM     23  C   UNL d   1      31.383  16.442 -25.061  0.00  0.00     0.111 C 
ENDBRANCH  18  21
ENDBRANCH   1  18
TORSDOF 5
ENDMDL
MODEL 3
REMARK VINA RESULT:      -2.0      1.042      1.417
REMARK  5 active torsions:
REMARK  status: ('A' for Active; 'I' for Inactive)
REMARK    1  A    between atoms: C_4  and  S_1 
REMARK    2  A    between atoms: N_5  and  S_1 
REMARK    3  A    between atoms: C_2  and  C_9 
REMARK       I    between atoms: N_3  and  C_2 
REMARK    4  A    between atoms: C_8  and  N_3 
REMARK    5  A    between atoms: O_16  and  C_11 
ROOT
ATOM      1  C   UNL d   1      32.945  21.031 -21.167  0.00  0.00     0.104 A 
ATOM      2  C   UNL d   1      32.969  19.988 -22.482  0.00  0.00     0.058 A 
ATOM      3  C   UNL d   1      33.228  20.290 -21.102  0.00  0.00     0.013 A 
ATOM      4  C   UNL d   1      32.669  21.266 -21.891  0.00  0.00     0.013 A 
ATOM      5  C   UNL d   1      32.666  20.778 -22.557  0.00  0.00     0.005 A 
ATOM      6  C   UNL d   1      33.241  19.773 -21.751  0.00  0.00     0.005 A 
ENDROOT
BRANCH   2   7
ATOM      7  C   UNL d   1      32.982  19.459 -23.146  0.00  0.00     0.279 C 
ATOM      8  N   UNL d   1      32.788  18.704 -23.086  0.00  0.00    -0.206 NA
ATOM      9  O   UNL d   1      33.221  19.793 -23.892  0.00  0.00    -0.265 OA
BRANCH   8  10
ATOM     10  C   UNL d   1      32.810  18.212 -23.748  0.00  0.00     0.107 A 
ATOM     11  C   UNL d   1      32.453  17.487 -23.715  0.00  0.00     0.112 A 
ATOM     12  C   UNL d   1      32.476  16.996 -24.377  0.00  0.00     0.026 A 
ATOM     13  C   UNL d   1      32.855  17.230 -25.072  0.00  0.00     0.002 A 
ATOM     14  C   UNL d   1      33.220  17.982 -25.096  0.00  0.00     0.002 A 
ATOM     15  C   UNL d   1      33.195  18.469 -24.431  0.00  0.00     0.021 A 
BRANCH  11  16
ATOM     16  O   UNL d   1      32.116  17.296 -23.076  0.00  0.00    -0.327 OA
ATOM     17  C   UNL d   1      31.630  16.466 -23.223  0.00  0.00     0.181 C 
ENDBRANCH  11  16
ENDBRANCH   8  10
ENDBRANCH   2   7
BRANCH   1  18
ATOM     18  S   UNL d   1      32.902  21.635 -20.517  0.00  0.00     0.271 S 
ATOM     19  O   UNL d   1      32.726  21.074 -19.913  0.00  0.00    -0.200 OA
ATOM     20  O   UNL d   1      33.070  22.167 -21.098  0.00  0.00    -0.200 OA
BRANCH  18  21
ATOM     21  N   UNL d   1      32.874  22.283 -19.923  0.00  0.00    -0.226 N 
ATOM     22  C   UNL d   1      32.678  23.051 -20.156  0.00  0.00     0.111 C 
ATOM     23  C   UNL d   1      33.046  22.119 -19.121  0.00  0.00     0.111 C 
ENDBRANCH  18  21
ENDBRANCH   1  18
TORSDOF 5
ENDMDL
MODEL 4
REMARK VINA RESULT:      -1.4      1.200      1.654
REMARK  5 active torsions:
REMARK  status: ('A' for Active; 'I' for Inactive)
REMARK    1  A    between atoms: C_4  and  S_1 
REMARK    2  A    between atoms: N_5  and  S_1 
REMARK    3  A    between atoms: C_2  and  C_9 
REMARK       I    between atoms: N_3  and  C_2 
REMARK    4  A    between atoms: C_8  and  N_3 
REMARK    5  A    between atoms: O_16  and  C_11 
ROOT
ATOM      1  C   UNL d   1      32.747  22.639 -19.269  0.00  0.00     0.104 A 
ATOM      2  C   UNL d   1      32.908  22.101 -20.850  0.00  0.00     0.058 A 
ATOM      3  C   UNL d   1      33.160  21.982 -19.440  0.00  0.00     0.013 A 
ATOM      4  C   UNL d   1      32.406  23.042 -19.884  0.00  0.00     0.013 A 
ATOM      5  C   UNL d   1      32.466  22.804 -20.671  0.00  0.00     0.005 A 
ATOM      6  C   UNL d   1      33.241  21.713 -20.222  0.00  0.00     0.005 A 
ENDROOT
BRANCH   2   7
ATOM      7  C   UNL d   1      32.991  21.826 -21.649  0.00  0.00     0.279 C 
ATOM      8  N   UNL d   1      32.973  21.067 -21.837  0.00  0.00    -0.206 NA
ATOM      9  O   UNL d   1      33.096  22.424 -22.246  0.00  0.00    -0.265 OA
BRANCH   8  10
ATOM     10  C   UNL d   1      33.057  20.828 -22.622  0.00  0.00     0.107 A 
ATOM     11  C   UNL d   1      33.155  20.043 -22.789  0.00  0.00     0.112 A 
ATOM     12  C   UNL d   1      33.239  19.806 -23.574  0.00  0.00     0.026 A 
ATOM     13  C   UNL d   1      33.223  20.352 -24.193  0.00  0.00     0.002 A 
ATOM     14  C   UNL d   1      33.121  21.162 -24.008  0.00  0.00     0.002 A 
ATOM     15  C   UNL d   1      33.038  21.395 -23.221  0.00  0.00     0.021 A 
BRANCH  11  16
ATOM     16  O   UNL d   1      33.166  19.566 -22.214  0.00  0.00    -0.327 OA
ATOM     17  C   UNL d   1      33.135  18.659 -22.569  0.00  0.00     0.181 C 
ENDBRANCH  11  16
ENDBRANCH   8  10
ENDBRANCH   2   7
BRANCH   1  18
ATOM     18  S   UNL d   1      32.620  22.983 -18.458  0.00  0.00     0.271 S 
ATOM     19  O   UNL d   1      32.134  23.617 -18.727  0.00  0.00    -0.200 OA
ATOM     20  O   UNL d   1      33.086  22.375 -18.207  0.00  0.00    -0.200 OA
BRANCH  18  21
ATOM     21  N   UNL d   1      32.536  23.269 -17.631  0.00  0.00    -0.226 N 
ATOM     22  C   UNL d   1      33.148  23.154 -17.089  0.00  0.00     0.111 C 
ATOM     23  C   UNL d   1      31.834  23.658 -17.396  0.00  0.00     0.111 C 
ENDBRANCH  18  21
ENDBRANCH   1  18
TORSDOF 5
ENDMDL
MODEL 5
REMARK VINA RESULT:      -0.8      0.782      1.555
REMARK  5 active torsions:
REMARK  status: ('A' for Active; 'I' for Inactive)
REMARK    1  A    between atoms: C_4  and  S_1 
REMARK    2  A    between atoms: N_5  and  S_1 
REMARK    3  A    between atoms: C_2  and  C_9 
REMARK       I    between atoms: N_3  and  C_2 
REMARK    4  A    between atoms: C_8  and  N_3 
REMARK    5  A    between atoms: O_16  and  C_11 
ROOT
ATOM      1  C   UNL d   1      32.906  21.543 -19.990  0.00  0.00     0.104 A 
ATOM      2  C   UNL d   1      33.002  20.432 -21.243  0.00  0.00     0.058 A 
ATOM      3  C   UNL d   1      33.192  20.811 -19.871  0.00  0.00     0.013 A 
ATOM      4  C   UNL d   1      32.662  21.736 -20.738  0.00  0.00     0.013 A 
ATOM      5  C   UNL d   1      32.696  21.213 -21.375  0.00  0.00     0.005 A 
ATOM      6  C   UNL d   1      33.241  20.259 -20.489  0.00  0.00     0.005 A 
ENDROOT
BRANCH   2   7
ATOM      7  C   UNL d   1      33.052  19.867 -21.875  0.00  0.00     0.279 C 
ATOM      8  N   UNL d   1      33.016  20.074 -22.628  0.00  0.00    -0.206 NA
ATOM      9  O   UNL d   1      33.145  19.051 -21.648  0.00  0.00    -0.265 OA
BRANCH   8  10
ATOM     10  C   UNL d   1      33.067  19.504 -23.223  0.00  0.00     0.107 A 
ATOM     11  C   UNL d   1      33.184  19.738 -23.987  0.00  0.00     0.112 A 
ATOM     12  C   UNL d   1      33.235  19.167 -24.580  0.00  0.00     0.026 A 
ATOM     13  C   UNL d   1      33.169  18.363 -24.409  0.00  0.00     0.002 A 
ATOM     14  C   UNL d   1      33.048  18.132 -23.614  0.00  0.00     0.002 A 
ATOM     15  C   UNL d   1      32.997  18.706 -23.024  0.00  0.00     0.021 A 
BRANCH  11  16
ATOM     16  O   UNL d   1      33.241  20.472 -24.120  0.00  0.00    -0.327 OA
ATOM     17  C   UNL d   1      33.212  20.611 -25.083  0.00  0.00     0.181 C 
ENDBRANCH  11  16
ENDBRANCH   8  10
ENDBRANCH   2   7
BRANCH   1  18
ATOM     18  S   UNL d   1      32.826  22.182 -19.376  0.00  0.00     0.271 S 
ATOM     19  O   UNL d   1      32.992  22.812 -19.910  0.00  0.00    -0.200 OA
ATOM     20  O   UNL d   1      32.668  21.575 -18.870  0.00  0.00    -0.200 OA
BRANCH  18  21
ATOM     21  N   UNL d   1      32.733  22.761 -18.721  0.00  0.00    -0.226 N 
ATOM     22  C   UNL d   1      32.167  23.360 -18.775  0.00  0.00     0.111 C 
ATOM     23  C   UNL d   1      33.218  22.702 -18.043  0.00  0.00     0.111 C 
ENDBRANCH  18  21
ENDBRANCH   1  18
TORSDOF 5
ENDMDL
MODEL 6
REMARK VINA RESULT:      -0.3      2.469      3.585
REMARK  5 active torsions:
REMARK  status: ('A' for Active; 'I' for Inactive)
REMARK    1  A    between atoms: C_4  and  S_1 
REMARK    2  A    between atoms: N_5  and  S_1 
REMARK    3  A    between atoms: C_2  and  C_9 
REMARK       I    between atoms: N_3  and  C_2 
REMARK    4  A    between atoms: C_8  and  N_3 
REMARK    5  A    between atoms: O_16  and  C_11 
ROOT
ATOM      1  C   UNL d   1      32.940  20.782 -23.906  0.00  0.00     0.104 A 
ATOM      2  C   UNL d   1      32.653  19.131 -23.989  0.00  0.00     0.058 A 
ATOM      3  C   UNL d   1      33.240  20.283 -23.364  0.00  0.00     0.013 A 
ATOM      4  C   UNL d   1      32.490  20.466 -24.502  0.00  0.00     0.013 A 
ATOM      5  C   UNL d   1      32.331  19.659 -24.571  0.00  0.00     0.005 A 
ATOM      6  C   UNL d   1      33.099  19.466 -23.403  0.00  0.00     0.005 A 
ENDROOT
BRANCH   2   7
ATOM      7  C   UNL d   1      32.510  18.295 -24.029  0.00  0.00     0.279 C 
ATOM      8  N   UNL d   1      31.789  17.991 -24.028  0.00  0.00    -0.206 NA
ATOM      9  O   UNL d   1      33.197  17.794 -24.070  0.00  0.00    -0.265 OA
BRANCH   8  10
ATOM     10  C   UNL d   1      31.679  17.173 -24.067  0.00  0.00     0.107 A 
ATOM     11  C   UNL d   1      30.938  16.880 -24.199  0.00  0.00     0.112 A 
ATOM     12  C   UNL d   1      30.829  16.063 -24.238  0.00  0.00     0.026 A 
ATOM     13  C   UNL d   1      31.461  15.541 -24.145  0.00  0.00     0.002 A 
ATOM     14  C   UNL d   1      32.224  15.856 -24.009  0.00  0.00     0.002 A 
ATOM     15  C   UNL d   1      32.328  16.673 -23.971  0.00  0.00     0.021 A 
BRANCH  11  16
ATOM     16  O   UNL d   1      30.380  17.371 -24.280  0.00  0.00    -0.327 OA
ATOM     17  C   UNL d   1      29.547  16.875 -24.373  0.00  0.00     0.181 C 
ENDBRANCH  11  16
ENDBRANCH   8  10
ENDBRANCH   2   7
BRANCH   1  18
ATOM     18  S   UNL d   1      33.050  21.664 -23.925  0.00  0.00     0.271 S 
ATOM     19  O   UNL d   1      33.241  21.692 -24.746  0.00  0.00    -0.200 OA
ATOM     20  O   UNL d   1      32.867  21.631 -23.141  0.00  0.00    -0.200 OA
BRANCH  18  21
ATOM     21  N   UNL d   1      33.143  22.536 -23.874  0.00  0.00    -0.226 N 
ATOM     22  C   UNL d   1      33.139  22.911 -23.138  0.00  0.00     0.111 C 
ATOM     23  C   UNL d   1      33.235  22.986 -24.573  0.00  0.00     0.111 C 
ENDBRANCH  18  21
ENDBRANCH   1  18
TORSDOF 5
ENDMDL
MODEL 7
REMARK VINA RESULT:       0.0      1.684      4.937
REMARK  5 active torsions:
REMARK  status: ('A' for Active; 'I' for Inactive)
REMARK    1  A    between atoms: C_4  and  S_1 
REMARK    2  A    between atoms: N_5  and  S_1 
REMARK    3  A    between atoms: C_2  and  C_9 
REMARK       I    between atoms: N_3  and  C_2 
REMARK    4  A    between atoms: C_8  and  N_3 
REMARK    5  A    between atoms: O_16  and  C_11 
ROOT
ATOM      1  C   UNL d   1      32.794  18.766 -22.843  0.00  0.00     0.104 A 
ATOM      2  C   UNL d   1      32.904  20.350 -22.298  0.00  0.00     0.058 A 
ATOM      3  C   UNL d   1      32.931  19.367 -23.345  0.00  0.00     0.013 A 
ATOM      4  C   UNL d   1      32.709  18.944 -22.057  0.00  0.00     0.013 A 
ATOM      5  C   UNL d   1      32.757  19.711 -21.757  0.00  0.00     0.005 A 
ATOM      6  C   UNL d   1      32.985  20.151 -23.079  0.00  0.00     0.005 A 
ENDROOT
BRANCH   2   7
ATOM      7  C   UNL d   1      32.960  21.152 -22.026  0.00  0.00     0.279 C 
ATOM      8  N   UNL d   1      33.002  21.337 -21.267  0.00  0.00    -0.206 NA
ATOM      9  O   UNL d   1      32.968  21.756 -22.626  0.00  0.00    -0.265 OA
BRANCH   8  10
ATOM     10  C   UNL d   1      33.056  22.126 -21.030  0.00  0.00     0.107 A 
ATOM     11  C   UNL d   1      32.981  22.310 -20.247  0.00  0.00     0.112 A 
ATOM     12  C   UNL d   1      33.035  23.098 -20.012  0.00  0.00     0.026 A 
ATOM     13  C   UNL d   1      33.164  23.702 -20.559  0.00  0.00     0.002 A 
ATOM     14  C   UNL d   1      33.241  23.500 -21.367  0.00  0.00     0.002 A 
ATOM     15  C   UNL d   1      33.186  22.710 -21.598  0.00  0.00     0.021 A 
BRANCH  11  16
ATOM     16  O   UNL d   1      32.864  21.747 -19.768  0.00  0.00    -0.327 OA
ATOM     17  C   UNL d   1      32.438  22.108 -18.971  0.00  0.00     0.181 C 
ENDBRANCH  11  16
ENDBRANCH   8  10
ENDBRANCH   2   7
BRANCH   1  18
ATOM     18  S   UNL d   1      32.723  17.907 -23.059  0.00  0.00     0.271 S 
ATOM     19  O   UNL d   1      32.260  17.704 -22.385  0.00  0.00    -0.200 OA
ATOM     20  O   UNL d   1      33.167  18.107 -23.701  0.00  0.00    -0.200 OA
BRANCH  18  21
ATOM     21  N   UNL d   1      32.693  17.072 -23.331  0.00  0.00    -0.226 N 
ATOM     22  C   UNL d   1      33.118  16.488 -22.929  0.00  0.00     0.111 C 
ATOM     23  C   UNL d   1      32.233  16.869 -23.999  0.00  0.00     0.111 C 
ENDBRANCH  18  21
ENDBRANCH   1  18
TORSDOF 5
ENDMDL
