MODEL 1
REMARK VINA RESULT:      63.1      0.000      0.000
REMARK  4 active torsions:
REMARK  status: ('A' for Active; 'I' for Inactive)
REMARK    1  A    between atoms: C_4  and  C_1 
REMARK    2  A    between atoms: N_5  and  C_2 
REMARK       I    between atoms: N_9  and  C_4 
REMARK       I    between atoms: C_7  and  N_5 
REMARK    3  A    between atoms: C_13  and  C_7 
REMARK    4  A    between atoms: C_11  and  N_9 
ROOT
ATOM      1  C   UNL d   1      13.408  14.162  -3.291  0.00  0.00     0.175 A 
ATOM      2  C   UNL d   1      13.231  14.072  -4.037  0.00  0.00     0.114 A 
ATOM      3  O   UNL d   1      13.460  13.461  -2.974  0.00  0.00    -0.301 OA
ATOM      4  C   UNL d   1      13.173  13.317  -4.184  0.00  0.00     0.043 A 
ATOM      5  C   UNL d   1      13.315  12.937  -3.523  0.00  0.00     0.102 A 
ATOM      6  C   UNL d   1      13.011  12.926  -4.823  0.00  0.00     0.004 A 
ATOM      7  C   UNL d   1      13.294  12.172  -3.507  0.00  0.00     0.025 A 
ATOM      8  C   UNL d   1      12.990  12.153  -4.806  0.00  0.00     0.000 A 
ATOM      9  C   UNL d   1      13.131  11.779  -4.149  0.00  0.00     0.002 A 
ENDROOT
BRANCH   1  10
ATOM     10  C   UNL d   1      13.514  14.826  -2.929  0.00  0.00     0.303 C 
ATOM     11  N   UNL d   1      14.265  14.734  -1.640  0.00  0.00    -0.206 NA
ATOM     12  O   UNL d   1      13.281  15.522  -3.151  0.00  0.00    -0.263 OA
BRANCH  11  13
ATOM     13  C   UNL d   1      14.532  13.998  -1.371  0.00  0.00     0.085 A 
ATOM     14  C   UNL d   1      14.077  13.566  -0.829  0.00  0.00     0.019 A 
ATOM     15  C   UNL d   1      14.343  12.829  -0.559  0.00  0.00     0.002 A 
ATOM     16  C   UNL d   1      13.889  12.394  -0.016  0.00  0.00     0.000 C 
ATOM     17  C   UNL d   1      15.068  12.513  -0.827  0.00  0.00     0.000 A 
ATOM     18  C   UNL d   1      15.527  12.952  -1.375  0.00  0.00     0.002 A 
ATOM     19  C   UNL d   1      15.333  11.780  -0.558  0.00  0.00     0.000 C 
ATOM     20  C   UNL d   1      15.250  13.699  -1.645  0.00  0.00     0.019 A 
ENDBRANCH  11  13
ENDBRANCH   1  10
BRANCH   2  21
ATOM     21  N   UNL d   1      13.130  14.643  -4.546  0.00  0.00    -0.204 NA
ATOM     22  C   UNL d   1      13.773  14.928  -4.986  0.00  0.00     0.302 C 
ATOM     23  O   UNL d   1      14.533  14.597  -4.879  0.00  0.00    -0.263 OA
BRANCH  22  24
ATOM     24  C   UNL d   1      13.661  15.545  -5.536  0.00  0.00     0.158 A 
ATOM     25  O   UNL d   1      12.938  15.786  -5.877  0.00  0.00    -0.300 OA
ATOM     26  C   UNL d   1      13.091  16.417  -6.389  0.00  0.00     0.123 A 
ATOM     27  C   UNL d   1      13.909  16.577  -6.374  0.00  0.00     0.029 A 
ATOM     28  C   UNL d   1      14.261  16.048  -5.854  0.00  0.00     0.032 A 
ENDBRANCH  22  24
ENDBRANCH   2  21
TORSDOF 4
ENDMDL
MODEL 2
REMARK VINA RESULT:      65.6      1.721      4.189
REMARK  4 active torsions:
REMARK  status: ('A' for Active; 'I' for Inactive)
REMARK    1  A    between atoms: C_4  and  C_1 
REMARK    2  A    between atoms: N_5  and  C_2 
REMARK       I    between atoms: N_9  and  C_4 
REMARK       I    between atoms: C_7  and  N_5 
REMARK    3  A    between atoms: C_13  and  C_7 
REMARK    4  A    between atoms: C_11  and  N_9 
ROOT
ATOM      1  C   UNL d   1      14.047  14.131  -1.866  0.00  0.00     0.175 A 
ATOM      2  C   UNL d   1      14.715  14.032  -1.491  0.00  0.00     0.114 A 
ATOM      3  O   UNL d   1      13.692  13.447  -1.901  0.00  0.00    -0.301 OA
ATOM      4  C   UNL d   1      14.776  13.288  -1.294  0.00  0.00     0.043 A 
ATOM      5  C   UNL d   1      14.140  12.924  -1.548  0.00  0.00     0.102 A 
ATOM      6  C   UNL d   1      15.317  12.895  -0.920  0.00  0.00     0.004 A 
ATOM      7  C   UNL d   1      14.052  12.174  -1.428  0.00  0.00     0.025 A 
ATOM      8  C   UNL d   1      15.227  12.137  -0.799  0.00  0.00     0.000 A 
ATOM      9  C   UNL d   1      14.597  11.779  -1.053  0.00  0.00     0.002 A 
ENDROOT
BRANCH   1  10
ATOM     10  C   UNL d   1      13.783  14.787  -2.152  0.00  0.00     0.303 C 
ATOM     11  N   UNL d   1      13.242  14.703  -3.542  0.00  0.00    -0.206 NA
ATOM     12  O   UNL d   1      13.764  15.473  -1.808  0.00  0.00    -0.263 OA
BRANCH  11  13
ATOM     13  C   UNL d   1      13.246  13.978  -3.942  0.00  0.00     0.085 A 
ATOM     14  C   UNL d   1      13.706  13.886  -4.625  0.00  0.00     0.019 A 
ATOM     15  C   UNL d   1      13.711  13.160  -5.027  0.00  0.00     0.002 A 
ATOM     16  C   UNL d   1      14.171  13.064  -5.712  0.00  0.00     0.000 C 
ATOM     17  C   UNL d   1      13.256  12.517  -4.750  0.00  0.00     0.000 A 
ATOM     18  C   UNL d   1      12.791  12.613  -4.058  0.00  0.00     0.002 A 
ATOM     19  C   UNL d   1      13.260  11.795  -5.148  0.00  0.00     0.000 C 
ATOM     20  C   UNL d   1      12.792  13.352  -3.656  0.00  0.00     0.019 A 
ENDBRANCH  11  13
ENDBRANCH   1  10
BRANCH   2  21
ATOM     21  N   UNL d   1      15.232  14.585  -1.341  0.00  0.00    -0.204 NA
ATOM     22  C   UNL d   1      15.119  15.098  -0.700  0.00  0.00     0.302 C 
ATOM     23  O   UNL d   1      14.444  15.018  -0.213  0.00  0.00    -0.263 OA
BRANCH  22  24
ATOM     24  C   UNL d   1      15.679  15.696  -0.541  0.00  0.00     0.158 A 
ATOM     25  O   UNL d   1      16.452  15.591  -0.244  0.00  0.00    -0.300 OA
ATOM     26  C   UNL d   1      16.806  16.333  -0.173  0.00  0.00     0.123 A 
ATOM     27  C   UNL d   1      16.260  16.912  -0.425  0.00  0.00     0.029 A 
ATOM     28  C   UNL d   1      15.570  16.527  -0.650  0.00  0.00     0.032 A 
ENDBRANCH  22  24
ENDBRANCH   2  21
TORSDOF 4
ENDMDL
