MODEL 1
REMARK VINA RESULT:      -8.2      0.000      0.000
REMARK  6 active torsions:
REMARK  status: ('A' for Active; 'I' for Inactive)
REMARK    1  A    between atoms: C_5  and  N_1 
REMARK    2  A    between atoms: C_10  and  C_4 
REMARK    3  A    between atoms: C_6  and  S_13 
REMARK    4  A    between atoms: C_8  and  C_11 
REMARK    5  A    between atoms: C_14  and  C_8 
REMARK    6  A    between atoms: S_13  and  C_14 
ROOT
ATOM      1  S   UNL d   1      52.358  33.349  52.996  0.00  0.00    -0.062 SA
ENDROOT
BRANCH   1   2
ATOM      2  C   UNL d   1      51.624  33.713  52.841  0.00  0.00     0.133 A 
ATOM      3  N   UNL d   1      51.017  33.685  53.410  0.00  0.00    -0.141 NA
ATOM      4  N   UNL d   1      50.289  34.046  53.255  0.00  0.00    -0.146 NA
ATOM      5  C   UNL d   1      50.166  34.433  52.539  0.00  0.00     0.121 A 
ATOM      6  C   UNL d   1      50.774  34.462  51.971  0.00  0.00     0.025 A 
ATOM      7  C   UNL d   1      51.499  34.103  52.122  0.00  0.00     0.029 A 
BRANCH   5   8
ATOM      8  C   UNL d   1      49.441  34.793  52.386  0.00  0.00     0.101 A 
ATOM      9  N   UNL d   1      49.099  35.288  52.950  0.00  0.00    -0.242 NA
ATOM     10  C   UNL d   1      48.375  35.648  52.798  0.00  0.00     0.099 A 
ATOM     11  C   UNL d   1      47.983  35.514  52.074  0.00  0.00     0.021 A 
ATOM     12  C   UNL d   1      48.325  35.018  51.510  0.00  0.00     0.003 A 
ATOM     13  C   UNL d   1      49.052  34.658  51.665  0.00  0.00     0.021 A 
ENDBRANCH   5   8
ENDBRANCH   1   2
BRANCH   1  14
ATOM     14  C   UNL d   1      52.430  32.521  52.949  0.00  0.00     0.079 C 
BRANCH  14  15
ATOM     15  C   UNL d   1      53.150  32.159  53.120  0.00  0.00     0.202 C 
ATOM     16  O   UNL d   1      53.852  32.579  53.022  0.00  0.00    -0.286 OA
BRANCH  15  17
ATOM     17  C   UNL d   1      53.168  31.375  53.389  0.00  0.00     0.040 A 
ATOM     18  C   UNL d   1      52.815  30.778  52.944  0.00  0.00     0.005 A 
ATOM     19  C   UNL d   1      52.833  29.998  53.212  0.00  0.00     0.024 A 
ATOM     20  C   UNL d   1      53.204  29.815  53.924  0.00  0.00     0.127 A 
ATOM     21  C   UNL d   1      53.556  30.411  54.368  0.00  0.00     0.024 A 
ATOM     22  C   UNL d   1      53.539  31.191  54.100  0.00  0.00     0.005 A 
BRANCH  20  23
ATOM     23  N   UNL d   1      53.222  29.035  54.192  0.00  0.00    -0.114 N 
ATOM     24  O   UNL d   1      53.148  28.413  53.657  0.00  0.00    -0.532 OA
ATOM     25  O   UNL d   1      53.315  28.878  55.002  0.00  0.00    -0.532 OA
ENDBRANCH  20  23
ENDBRANCH  15  17
ENDBRANCH  14  15
ENDBRANCH   1  14
TORSDOF 6
ENDMDL
MODEL 2
REMARK VINA RESULT:      -8.0      3.046      6.210
REMARK  6 active torsions:
REMARK  status: ('A' for Active; 'I' for Inactive)
REMARK    1  A    between atoms: C_5  and  N_1 
REMARK    2  A    between atoms: C_10  and  C_4 
REMARK    3  A    between atoms: C_6  and  S_13 
REMARK    4  A    between atoms: C_8  and  C_11 
REMARK    5  A    between atoms: C_14  and  C_8 
REMARK    6  A    between atoms: S_13  and  C_14 
ROOT
ATOM      1  S   UNL d   1      50.523  34.086  52.196  0.00  0.00    -0.062 SA
ENDROOT
BRANCH   1   2
ATOM      2  C   UNL d   1      51.209  33.953  52.650  0.00  0.00     0.133 A 
ATOM      3  N   UNL d   1      51.227  33.335  53.208  0.00  0.00    -0.141 NA
ATOM      4  N   UNL d   1      51.909  33.205  53.657  0.00  0.00    -0.146 NA
ATOM      5  C   UNL d   1      52.569  33.685  53.553  0.00  0.00     0.121 A 
ATOM      6  C   UNL d   1      52.551  34.303  52.995  0.00  0.00     0.025 A 
ATOM      7  C   UNL d   1      51.874  34.435  52.546  0.00  0.00     0.029 A 
BRANCH   5   8
ATOM      8  C   UNL d   1      53.247  33.554  54.002  0.00  0.00     0.101 A 
ATOM      9  N   UNL d   1      53.792  32.981  53.768  0.00  0.00    -0.242 NA
ATOM     10  C   UNL d   1      54.470  32.849  54.215  0.00  0.00     0.099 A 
ATOM     11  C   UNL d   1      54.610  33.294  54.907  0.00  0.00     0.021 A 
ATOM     12  C   UNL d   1      54.065  33.868  55.141  0.00  0.00     0.003 A 
ATOM     13  C   UNL d   1      53.385  33.998  54.690  0.00  0.00     0.021 A 
ENDBRANCH   5   8
ENDBRANCH   1   2
BRANCH   1  14
ATOM     14  C   UNL d   1      49.929  34.598  52.478  0.00  0.00     0.079 C 
BRANCH  14  15
ATOM     15  C   UNL d   1      49.280  34.777  52.005  0.00  0.00     0.202 C 
ATOM     16  O   UNL d   1      49.266  34.531  51.219  0.00  0.00    -0.286 OA
BRANCH  15  17
ATOM     17  C   UNL d   1      48.642  35.203  52.319  0.00  0.00     0.040 A 
ATOM     18  C   UNL d   1      48.713  35.573  53.052  0.00  0.00     0.005 A 
ATOM     19  C   UNL d   1      48.078  35.997  53.364  0.00  0.00     0.024 A 
ATOM     20  C   UNL d   1      47.372  36.052  52.943  0.00  0.00     0.127 A 
ATOM     21  C   UNL d   1      47.301  35.683  52.211  0.00  0.00     0.024 A 
ATOM     22  C   UNL d   1      47.936  35.259  51.899  0.00  0.00     0.005 A 
BRANCH  20  23
ATOM     23  N   UNL d   1      46.737  36.476  53.255  0.00  0.00    -0.114 N 
ATOM     24  O   UNL d   1      46.116  36.709  52.766  0.00  0.00    -0.532 OA
ATOM     25  O   UNL d   1      46.726  36.668  54.062  0.00  0.00    -0.532 OA
ENDBRANCH  20  23
ENDBRANCH  15  17
ENDBRANCH  14  15
ENDBRANCH   1  14
TORSDOF 6
ENDMDL
MODEL 3
REMARK VINA RESULT:      -7.9      2.085      2.644
REMARK  6 active torsions:
REMARK  status: ('A' for Active; 'I' for Inactive)
REMARK    1  A    between atoms: C_5  and  N_1 
REMARK    2  A    between atoms: C_10  and  C_4 
REMARK    3  A    between atoms: C_6  and  S_13 
REMARK    4  A    between atoms: C_8  and  C_11 
REMARK    5  A    between atoms: C_14  and  C_8 
REMARK    6  A    between atoms: S_13  and  C_14 
ROOT
ATOM      1  S   UNL d   1      51.160  33.661  52.566  0.00  0.00    -0.062 SA
ENDROOT
BRANCH   1   2
ATOM      2  C   UNL d   1      50.487  34.150  52.605  0.00  0.00     0.133 A 
ATOM      3  N   UNL d   1      50.280  34.518  53.323  0.00  0.00    -0.141 NA
ATOM      4  N   UNL d   1      49.611  35.003  53.360  0.00  0.00    -0.146 NA
ATOM      5  C   UNL d   1      49.151  35.122  52.689  0.00  0.00     0.121 A 
ATOM      6  C   UNL d   1      49.358  34.755  51.970  0.00  0.00     0.025 A 
ATOM      7  C   UNL d   1      50.024  34.271  51.930  0.00  0.00     0.029 A 
BRANCH   5   8
ATOM      8  C   UNL d   1      48.486  35.605  52.727  0.00  0.00     0.101 A 
ATOM      9  N   UNL d   1      48.369  36.096  53.380  0.00  0.00    -0.242 NA
ATOM     10  C   UNL d   1      47.705  36.580  53.420  0.00  0.00     0.099 A 
ATOM     11  C   UNL d   1      47.145  36.576  52.801  0.00  0.00     0.021 A 
ATOM     12  C   UNL d   1      47.261  36.085  52.148  0.00  0.00     0.003 A 
ATOM     13  C   UNL d   1      47.929  35.601  52.111  0.00  0.00     0.021 A 
ENDBRANCH   5   8
ENDBRANCH   1   2
BRANCH   1  14
ATOM     14  C   UNL d   1      51.776  33.754  53.119  0.00  0.00     0.079 C 
BRANCH  14  15
ATOM     15  C   UNL d   1      52.448  33.281  53.072  0.00  0.00     0.202 C 
ATOM     16  O   UNL d   1      52.522  32.734  52.460  0.00  0.00    -0.286 OA
BRANCH  15  17
ATOM     17  C   UNL d   1      53.049  33.355  53.638  0.00  0.00     0.040 A 
ATOM     18  C   UNL d   1      53.457  32.688  53.897  0.00  0.00     0.005 A 
ATOM     19  C   UNL d   1      54.056  32.761  54.460  0.00  0.00     0.024 A 
ATOM     20  C   UNL d   1      54.246  33.503  54.765  0.00  0.00     0.127 A 
ATOM     21  C   UNL d   1      53.838  34.169  54.507  0.00  0.00     0.024 A 
ATOM     22  C   UNL d   1      53.240  34.095  53.943  0.00  0.00     0.005 A 
BRANCH  20  23
ATOM     23  N   UNL d   1      54.844  33.576  55.328  0.00  0.00    -0.114 N 
ATOM     24  O   UNL d   1      54.786  33.177  56.047  0.00  0.00    -0.532 OA
ATOM     25  O   UNL d   1      55.504  34.053  55.169  0.00  0.00    -0.532 OA
ENDBRANCH  20  23
ENDBRANCH  15  17
ENDBRANCH  14  15
ENDBRANCH   1  14
TORSDOF 6
ENDMDL
