MODEL 1
REMARK VINA RESULT:      52.5      0.000      0.000
REMARK  6 active torsions:
REMARK  status: ('A' for Active; 'I' for Inactive)
REMARK    1  A    between atoms: N_2  and  S_1 
REMARK    2  A    between atoms: C_6  and  S_1 
REMARK    3  A    between atoms: C_4  and  N_2 
REMARK    4  A    between atoms: C_5  and  C_3 
REMARK    5  A    between atoms: O_12  and  C_5 
REMARK    6  A    between atoms: C_18  and  O_12 
ROOT
ATOM      1  C   UNL d   1      61.166  49.424  51.033  0.00  0.00     0.082 A 
ATOM      2  C   UNL d   1      60.457  49.376  50.626  0.00  0.00     0.099 A 
ATOM      3  C   UNL d   1      61.865  49.581  50.623  0.00  0.00     0.007 A 
ATOM      4  C   UNL d   1      60.447  49.486  49.809  0.00  0.00     0.020 A 
ATOM      5  C   UNL d   1      61.851  49.690  49.808  0.00  0.00     0.000 A 
ATOM      6  C   UNL d   1      61.141  49.642  49.401  0.00  0.00     0.002 A 
ENDROOT
BRANCH   2   7
ATOM      7  N   UNL d   1      59.741  49.217  51.034  0.00  0.00    -0.158 NA
BRANCH   7   8
ATOM      8  S   UNL d   1      59.031  49.248  50.622  0.00  0.00     0.285 S 
ATOM      9  O   UNL d   1      58.678  49.695  51.250  0.00  0.00    -0.198 OA
ATOM     10  O   UNL d   1      59.349  48.817  49.999  0.00  0.00    -0.198 OA
BRANCH   8  11
ATOM     11  C   UNL d   1      58.299  49.292  50.218  0.00  0.00     0.105 A 
ATOM     12  C   UNL d   1      58.284  49.209  49.393  0.00  0.00     0.013 A 
ATOM     13  C   UNL d   1      57.561  49.252  48.994  0.00  0.00     0.001 A 
ATOM     14  C   UNL d   1      56.873  49.377  49.432  0.00  0.00     0.000 A 
ATOM     15  C   UNL d   1      56.881  49.460  50.250  0.00  0.00     0.001 A 
ATOM     16  C   UNL d   1      56.141  49.423  49.052  0.00  0.00     0.000 C 
ATOM     17  C   UNL d   1      57.603  49.417  50.648  0.00  0.00     0.013 A 
ENDBRANCH   8  11
ENDBRANCH   7   8
ENDBRANCH   2   7
BRANCH   1  18
ATOM     18  C   UNL d   1      61.179  49.310  51.879  0.00  0.00     0.302 C 
ATOM     19  O   UNL d   1      60.609  48.848  52.235  0.00  0.00    -0.259 OA
BRANCH  18  20
ATOM     20  O   UNL d   1      61.766  49.666  52.346  0.00  0.00    -0.271 OA
BRANCH  20  21
ATOM     21  C   UNL d   1      61.734  49.586  53.178  0.00  0.00     0.126 C 
ATOM     22  C   UNL d   1      62.097  48.952  53.541  0.00  0.00     0.029 C 
ENDBRANCH  20  21
ENDBRANCH  18  20
ENDBRANCH   1  18
TORSDOF 6
ENDMDL
MODEL 2
REMARK VINA RESULT:      55.4      2.127      3.954
REMARK  6 active torsions:
REMARK  status: ('A' for Active; 'I' for Inactive)
REMARK    1  A    between atoms: N_2  and  S_1 
REMARK    2  A    between atoms: C_6  and  S_1 
REMARK    3  A    between atoms: C_4  and  N_2 
REMARK    4  A    between atoms: C_5  and  C_3 
REMARK    5  A    between atoms: O_12  and  C_5 
REMARK    6  A    between atoms: C_18  and  O_12 
ROOT
ATOM      1  C   UNL d   1      60.038  49.495  51.346  0.00  0.00     0.082 A 
ATOM      2  C   UNL d   1      60.797  49.216  51.215  0.00  0.00     0.099 A 
ATOM      3  C   UNL d   1      59.804  49.708  52.108  0.00  0.00     0.007 A 
ATOM      4  C   UNL d   1      61.321  49.149  51.847  0.00  0.00     0.020 A 
ATOM      5  C   UNL d   1      60.330  49.640  52.736  0.00  0.00     0.000 A 
ATOM      6  C   UNL d   1      61.089  49.360  52.605  0.00  0.00     0.002 A 
ENDROOT
BRANCH   2   7
ATOM      7  N   UNL d   1      61.043  48.997  50.443  0.00  0.00    -0.158 NA
BRANCH   7   8
ATOM      8  S   UNL d   1      61.222  48.210  50.290  0.00  0.00     0.285 S 
ATOM      9  O   UNL d   1      61.498  48.417  49.516  0.00  0.00    -0.198 OA
ATOM     10  O   UNL d   1      60.961  47.983  51.035  0.00  0.00    -0.198 OA
BRANCH   8  11
ATOM     11  C   UNL d   1      61.411  47.413  50.113  0.00  0.00     0.105 A 
ATOM     12  C   UNL d   1      61.003  46.803  50.500  0.00  0.00     0.013 A 
ATOM     13  C   UNL d   1      61.190  46.017  50.326  0.00  0.00     0.001 A 
ATOM     14  C   UNL d   1      61.780  45.863  49.771  0.00  0.00     0.000 A 
ATOM     15  C   UNL d   1      62.188  46.463  49.384  0.00  0.00     0.001 A 
ATOM     16  C   UNL d   1      61.981  45.084  49.583  0.00  0.00     0.000 C 
ATOM     17  C   UNL d   1      62.001  47.249  49.558  0.00  0.00     0.013 A 
ENDBRANCH   8  11
ENDBRANCH   7   8
ENDBRANCH   2   7
BRANCH   1  18
ATOM     18  C   UNL d   1      59.492  49.565  50.692  0.00  0.00     0.302 C 
ATOM     19  O   UNL d   1      59.776  49.708  49.941  0.00  0.00    -0.259 OA
BRANCH  18  20
ATOM     20  O   UNL d   1      58.675  49.490  50.812  0.00  0.00    -0.271 OA
BRANCH  20  21
ATOM     21  C   UNL d   1      58.155  49.569  50.162  0.00  0.00     0.126 C 
ATOM     22  C   UNL d   1      57.361  49.708  50.289  0.00  0.00     0.029 C 
ENDBRANCH  20  21
ENDBRANCH  18  20
ENDBRANCH   1  18
TORSDOF 6
ENDMDL
