MODEL 1
REMARK VINA RESULT:       3.0      0.000      0.000
REMARK  9 active torsions:
REMARK  status: ('A' for Active; 'I' for Inactive)
REMARK    1  A    between atoms: N_7  and  N_1 
REMARK    2  A    between atoms: S_9  and  C_2 
REMARK       I    between atoms: C_8  and  N_7 
REMARK    3  A    between atoms: C_15  and  C_8 
REMARK    4  A    between atoms: C_14  and  S_9 
REMARK    5  A    between atoms: C_11  and  C_14 
REMARK       I    between atoms: N_16  and  C_11 
REMARK    6  A    between atoms: C_18  and  C_15 
REMARK    7  A    between atoms: C_19  and  N_16 
REMARK    8  A    between atoms: C_22  and  C_19 
REMARK    9  A    between atoms: C_21  and  C_22 
ROOT
ATOM      1  N   UNL d   1      31.088  17.782 -24.206  0.00  0.00    -0.168 N 
ATOM      2  C   UNL d   1      31.799  18.169 -24.092  0.00  0.00     0.199 A 
ATOM      3  C   UNL d   1      31.083  17.004 -24.486  0.00  0.00     0.283 A 
ATOM      4  N   UNL d   1      32.533  17.787 -24.256  0.00  0.00    -0.221 NA
ATOM      5  C   UNL d   1      31.816  16.615 -24.653  0.00  0.00     0.076 A 
ATOM      6  C   UNL d   1      32.533  17.005 -24.538  0.00  0.00     0.088 A 
ATOM      7  O   UNL d   1      30.366  16.607 -24.603  0.00  0.00    -0.265 OA
ATOM      8  C   UNL d   1      31.796  15.831 -24.934  0.00  0.00     0.006 A 
ATOM      9  C   UNL d   1      33.241  16.618 -24.703  0.00  0.00     0.019 A 
ATOM     10  C   UNL d   1      32.519  15.453 -25.097  0.00  0.00     0.000 A 
ATOM     11  C   UNL d   1      33.237  15.844 -24.982  0.00  0.00     0.002 A 
ENDROOT
BRANCH   2  12
ATOM     12  S   UNL d   1      31.809  18.938 -23.815  0.00  0.00    -0.043 SA
BRANCH  12  13
ATOM     13  C   UNL d   1      32.501  19.254 -23.487  0.00  0.00     0.101 C 
BRANCH  13  14
ATOM     14  C   UNL d   1      32.491  20.010 -23.162  0.00  0.00     0.286 C 
ATOM     15  O   UNL d   1      32.313  20.661 -23.641  0.00  0.00    -0.265 OA
ATOM     16  N   UNL d   1      32.656  20.123 -22.364  0.00  0.00    -0.206 NA
BRANCH  16  17
ATOM     17  C   UNL d   1      32.646  20.880 -22.039  0.00  0.00     0.102 C 
BRANCH  17  18
ATOM     18  C   UNL d   1      32.809  20.993 -21.240  0.00  0.00     0.021 C 
BRANCH  18  19
ATOM     19  C   UNL d   1      32.735  21.738 -20.903  0.00  0.00     0.002 A 
ATOM     20  C   UNL d   1      32.161  22.263 -21.186  0.00  0.00     0.000 A 
ATOM     21  C   UNL d   1      32.090  23.017 -20.842  0.00  0.00     0.000 A 
ATOM     22  C   UNL d   1      32.586  23.241 -20.223  0.00  0.00     0.000 A 
ATOM     23  C   UNL d   1      33.161  22.707 -19.943  0.00  0.00     0.000 A 
ATOM     24  C   UNL d   1      33.231  21.963 -20.284  0.00  0.00     0.000 A 
ENDBRANCH  18  19
ENDBRANCH  17  18
ENDBRANCH  16  17
ENDBRANCH  13  14
ENDBRANCH  12  13
ENDBRANCH   2  12
BRANCH   1  25
ATOM     25  N   UNL d   1      30.385  18.162 -24.043  0.00  0.00    -0.119 NA
ATOM     26  C   UNL d   1      29.712  17.726 -23.856  0.00  0.00     0.296 C 
ATOM     27  O   UNL d   1      29.738  16.901 -23.831  0.00  0.00    -0.264 OA
BRANCH  26  28
ATOM     28  C   UNL d   1      29.000  18.118 -23.692  0.00  0.00     0.064 C 
BRANCH  28  29
ATOM     29  C   UNL d   1      28.362  17.696 -23.400  0.00  0.00     0.005 A 
ATOM     30  C   UNL d   1      28.350  16.878 -23.455  0.00  0.00     0.000 A 
ATOM     31  C   UNL d   1      27.708  16.451 -23.162  0.00  0.00     0.000 A 
ATOM     32  C   UNL d   1      27.075  16.854 -22.810  0.00  0.00     0.000 A 
ATOM     33  C   UNL d   1      27.087  17.672 -22.755  0.00  0.00     0.000 A 
ATOM     34  C   UNL d   1      27.726  18.097 -23.047  0.00  0.00     0.000 A 
ENDBRANCH  28  29
ENDBRANCH  26  28
ENDBRANCH   1  25
TORSDOF 9
ENDMDL
