MODEL 1
REMARK VINA RESULT:      -2.3      0.000      0.000
REMARK  5 active torsions:
REMARK  status: ('A' for Active; 'I' for Inactive)
REMARK    1  A    between atoms: C_8  and  C_1 
REMARK    2  A    between atoms: C_9  and  C_2 
REMARK    3  A    between atoms: S_6  and  C_4 
REMARK    4  A    between atoms: C_11  and  S_6 
REMARK    5  A    between atoms: C_7  and  C_11 
ROOT
ATOM      1  C   UNL d   1      58.441  -1.109  30.004  0.00  0.00     0.107 A 
ATOM      2  C   UNL d   1      58.688  -0.323  30.018  0.00  0.00     0.120 A 
ATOM      3  N   UNL d   1      57.789  -1.170  30.502  0.00  0.00    -0.214 NA
ATOM      4  C   UNL d   1      57.643  -0.424  30.815  0.00  0.00     0.215 A 
ATOM      5  O   UNL d   1      58.204   0.095  30.510  0.00  0.00    -0.283 OA
ENDROOT
BRANCH   1   6
ATOM      6  C   UNL d   1      58.757  -1.750  29.586  0.00  0.00     0.020 A 
ATOM      7  C   UNL d   1      59.420  -2.159  29.900  0.00  0.00     0.002 A 
ATOM      8  C   UNL d   1      59.737  -2.812  29.468  0.00  0.00     0.000 A 
ATOM      9  C   UNL d   1      59.398  -3.033  28.759  0.00  0.00     0.000 A 
ATOM     10  C   UNL d   1      58.743  -2.623  28.455  0.00  0.00     0.000 A 
ATOM     11  C   UNL d   1      58.421  -1.982  28.866  0.00  0.00     0.002 A 
ENDBRANCH   1   6
BRANCH   2  12
ATOM     12  C   UNL d   1      59.318   0.012  29.610  0.00  0.00     0.024 A 
ATOM     13  C   UNL d   1      60.076   0.027  29.941  0.00  0.00     0.002 A 
ATOM     14  C   UNL d   1      60.714   0.361  29.538  0.00  0.00     0.000 A 
ATOM     15  C   UNL d   1      60.587   0.682  28.799  0.00  0.00     0.000 A 
ATOM     16  C   UNL d   1      59.836   0.672  28.462  0.00  0.00     0.000 A 
ATOM     17  C   UNL d   1      59.206   0.337  28.870  0.00  0.00     0.002 A 
ENDBRANCH   2  12
BRANCH   4  18
ATOM     18  S   UNL d   1      57.027  -0.252  31.346  0.00  0.00    -0.037 SA
BRANCH  18  19
ATOM     19  C   UNL d   1      56.959  -0.701  32.052  0.00  0.00     0.103 C 
BRANCH  19  20
ATOM     20  C   UNL d   1      56.325  -0.579  32.543  0.00  0.00     0.303 C 
ATOM     21  O   UNL d   1      56.070   0.203  32.720  0.00  0.00    -0.263 OA
ATOM     22  N   UNL d   1      55.925  -1.224  32.874  0.00  0.00    -0.102 N 
ENDBRANCH  19  20
ENDBRANCH  18  19
ENDBRANCH   4  18
TORSDOF 5
ENDMDL
