MODEL 1
REMARK VINA RESULT:      -7.5      0.000      0.000
REMARK  3 active torsions:
REMARK  status: ('A' for Active; 'I' for Inactive)
REMARK    1  A    between atoms: C_6  and  N_1 
REMARK    2  A    between atoms: C_7  and  C_6 
REMARK    3  A    between atoms: C_8  and  C_7 
ROOT
ATOM      1  N   UNL d   1      53.522  32.058  53.590  0.00  0.00    -0.211 N 
ATOM      2  N   UNL d   1      52.640  31.365  52.860  0.00  0.00    -0.206 NA
ATOM      3  C   UNL d   1      52.896  32.126  53.060  0.00  0.00     0.166 A 
ATOM      4  N   UNL d   1      53.658  31.245  53.722  0.00  0.00    -0.144 NA
ATOM      5  C   UNL d   1      53.109  30.815  53.267  0.00  0.00     0.184 A 
ATOM      6  C   UNL d   1      52.572  32.827  52.773  0.00  0.00     0.042 C 
ATOM      7  C   UNL d   1      53.048  29.995  53.233  0.00  0.00     0.044 C 
ENDROOT
BRANCH   1   8
ATOM      8  C   UNL d   1      53.949  32.679  53.938  0.00  0.00     0.091 C 
ATOM      9  C   UNL d   1      54.556  33.040  53.507  0.00  0.00     0.021 C 
BRANCH   8  10
ATOM     10  C   UNL d   1      53.773  32.934  54.699  0.00  0.00     0.089 C 
BRANCH  10  11
ATOM     11  C   UNL d   1      54.260  33.483  55.077  0.00  0.00     0.213 C 
ATOM     12  O   UNL d   1      54.967  33.239  55.422  0.00  0.00    -0.644 OA
ATOM     13  O   UNL d   1      54.038  34.279  55.107  0.00  0.00    -0.644 OA
ENDBRANCH  10  11
ENDBRANCH   8  10
ENDBRANCH   1   8
TORSDOF 3
ENDMDL
MODEL 2
REMARK VINA RESULT:      -7.3      2.009      3.199
REMARK  3 active torsions:
REMARK  status: ('A' for Active; 'I' for Inactive)
REMARK    1  A    between atoms: C_6  and  N_1 
REMARK    2  A    between atoms: C_7  and  C_6 
REMARK    3  A    between atoms: C_8  and  C_7 
ROOT
ATOM      1  N   UNL d   1      53.714  33.492  54.156  0.00  0.00    -0.211 N 
ATOM      2  N   UNL d   1      53.843  34.525  54.998  0.00  0.00    -0.206 NA
ATOM      3  C   UNL d   1      54.107  33.759  54.828  0.00  0.00     0.166 A 
ATOM      4  N   UNL d   1      53.199  34.099  53.903  0.00  0.00    -0.144 NA
ATOM      5  C   UNL d   1      53.280  34.740  54.427  0.00  0.00     0.184 A 
ATOM      6  C   UNL d   1      54.668  33.342  55.265  0.00  0.00     0.042 C 
ATOM      7  C   UNL d   1      52.874  35.454  54.382  0.00  0.00     0.044 C 
ENDROOT
BRANCH   1   8
ATOM      8  C   UNL d   1      53.806  32.754  53.787  0.00  0.00     0.091 C 
ATOM      9  C   UNL d   1      54.517  32.584  53.401  0.00  0.00     0.021 C 
BRANCH   8  10
ATOM     10  C   UNL d   1      53.199  32.200  53.803  0.00  0.00     0.089 C 
BRANCH  10  11
ATOM     11  C   UNL d   1      53.184  31.585  53.252  0.00  0.00     0.213 C 
ATOM     12  O   UNL d   1      52.858  31.707  52.506  0.00  0.00    -0.644 OA
ATOM     13  O   UNL d   1      53.497  30.845  53.451  0.00  0.00    -0.644 OA
ENDBRANCH  10  11
ENDBRANCH   8  10
ENDBRANCH   1   8
TORSDOF 3
ENDMDL
MODEL 3
REMARK VINA RESULT:      -6.8      1.955      2.933
REMARK  3 active torsions:
REMARK  status: ('A' for Active; 'I' for Inactive)
REMARK    1  A    between atoms: C_6  and  N_1 
REMARK    2  A    between atoms: C_7  and  C_6 
REMARK    3  A    between atoms: C_8  and  C_7 
ROOT
ATOM      1  N   UNL d   1      52.982  33.062  53.740  0.00  0.00    -0.211 N 
ATOM      2  N   UNL d   1      54.035  32.351  54.158  0.00  0.00    -0.206 NA
ATOM      3  C   UNL d   1      53.385  32.351  53.646  0.00  0.00     0.166 A 
ATOM      4  N   UNL d   1      53.385  33.511  54.318  0.00  0.00    -0.144 NA
ATOM      5  C   UNL d   1      54.040  33.067  54.577  0.00  0.00     0.184 A 
ATOM      6  C   UNL d   1      53.184  31.739  53.132  0.00  0.00     0.042 C 
ATOM      7  C   UNL d   1      54.588  33.301  55.144  0.00  0.00     0.044 C 
ENDROOT
BRANCH   1   8
ATOM      8  C   UNL d   1      52.296  33.302  53.338  0.00  0.00     0.091 C 
ATOM      9  C   UNL d   1      51.640  32.798  53.327  0.00  0.00     0.021 C 
BRANCH   8  10
ATOM     10  C   UNL d   1      52.267  34.030  52.957  0.00  0.00     0.089 C 
BRANCH  10  11
ATOM     11  C   UNL d   1      51.560  34.296  52.624  0.00  0.00     0.213 C 
ATOM     12  O   UNL d   1      50.977  34.626  53.103  0.00  0.00    -0.644 OA
ATOM     13  O   UNL d   1      51.437  34.230  51.808  0.00  0.00    -0.644 OA
ENDBRANCH  10  11
ENDBRANCH   8  10
ENDBRANCH   1   8
TORSDOF 3
ENDMDL
MODEL 4
REMARK VINA RESULT:      -6.8      1.634      2.319
REMARK  3 active torsions:
REMARK  status: ('A' for Active; 'I' for Inactive)
REMARK    1  A    between atoms: C_6  and  N_1 
REMARK    2  A    between atoms: C_7  and  C_6 
REMARK    3  A    between atoms: C_8  and  C_7 
ROOT
ATOM      1  N   UNL d   1      52.917  32.412  53.268  0.00  0.00    -0.211 N 
ATOM      2  N   UNL d   1      53.576  31.358  53.762  0.00  0.00    -0.206 NA
ATOM      3  C   UNL d   1      53.472  32.176  53.828  0.00  0.00     0.166 A 
ATOM      4  N   UNL d   1      52.672  31.733  52.847  0.00  0.00    -0.144 NA
ATOM      5  C   UNL d   1      53.083  31.078  53.156  0.00  0.00     0.184 A 
ATOM      6  C   UNL d   1      53.862  32.663  54.366  0.00  0.00     0.042 C 
ATOM      7  C   UNL d   1      53.009  30.299  52.902  0.00  0.00     0.044 C 
ENDROOT
BRANCH   1   8
ATOM      8  C   UNL d   1      52.642  33.184  53.135  0.00  0.00     0.091 C 
ATOM      9  C   UNL d   1      53.190  33.800  53.069  0.00  0.00     0.021 C 
BRANCH   8  10
ATOM     10  C   UNL d   1      51.836  33.336  53.069  0.00  0.00     0.089 C 
BRANCH  10  11
ATOM     11  C   UNL d   1      51.574  34.065  52.783  0.00  0.00     0.213 C 
ATOM     12  O   UNL d   1      51.412  34.679  53.306  0.00  0.00    -0.644 OA
ATOM     13  O   UNL d   1      51.473  34.176  51.969  0.00  0.00    -0.644 OA
ENDBRANCH  10  11
ENDBRANCH   8  10
ENDBRANCH   1   8
TORSDOF 3
ENDMDL
