MODEL 1
REMARK VINA RESULT:      -8.0      0.000      0.000
REMARK  1 active torsions:
REMARK  status: ('A' for Active; 'I' for Inactive)
REMARK       I    between atoms: N_2  and  C_1 
REMARK       I    between atoms: N_4  and  C_1 
REMARK    1  A    between atoms: C_5  and  N_3 
ROOT
ATOM      1  C   UNL d   1     -45.922  12.600  22.919  0.00  0.00     0.339 C 
ATOM      2  N   UNL d   1     -46.655  12.972  22.852  0.00  0.00    -0.254 N 
ATOM      3  N   UNL d   1     -48.106  13.710  22.720  0.00  0.00    -0.301 N 
ATOM      4  N   UNL d   1     -45.869  11.830  23.208  0.00  0.00    -0.258 N 
ATOM      5  O   UNL d   1     -45.238  13.004  22.692  0.00  0.00    -0.245 OA
ATOM      6  C   UNL d   1     -46.703  13.736  22.564  0.00  0.00     0.104 A 
ATOM      7  C   UNL d   1     -47.346  12.563  23.081  0.00  0.00     0.104 A 
ATOM      8  C   UNL d   1     -48.070  12.931  23.015  0.00  0.00     0.100 A 
ATOM      9  C   UNL d   1     -47.427  14.104  22.498  0.00  0.00     0.100 A 
ATOM     10  C   UNL d   1     -45.180  11.397  23.303  0.00  0.00     0.085 A 
ATOM     11  C   UNL d   1     -46.501  11.364  23.453  0.00  0.00     0.085 A 
ATOM     12  C   UNL d   1     -46.202  10.643  23.698  0.00  0.00     0.021 A 
ATOM     13  C   UNL d   1     -45.386  10.658  23.607  0.00  0.00     0.021 A 
ENDROOT
BRANCH   3  14
ATOM     14  C   UNL d   1     -48.847  14.087  22.652  0.00  0.00     0.064 A 
ATOM     15  C   UNL d   1     -49.033  14.723  23.150  0.00  0.00     0.018 A 
ATOM     16  C   UNL d   1     -49.774  15.103  23.087  0.00  0.00     0.001 A 
ATOM     17  C   UNL d   1     -49.962  15.733  23.578  0.00  0.00     0.000 C 
ATOM     18  C   UNL d   1     -50.333  14.839  22.514  0.00  0.00     0.000 A 
ATOM     19  C   UNL d   1     -50.138  14.195  22.015  0.00  0.00     0.002 A 
ATOM     20  C   UNL d   1     -51.064  15.211  22.448  0.00  0.00     0.000 C 
ATOM     21  C   UNL d   1     -49.399  13.820  22.082  0.00  0.00     0.018 A 
ENDBRANCH   3  14
TORSDOF 1
ENDMDL
MODEL 2
REMARK VINA RESULT:      -7.7      1.551      4.727
REMARK  1 active torsions:
REMARK  status: ('A' for Active; 'I' for Inactive)
REMARK       I    between atoms: N_2  and  C_1 
REMARK       I    between atoms: N_4  and  C_1 
REMARK    1  A    between atoms: C_5  and  N_3 
ROOT
ATOM      1  C   UNL d   1     -50.238  14.132  22.378  0.00  0.00     0.339 C 
ATOM      2  N   UNL d   1     -49.574  13.681  22.562  0.00  0.00    -0.254 N 
ATOM      3  N   UNL d   1     -48.258  12.785  22.928  0.00  0.00    -0.301 N 
ATOM      4  N   UNL d   1     -50.413  14.814  22.806  0.00  0.00    -0.258 N 
ATOM      5  O   UNL d   1     -50.731  13.897  21.757  0.00  0.00    -0.245 OA
ATOM      6  C   UNL d   1     -49.405  13.005  22.134  0.00  0.00     0.104 A 
ATOM      7  C   UNL d   1     -49.077  13.919  23.189  0.00  0.00     0.104 A 
ATOM      8  C   UNL d   1     -48.420  13.472  23.372  0.00  0.00     0.100 A 
ATOM      9  C   UNL d   1     -48.748  12.558  22.317  0.00  0.00     0.100 A 
ATOM     10  C   UNL d   1     -51.052  15.311  22.682  0.00  0.00     0.085 A 
ATOM     11  C   UNL d   1     -49.973  15.112  23.435  0.00  0.00     0.085 A 
ATOM     12  C   UNL d   1     -50.341  15.794  23.698  0.00  0.00     0.021 A 
ATOM     13  C   UNL d   1     -51.008  15.922  23.236  0.00  0.00     0.021 A 
ENDROOT
BRANCH   3  14
ATOM     14  C   UNL d   1     -47.585  12.328  23.115  0.00  0.00     0.064 A 
ATOM     15  C   UNL d   1     -46.831  12.600  22.907  0.00  0.00     0.018 A 
ATOM     16  C   UNL d   1     -46.155  12.146  23.092  0.00  0.00     0.001 A 
ATOM     17  C   UNL d   1     -45.406  12.413  22.888  0.00  0.00     0.000 C 
ATOM     18  C   UNL d   1     -46.241  11.409  23.491  0.00  0.00     0.000 A 
ATOM     19  C   UNL d   1     -47.008  11.140  23.698  0.00  0.00     0.002 A 
ATOM     20  C   UNL d   1     -45.578  10.958  23.675  0.00  0.00     0.000 C 
ATOM     21  C   UNL d   1     -47.677  11.596  23.512  0.00  0.00     0.018 A 
ENDBRANCH   3  14
TORSDOF 1
ENDMDL
MODEL 3
REMARK VINA RESULT:      -7.4      1.263      1.755
REMARK  1 active torsions:
REMARK  status: ('A' for Active; 'I' for Inactive)
REMARK       I    between atoms: N_2  and  C_1 
REMARK       I    between atoms: N_4  and  C_1 
REMARK    1  A    between atoms: C_5  and  N_3 
ROOT
ATOM      1  C   UNL d   1     -45.361  11.968  22.949  0.00  0.00     0.339 C 
ATOM      2  N   UNL d   1     -46.173  12.059  23.055  0.00  0.00    -0.254 N 
ATOM      3  N   UNL d   1     -47.782  12.241  23.266  0.00  0.00    -0.301 N 
ATOM      4  N   UNL d   1     -44.982  11.278  23.192  0.00  0.00    -0.258 N 
ATOM      5  O   UNL d   1     -44.926  12.575  22.596  0.00  0.00    -0.245 OA
ATOM      6  C   UNL d   1     -46.544  12.746  22.813  0.00  0.00     0.104 A 
ATOM      7  C   UNL d   1     -46.612  11.446  23.412  0.00  0.00     0.104 A 
ATOM      8  C   UNL d   1     -47.415  11.536  23.518  0.00  0.00     0.100 A 
ATOM      9  C   UNL d   1     -47.347  12.837  22.918  0.00  0.00     0.100 A 
ATOM     10  C   UNL d   1     -44.182  11.115  23.119  0.00  0.00     0.085 A 
ATOM     11  C   UNL d   1     -45.344  10.631  23.549  0.00  0.00     0.085 A 
ATOM     12  C   UNL d   1     -44.768  10.070  23.698  0.00  0.00     0.021 A 
ATOM     13  C   UNL d   1     -44.048  10.364  23.434  0.00  0.00     0.021 A 
ENDROOT
BRANCH   3  14
ATOM     14  C   UNL d   1     -48.605  12.333  23.374  0.00  0.00     0.064 A 
ATOM     15  C   UNL d   1     -48.952  13.079  23.273  0.00  0.00     0.018 A 
ATOM     16  C   UNL d   1     -49.775  13.176  23.380  0.00  0.00     0.001 A 
ATOM     17  C   UNL d   1     -50.123  13.913  23.281  0.00  0.00     0.000 C 
ATOM     18  C   UNL d   1     -50.252  12.515  23.590  0.00  0.00     0.000 A 
ATOM     19  C   UNL d   1     -49.893  11.764  23.690  0.00  0.00     0.002 A 
ATOM     20  C   UNL d   1     -51.063  12.606  23.697  0.00  0.00     0.000 C 
ATOM     21  C   UNL d   1     -49.074  11.672  23.583  0.00  0.00     0.018 A 
ENDBRANCH   3  14
TORSDOF 1
ENDMDL
MODEL 4
REMARK VINA RESULT:      -7.3      0.857      1.626
REMARK  1 active torsions:
REMARK  status: ('A' for Active; 'I' for Inactive)
REMARK       I    between atoms: N_2  and  C_1 
REMARK       I    between atoms: N_4  and  C_1 
REMARK    1  A    between atoms: C_5  and  N_3 
ROOT
ATOM      1  C   UNL d   1     -46.182  12.317  23.038  0.00  0.00     0.339 C 
ATOM      2  N   UNL d   1     -46.877  12.756  22.985  0.00  0.00    -0.254 N 
ATOM      3  N   UNL d   1     -48.256  13.625  22.881  0.00  0.00    -0.301 N 
ATOM      4  N   UNL d   1     -45.513  12.539  22.610  0.00  0.00    -0.258 N 
ATOM      5  O   UNL d   1     -46.157  11.650  23.524  0.00  0.00    -0.245 OA
ATOM      6  C   UNL d   1     -47.538  12.531  23.411  0.00  0.00     0.104 A 
ATOM      7  C   UNL d   1     -46.901  13.431  22.494  0.00  0.00     0.104 A 
ATOM      8  C   UNL d   1     -47.589  13.865  22.442  0.00  0.00     0.100 A 
ATOM      9  C   UNL d   1     -48.226  12.965  23.359  0.00  0.00     0.100 A 
ATOM     10  C   UNL d   1     -44.790  12.155  22.611  0.00  0.00     0.085 A 
ATOM     11  C   UNL d   1     -45.459  13.188  22.107  0.00  0.00     0.085 A 
ATOM     12  C   UNL d   1     -44.702  13.204  21.798  0.00  0.00     0.021 A 
ATOM     13  C   UNL d   1     -44.284  12.568  22.106  0.00  0.00     0.021 A 
ENDROOT
BRANCH   3  14
ATOM     14  C   UNL d   1     -48.960  14.070  22.828  0.00  0.00     0.064 A 
ATOM     15  C   UNL d   1     -49.608  13.766  22.410  0.00  0.00     0.018 A 
ATOM     16  C   UNL d   1     -50.315  14.207  22.354  0.00  0.00     0.001 A 
ATOM     17  C   UNL d   1     -50.960  13.910  21.941  0.00  0.00     0.000 C 
ATOM     18  C   UNL d   1     -50.369  14.962  22.723  0.00  0.00     0.000 A 
ATOM     19  C   UNL d   1     -49.709  15.263  23.144  0.00  0.00     0.002 A 
ATOM     20  C   UNL d   1     -51.064  15.400  22.671  0.00  0.00     0.000 C 
ATOM     21  C   UNL d   1     -49.008  14.820  23.197  0.00  0.00     0.018 A 
ENDBRANCH   3  14
TORSDOF 1
ENDMDL
MODEL 5
REMARK VINA RESULT:      -7.2      1.403      4.598
REMARK  1 active torsions:
REMARK  status: ('A' for Active; 'I' for Inactive)
REMARK       I    between atoms: N_2  and  C_1 
REMARK       I    between atoms: N_4  and  C_1 
REMARK    1  A    between atoms: C_5  and  N_3 
ROOT
ATOM      1  C   UNL d   1     -49.152  14.715  22.568  0.00  0.00     0.339 C 
ATOM      2  N   UNL d   1     -48.448  14.287  22.584  0.00  0.00    -0.254 N 
ATOM      3  N   UNL d   1     -47.053  13.439  22.616  0.00  0.00    -0.301 N 
ATOM      4  N   UNL d   1     -49.825  14.401  22.211  0.00  0.00    -0.258 N 
ATOM      5  O   UNL d   1     -49.180  15.465  22.914  0.00  0.00    -0.245 OA
ATOM      6  C   UNL d   1     -47.782  14.603  22.940  0.00  0.00     0.104 A 
ATOM      7  C   UNL d   1     -48.420  13.529  22.235  0.00  0.00     0.104 A 
ATOM      8  C   UNL d   1     -47.723  13.106  22.251  0.00  0.00     0.100 A 
ATOM      9  C   UNL d   1     -47.086  14.180  22.956  0.00  0.00     0.100 A 
ATOM     10  C   UNL d   1     -50.556  14.766  22.157  0.00  0.00     0.085 A 
ATOM     11  C   UNL d   1     -49.876  13.665  21.848  0.00  0.00     0.085 A 
ATOM     12  C   UNL d   1     -50.640  13.575  21.568  0.00  0.00     0.021 A 
ATOM     13  C   UNL d   1     -51.064  14.252  21.757  0.00  0.00     0.021 A 
ENDROOT
BRANCH   3  14
ATOM     14  C   UNL d   1     -46.339  13.005  22.633  0.00  0.00     0.064 A 
ATOM     15  C   UNL d   1     -45.711  13.227  22.140  0.00  0.00     0.018 A 
ATOM     16  C   UNL d   1     -44.996  12.796  22.153  0.00  0.00     0.001 A 
ATOM     17  C   UNL d   1     -44.371  13.012  21.667  0.00  0.00     0.000 C 
ATOM     18  C   UNL d   1     -44.914  12.134  22.668  0.00  0.00     0.000 A 
ATOM     19  C   UNL d   1     -45.554  11.916  23.163  0.00  0.00     0.002 A 
ATOM     20  C   UNL d   1     -44.211  11.707  22.684  0.00  0.00     0.000 C 
ATOM     21  C   UNL d   1     -46.264  12.348  23.147  0.00  0.00     0.018 A 
ENDBRANCH   3  14
TORSDOF 1
ENDMDL
MODEL 6
REMARK VINA RESULT:      -6.1      8.440     10.284
REMARK  1 active torsions:
REMARK  status: ('A' for Active; 'I' for Inactive)
REMARK       I    between atoms: N_2  and  C_1 
REMARK       I    between atoms: N_4  and  C_1 
REMARK    1  A    between atoms: C_5  and  N_3 
ROOT
ATOM      1  C   UNL d   1     -40.318  15.283  20.468  0.00  0.00     0.339 C 
ATOM      2  N   UNL d   1     -39.980  15.050  19.754  0.00  0.00    -0.254 N 
ATOM      3  N   UNL d   1     -39.310  14.590  18.338  0.00  0.00    -0.301 N 
ATOM      4  N   UNL d   1     -39.843  15.508  21.103  0.00  0.00    -0.258 N 
ATOM      5  O   UNL d   1     -41.141  15.288  20.547  0.00  0.00    -0.245 OA
ATOM      6  C   UNL d   1     -40.456  14.828  19.127  0.00  0.00     0.104 A 
ATOM      7  C   UNL d   1     -39.149  15.045  19.675  0.00  0.00     0.104 A 
ATOM      8  C   UNL d   1     -38.814  14.815  18.968  0.00  0.00     0.100 A 
ATOM      9  C   UNL d   1     -40.121  14.598  18.420  0.00  0.00     0.100 A 
ATOM     10  C   UNL d   1     -40.106  15.750  21.840  0.00  0.00     0.085 A 
ATOM     11  C   UNL d   1     -39.020  15.528  21.103  0.00  0.00     0.085 A 
ATOM     12  C   UNL d   1     -38.775  15.783  21.841  0.00  0.00     0.021 A 
ATOM     13  C   UNL d   1     -39.442  15.921  22.301  0.00  0.00     0.021 A 
ENDROOT
BRANCH   3  14
ATOM     14  C   UNL d   1     -38.967  14.355  17.613  0.00  0.00     0.064 A 
ATOM     15  C   UNL d   1     -38.625  13.604  17.544  0.00  0.00     0.018 A 
ATOM     16  C   UNL d   1     -38.281  13.364  16.822  0.00  0.00     0.001 A 
ATOM     17  C   UNL d   1     -37.940  12.621  16.750  0.00  0.00     0.000 C 
ATOM     18  C   UNL d   1     -38.282  13.888  16.163  0.00  0.00     0.000 A 
ATOM     19  C   UNL d   1     -38.631  14.646  16.240  0.00  0.00     0.002 A 
ATOM     20  C   UNL d   1     -37.944  13.656  15.449  0.00  0.00     0.000 C 
ATOM     21  C   UNL d   1     -38.972  14.880  16.961  0.00  0.00     0.018 A 
ENDBRANCH   3  14
TORSDOF 1
ENDMDL
MODEL 7
REMARK VINA RESULT:      -5.9      8.734      9.223
REMARK  1 active torsions:
REMARK  status: ('A' for Active; 'I' for Inactive)
REMARK       I    between atoms: N_2  and  C_1 
REMARK       I    between atoms: N_4  and  C_1 
REMARK    1  A    between atoms: C_5  and  N_3 
ROOT
ATOM      1  C   UNL d   1     -38.700  15.208  21.950  0.00  0.00     0.339 C 
ATOM      2  N   UNL d   1     -39.020  15.226  21.191  0.00  0.00    -0.254 N 
ATOM      3  N   UNL d   1     -39.654  15.264  19.687  0.00  0.00    -0.301 N 
ATOM      4  N   UNL d   1     -38.758  14.528  22.413  0.00  0.00    -0.258 N 
ATOM      5  O   UNL d   1     -38.318  15.877  22.248  0.00  0.00    -0.245 OA
ATOM      6  C   UNL d   1     -38.959  15.903  20.736  0.00  0.00     0.104 A 
ATOM      7  C   UNL d   1     -39.406  14.550  20.891  0.00  0.00     0.104 A 
ATOM      8  C   UNL d   1     -39.722  14.568  20.140  0.00  0.00     0.100 A 
ATOM      9  C   UNL d   1     -39.276  15.922  19.985  0.00  0.00     0.100 A 
ATOM     10  C   UNL d   1     -38.467  14.435  23.172  0.00  0.00     0.085 A 
ATOM     11  C   UNL d   1     -39.122  13.824  22.188  0.00  0.00     0.085 A 
ATOM     12  C   UNL d   1     -39.054  13.297  22.810  0.00  0.00     0.021 A 
ATOM     13  C   UNL d   1     -38.650  13.669  23.420  0.00  0.00     0.021 A 
ENDROOT
BRANCH   3  14
ATOM     14  C   UNL d   1     -39.978  15.283  18.917  0.00  0.00     0.064 A 
ATOM     15  C   UNL d   1     -39.651  14.811  18.320  0.00  0.00     0.018 A 
ATOM     16  C   UNL d   1     -39.971  14.826  17.550  0.00  0.00     0.001 A 
ATOM     17  C   UNL d   1     -39.650  14.360  16.955  0.00  0.00     0.000 C 
ATOM     18  C   UNL d   1     -40.629  15.324  17.379  0.00  0.00     0.000 A 
ATOM     19  C   UNL d   1     -40.955  15.799  17.988  0.00  0.00     0.002 A 
ATOM     20  C   UNL d   1     -40.949  15.343  16.621  0.00  0.00     0.000 C 
ATOM     21  C   UNL d   1     -40.632  15.780  18.754  0.00  0.00     0.018 A 
ENDBRANCH   3  14
TORSDOF 1
ENDMDL
MODEL 8
REMARK VINA RESULT:      -5.1      1.247      4.749
REMARK  1 active torsions:
REMARK  status: ('A' for Active; 'I' for Inactive)
REMARK       I    between atoms: N_2  and  C_1 
REMARK       I    between atoms: N_4  and  C_1 
REMARK    1  A    between atoms: C_5  and  N_3 
ROOT
ATOM      1  C   UNL d   1     -48.995  13.735  22.570  0.00  0.00     0.339 C 
ATOM      2  N   UNL d   1     -48.304  13.303  22.692  0.00  0.00    -0.254 N 
ATOM      3  N   UNL d   1     -46.935  12.446  22.932  0.00  0.00    -0.301 N 
ATOM      4  N   UNL d   1     -48.998  14.555  22.658  0.00  0.00    -0.258 N 
ATOM      5  O   UNL d   1     -49.690  13.342  22.359  0.00  0.00    -0.245 OA
ATOM      6  C   UNL d   1     -48.307  12.490  22.603  0.00  0.00     0.104 A 
ATOM      7  C   UNL d   1     -47.602  13.702  22.905  0.00  0.00     0.104 A 
ATOM      8  C   UNL d   1     -46.919  13.274  23.025  0.00  0.00     0.100 A 
ATOM      9  C   UNL d   1     -47.624  12.062  22.723  0.00  0.00     0.100 A 
ATOM     10  C   UNL d   1     -49.642  15.050  22.555  0.00  0.00     0.085 A 
ATOM     11  C   UNL d   1     -48.349  15.017  22.866  0.00  0.00     0.085 A 
ATOM     12  C   UNL d   1     -48.594  15.797  22.891  0.00  0.00     0.021 A 
ATOM     13  C   UNL d   1     -49.392  15.823  22.700  0.00  0.00     0.021 A 
ENDROOT
BRANCH   3  14
ATOM     14  C   UNL d   1     -46.235  12.008  23.055  0.00  0.00     0.064 A 
ATOM     15  C   UNL d   1     -45.528  12.253  22.699  0.00  0.00     0.018 A 
ATOM     16  C   UNL d   1     -44.826  11.818  22.819  0.00  0.00     0.001 A 
ATOM     17  C   UNL d   1     -44.123  12.057  22.468  0.00  0.00     0.000 C 
ATOM     18  C   UNL d   1     -44.836  11.129  23.303  0.00  0.00     0.000 A 
ATOM     19  C   UNL d   1     -45.555  10.888  23.660  0.00  0.00     0.002 A 
ATOM     20  C   UNL d   1     -44.146  10.697  23.424  0.00  0.00     0.000 C 
ATOM     21  C   UNL d   1     -46.252  11.324  23.538  0.00  0.00     0.018 A 
ENDBRANCH   3  14
TORSDOF 1
ENDMDL
