MODEL 1
REMARK VINA RESULT:      -8.0      0.000      0.000
REMARK  2 active torsions:
REMARK  status: ('A' for Active; 'I' for Inactive)
REMARK    1  A    between atoms: C_6  and  N_1 
REMARK    2  A    between atoms: C_7  and  C_6 
ROOT
ATOM      1  N   UNL d   1     -48.534  12.602  22.276  0.00  0.00    -0.287 N 
ATOM      2  N   UNL d   1     -48.768  11.430  22.894  0.00  0.00    -0.224 NA
ATOM      3  C   UNL d   1     -49.079  11.987  22.395  0.00  0.00     0.183 A 
ATOM      4  C   UNL d   1     -47.853  12.421  22.720  0.00  0.00     0.083 A 
ATOM      5  C   UNL d   1     -48.002  11.676  23.113  0.00  0.00     0.099 A 
ATOM      6  C   UNL d   1     -47.138  12.781  22.842  0.00  0.00     0.019 A 
ATOM      7  C   UNL d   1     -47.421  11.370  23.587  0.00  0.00     0.021 A 
ATOM      8  C   UNL d   1     -46.580  12.474  23.305  0.00  0.00     0.002 A 
ATOM      9  C   UNL d   1     -46.729  11.730  23.698  0.00  0.00     0.002 A 
ENDROOT
BRANCH   1  10
ATOM     10  C   UNL d   1     -48.755  13.216  21.784  0.00  0.00     0.082 C 
BRANCH  10  11
ATOM     11  C   UNL d   1     -49.376  13.702  21.934  0.00  0.00     0.018 A 
ATOM     12  C   UNL d   1     -49.321  14.361  22.402  0.00  0.00     0.002 A 
ATOM     13  C   UNL d   1     -49.945  14.855  22.556  0.00  0.00     0.000 A 
ATOM     14  C   UNL d   1     -49.867  15.525  23.038  0.00  0.00     0.000 C 
ATOM     15  C   UNL d   1     -50.676  14.677  22.218  0.00  0.00     0.000 A 
ATOM     16  C   UNL d   1     -50.757  14.010  21.738  0.00  0.00     0.000 A 
ATOM     17  C   UNL d   1     -50.107  13.523  21.596  0.00  0.00     0.002 A 
ENDBRANCH  10  11
ENDBRANCH   1  10
TORSDOF 2
ENDMDL
MODEL 2
REMARK VINA RESULT:      -8.0      1.336      2.200
REMARK  2 active torsions:
REMARK  status: ('A' for Active; 'I' for Inactive)
REMARK    1  A    between atoms: C_6  and  N_1 
REMARK    2  A    between atoms: C_7  and  C_6 
ROOT
ATOM      1  N   UNL d   1     -48.405  13.646  22.115  0.00  0.00    -0.287 N 
ATOM      2  N   UNL d   1     -48.043  14.843  22.610  0.00  0.00    -0.224 NA
ATOM      3  C   UNL d   1     -48.655  14.417  22.294  0.00  0.00     0.183 A 
ATOM      4  C   UNL d   1     -47.602  13.588  22.330  0.00  0.00     0.083 A 
ATOM      5  C   UNL d   1     -47.373  14.349  22.644  0.00  0.00     0.099 A 
ATOM      6  C   UNL d   1     -47.044  13.002  22.301  0.00  0.00     0.019 A 
ATOM      7  C   UNL d   1     -46.609  14.445  22.897  0.00  0.00     0.021 A 
ATOM      8  C   UNL d   1     -46.305  13.106  22.549  0.00  0.00     0.002 A 
ATOM      9  C   UNL d   1     -46.075  13.867  22.864  0.00  0.00     0.002 A 
ENDROOT
BRANCH   1  10
ATOM     10  C   UNL d   1     -48.953  13.135  21.790  0.00  0.00     0.082 C 
BRANCH  10  11
ATOM     11  C   UNL d   1     -49.637  12.927  22.155  0.00  0.00     0.018 A 
ATOM     12  C   UNL d   1     -49.677  12.362  22.735  0.00  0.00     0.002 A 
ATOM     13  C   UNL d   1     -50.365  12.148  23.106  0.00  0.00     0.000 A 
ATOM     14  C   UNL d   1     -50.383  11.568  23.697  0.00  0.00     0.000 C 
ATOM     15  C   UNL d   1     -51.063  12.527  22.882  0.00  0.00     0.000 A 
ATOM     16  C   UNL d   1     -51.048  13.106  22.294  0.00  0.00     0.000 A 
ATOM     17  C   UNL d   1     -50.334  13.306  21.931  0.00  0.00     0.002 A 
ENDBRANCH  10  11
ENDBRANCH   1  10
TORSDOF 2
ENDMDL
MODEL 3
REMARK VINA RESULT:      -7.9      1.374      2.920
REMARK  2 active torsions:
REMARK  status: ('A' for Active; 'I' for Inactive)
REMARK    1  A    between atoms: C_6  and  N_1 
REMARK    2  A    between atoms: C_7  and  C_6 
ROOT
ATOM      1  N   UNL d   1     -48.692  12.176  22.675  0.00  0.00    -0.287 N 
ATOM      2  N   UNL d   1     -49.052  11.346  23.670  0.00  0.00    -0.224 NA
ATOM      3  C   UNL d   1     -48.432  11.604  23.218  0.00  0.00     0.183 A 
ATOM      4  C   UNL d   1     -49.510  12.278  22.793  0.00  0.00     0.083 A 
ATOM      5  C   UNL d   1     -49.739  11.750  23.426  0.00  0.00     0.099 A 
ATOM      6  C   UNL d   1     -50.082  12.740  22.454  0.00  0.00     0.019 A 
ATOM      7  C   UNL d   1     -50.516  11.740  23.654  0.00  0.00     0.021 A 
ATOM      8  C   UNL d   1     -50.835  12.722  22.684  0.00  0.00     0.002 A 
ATOM      9  C   UNL d   1     -51.064  12.195  23.317  0.00  0.00     0.002 A 
ENDROOT
BRANCH   1  10
ATOM     10  C   UNL d   1     -48.137  12.500  22.170  0.00  0.00     0.082 C 
BRANCH  10  11
ATOM     11  C   UNL d   1     -47.548  12.987  22.413  0.00  0.00     0.018 A 
ATOM     12  C   UNL d   1     -47.618  13.794  22.433  0.00  0.00     0.002 A 
ATOM     13  C   UNL d   1     -47.025  14.290  22.678  0.00  0.00     0.000 A 
ATOM     14  C   UNL d   1     -47.118  15.113  22.690  0.00  0.00     0.000 C 
ATOM     15  C   UNL d   1     -46.311  13.954  22.920  0.00  0.00     0.000 A 
ATOM     16  C   UNL d   1     -46.216  13.134  22.909  0.00  0.00     0.000 A 
ATOM     17  C   UNL d   1     -46.834  12.651  22.655  0.00  0.00     0.002 A 
ENDBRANCH  10  11
ENDBRANCH   1  10
TORSDOF 2
ENDMDL
MODEL 4
REMARK VINA RESULT:      -7.9      0.967      3.726
REMARK  2 active torsions:
REMARK  status: ('A' for Active; 'I' for Inactive)
REMARK    1  A    between atoms: C_6  and  N_1 
REMARK    2  A    between atoms: C_7  and  C_6 
ROOT
ATOM      1  N   UNL d   1     -48.637  14.095  22.234  0.00  0.00    -0.287 N 
ATOM      2  N   UNL d   1     -49.125  15.151  22.909  0.00  0.00    -0.224 NA
ATOM      3  C   UNL d   1     -48.455  14.732  22.735  0.00  0.00     0.183 A 
ATOM      4  C   UNL d   1     -49.456  14.119  22.089  0.00  0.00     0.083 A 
ATOM      5  C   UNL d   1     -49.767  14.790  22.518  0.00  0.00     0.099 A 
ATOM      6  C   UNL d   1     -49.973  13.668  21.657  0.00  0.00     0.019 A 
ATOM      7  C   UNL d   1     -50.561  14.941  22.470  0.00  0.00     0.021 A 
ATOM      8  C   UNL d   1     -50.744  13.824  21.618  0.00  0.00     0.002 A 
ATOM      9  C   UNL d   1     -51.054  14.495  22.047  0.00  0.00     0.002 A 
ENDROOT
BRANCH   1  10
ATOM     10  C   UNL d   1     -48.023  13.609  22.000  0.00  0.00     0.082 C 
BRANCH  10  11
ATOM     11  C   UNL d   1     -47.558  13.204  22.514  0.00  0.00     0.018 A 
ATOM     12  C   UNL d   1     -47.774  12.498  22.846  0.00  0.00     0.002 A 
ATOM     13  C   UNL d   1     -47.307  12.085  23.366  0.00  0.00     0.000 A 
ATOM     14  C   UNL d   1     -47.548  11.363  23.695  0.00  0.00     0.000 C 
ATOM     15  C   UNL d   1     -46.572  12.402  23.566  0.00  0.00     0.000 A 
ATOM     16  C   UNL d   1     -46.330  13.121  23.240  0.00  0.00     0.000 A 
ATOM     17  C   UNL d   1     -46.823  13.521  22.714  0.00  0.00     0.002 A 
ENDBRANCH  10  11
ENDBRANCH   1  10
TORSDOF 2
ENDMDL
