MODEL 1
REMARK VINA RESULT:      61.4      0.000      0.000
REMARK  3 active torsions:
REMARK  status: ('A' for Active; 'I' for Inactive)
REMARK    1  A    between atoms: N_7  and  C_1 
REMARK    2  A    between atoms: C_11  and  N_3 
REMARK       I    between atoms: C_9  and  N_7 
REMARK    3  A    between atoms: C_12  and  C_9 
ROOT
ATOM      1  C   UNL d   1      57.673  49.566  51.395  0.00  0.00     0.165 A 
ATOM      2  C   UNL d   1      57.575  49.605  50.625  0.00  0.00     0.067 A 
ATOM      3  N   UNL d   1      56.968  49.528  51.724  0.00  0.00    -0.238 N 
ATOM      4  C   UNL d   1      56.803  49.592  50.476  0.00  0.00     0.116 A 
ATOM      5  N   UNL d   1      56.433  49.545  51.155  0.00  0.00    -0.168 NA
ATOM      6  S   UNL d   1      57.420  49.669  49.378  0.00  0.00     0.213 S 
ATOM      7  C   UNL d   1      56.712  49.631  49.706  0.00  0.00     0.120 A 
ATOM      8  C   UNL d   1      57.952  49.653  49.947  0.00  0.00     0.103 A 
ATOM      9  O   UNL d   1      56.833  49.680  48.872  0.00  0.00    -0.217 OA
ATOM     10  O   UNL d   1      58.051  49.699  49.143  0.00  0.00    -0.217 OA
ENDROOT
BRANCH   1  11
ATOM     11  N   UNL d   1      58.377  49.588  51.353  0.00  0.00    -0.189 NA
ATOM     12  C   UNL d   1      59.121  48.912  51.287  0.00  0.00     0.281 C 
ATOM     13  O   UNL d   1      58.979  48.162  51.272  0.00  0.00    -0.265 OA
BRANCH  12  14
ATOM     14  C   UNL d   1      59.899  49.174  51.247  0.00  0.00     0.058 A 
ATOM     15  C   UNL d   1      60.294  49.419  51.952  0.00  0.00     0.005 A 
ATOM     16  C   UNL d   1      59.904  49.397  52.679  0.00  0.00     0.000 C 
ATOM     17  C   UNL d   1      61.084  49.684  51.909  0.00  0.00     0.000 A 
ATOM     18  C   UNL d   1      61.476  49.704  51.168  0.00  0.00     0.000 A 
ATOM     19  C   UNL d   1      61.077  49.461  50.483  0.00  0.00     0.000 A 
ATOM     20  C   UNL d   1      60.287  49.195  50.521  0.00  0.00     0.005 A 
ENDBRANCH  12  14
ENDBRANCH   1  11
BRANCH   3  21
ATOM     21  C   UNL d   1      56.811  49.479  52.540  0.00  0.00     0.088 C 
ATOM     22  C   UNL d   1      57.337  49.238  53.141  0.00  0.00     0.025 C 
ATOM     23  C   UNL d   1      56.035  49.705  52.728  0.00  0.00     0.025 C 
ATOM     24  C   UNL d   1      56.763  49.395  53.359  0.00  0.00     0.025 C 
ENDBRANCH   3  21
TORSDOF 3
ENDMDL
