MODEL 1
REMARK VINA RESULT:      56.3      0.000      0.000
REMARK  3 active torsions:
REMARK  status: ('A' for Active; 'I' for Inactive)
REMARK    1  A    between atoms: N_2  and  S_1 
REMARK    2  A    between atoms: C_5  and  S_1 
REMARK    3  A    between atoms: C_4  and  C_3 
REMARK       I    between atoms: N_8  and  C_4 
ROOT
ATOM      1  N   UNL d   1      46.073 -18.261  42.450  0.00  0.00    -0.226 N 
ATOM      2  C   UNL d   1      46.253 -17.706  43.024  0.00  0.00     0.131 A 
ATOM      3  C   UNL d   1      46.082 -19.065  42.650  0.00  0.00     0.092 A 
ATOM      4  C   UNL d   1      46.440 -17.943  43.789  0.00  0.00     0.023 A 
ATOM      5  C   UNL d   1      46.266 -19.299  43.405  0.00  0.00     0.018 A 
ATOM      6  C   UNL d   1      46.447 -18.734  43.982  0.00  0.00     0.003 A 
ATOM      7  C   UNL d   1      46.277 -20.096  43.611  0.00  0.00     0.002 A 
ATOM      8  C   UNL d   1      46.636 -18.954  44.749  0.00  0.00     0.000 A 
ATOM      9  C   UNL d   1      46.646 -19.756  44.952  0.00  0.00     0.000 A 
ATOM     10  C   UNL d   1      46.465 -20.329  44.379  0.00  0.00     0.000 A 
ENDROOT
BRANCH   2  11
ATOM     11  C   UNL d   1      46.244 -16.902  42.825  0.00  0.00     0.282 C 
ATOM     12  N   UNL d   1      45.953 -16.348  43.364  0.00  0.00    -0.271 N 
ATOM     13  C   UNL d   1      45.688 -16.652  44.077  0.00  0.00     0.083 A 
ATOM     14  C   UNL d   1      45.969 -15.559  43.108  0.00  0.00     0.083 A 
ATOM     15  C   UNL d   1      45.368 -16.250  44.726  0.00  0.00     0.019 A 
ATOM     16  C   UNL d   1      45.238 -15.448  44.814  0.00  0.00     0.002 A 
ATOM     17  C   UNL d   1      45.392 -14.835  44.281  0.00  0.00     0.002 A 
ATOM     18  C   UNL d   1      45.719 -14.888  43.518  0.00  0.00     0.019 A 
ATOM     19  O   UNL d   1      46.522 -16.649  42.095  0.00  0.00    -0.265 OA
ENDBRANCH   2  11
BRANCH   1  20
ATOM     20  S   UNL d   1      45.885 -18.028  41.682  0.00  0.00     0.277 S 
ATOM     21  O   UNL d   1      46.643 -18.259  41.464  0.00  0.00    -0.199 OA
ATOM     22  O   UNL d   1      45.124 -17.798  41.909  0.00  0.00    -0.199 OA
BRANCH  20  23
ATOM     23  C   UNL d   1      45.711 -17.798  40.908  0.00  0.00     0.133 A 
ATOM     24  S   UNL d   1      46.260 -17.664  40.312  0.00  0.00    -0.074 SA
ATOM     25  C   UNL d   1      45.853 -17.446  39.630  0.00  0.00     0.036 A 
ATOM     26  C   UNL d   1      45.042 -17.446  39.805  0.00  0.00     0.008 A 
ATOM     27  C   UNL d   1      44.958 -17.665  40.598  0.00  0.00     0.020 A 
ENDBRANCH  20  23
ENDBRANCH   1  20
TORSDOF 3
ENDMDL
MODEL 2
REMARK VINA RESULT:      59.3      1.275      3.176
REMARK  3 active torsions:
REMARK  status: ('A' for Active; 'I' for Inactive)
REMARK    1  A    between atoms: N_2  and  S_1 
REMARK    2  A    between atoms: C_5  and  S_1 
REMARK    3  A    between atoms: C_4  and  C_3 
REMARK       I    between atoms: N_8  and  C_4 
ROOT
ATOM      1  N   UNL d   1      46.046 -17.440  43.749  0.00  0.00    -0.226 N 
ATOM      2  C   UNL d   1      46.246 -17.735  43.013  0.00  0.00     0.131 A 
ATOM      3  C   UNL d   1      46.042 -17.950  44.401  0.00  0.00     0.092 A 
ATOM      4  C   UNL d   1      46.440 -18.529  42.921  0.00  0.00     0.023 A 
ATOM      5  C   UNL d   1      46.234 -18.734  44.310  0.00  0.00     0.018 A 
ATOM      6  C   UNL d   1      46.435 -19.028  43.564  0.00  0.00     0.003 A 
ATOM      7  C   UNL d   1      46.232 -19.248  44.954  0.00  0.00     0.002 A 
ATOM      8  C   UNL d   1      46.632 -19.818  43.456  0.00  0.00     0.000 A 
ATOM      9  C   UNL d   1      46.629 -20.330  44.105  0.00  0.00     0.000 A 
ATOM     10  C   UNL d   1      46.428 -20.043  44.858  0.00  0.00     0.000 A 
ENDROOT
BRANCH   2  11
ATOM     11  C   UNL d   1      46.249 -17.225  42.361  0.00  0.00     0.282 C 
ATOM     12  N   UNL d   1      46.364 -17.529  41.601  0.00  0.00    -0.271 N 
ATOM     13  C   UNL d   1      46.469 -18.340  41.556  0.00  0.00     0.083 A 
ATOM     14  C   UNL d   1      46.358 -16.970  40.988  0.00  0.00     0.083 A 
ATOM     15  C   UNL d   1      46.595 -18.811  40.887  0.00  0.00     0.019 A 
ATOM     16  C   UNL d   1      46.646 -18.580  40.104  0.00  0.00     0.002 A 
ATOM     17  C   UNL d   1      46.586 -17.821  39.782  0.00  0.00     0.002 A 
ATOM     18  C   UNL d   1      46.457 -17.102  40.180  0.00  0.00     0.019 A 
ATOM     19  O   UNL d   1      46.140 -16.418  42.461  0.00  0.00    -0.265 OA
ENDBRANCH   2  11
BRANCH   1  20
ATOM     20  S   UNL d   1      45.850 -16.645  43.845  0.00  0.00     0.277 S 
ATOM     21  O   UNL d   1      45.062 -16.877  43.868  0.00  0.00    -0.199 OA
ATOM     22  O   UNL d   1      46.645 -16.418  43.822  0.00  0.00    -0.199 OA
BRANCH  20  23
ATOM     23  C   UNL d   1      45.639 -15.851  43.943  0.00  0.00     0.133 A 
ATOM     24  S   UNL d   1      45.283 -15.527  44.608  0.00  0.00    -0.074 SA
ATOM     25  C   UNL d   1      45.169 -14.723  44.474  0.00  0.00     0.036 A 
ATOM     26  C   UNL d   1      45.458 -14.546  43.717  0.00  0.00     0.008 A 
ATOM     27  C   UNL d   1      45.749 -15.248  43.391  0.00  0.00     0.020 A 
ENDBRANCH  20  23
ENDBRANCH   1  20
TORSDOF 3
ENDMDL
