MODEL 1
REMARK VINA RESULT:      -7.5      0.000      0.000
REMARK  6 active torsions:
REMARK  status: ('A' for Active; 'I' for Inactive)
REMARK       I    between atoms: N_2  and  C_1 
REMARK       I    between atoms: N_4  and  C_1 
REMARK    1  A    between atoms: C_8  and  N_2 
REMARK    2  A    between atoms: C_3  and  C_5 
REMARK    3  A    between atoms: O_11  and  C_3 
REMARK    4  A    between atoms: C_14  and  N_4 
REMARK    5  A    between atoms: C_15  and  N_4 
REMARK    6  A    between atoms: C_16  and  O_11 
ROOT
ATOM      1  C   UNL d   1      50.528  34.206  52.665  0.00  0.00     0.064 A 
ATOM      2  C   UNL d   1      51.941  33.465  53.069  0.00  0.00     0.086 A 
ATOM      3  C   UNL d   1      51.249  34.506  52.387  0.00  0.00     0.007 A 
ATOM      4  C   UNL d   1      50.512  33.548  53.136  0.00  0.00     0.007 A 
ATOM      5  C   UNL d   1      51.957  34.124  52.597  0.00  0.00     0.019 A 
ATOM      6  C   UNL d   1      51.217  33.169  53.345  0.00  0.00     0.019 A 
ENDROOT
BRANCH   2   7
ATOM      7  N   UNL d   1      52.642  33.086  53.278  0.00  0.00    -0.192 NA
ATOM      8  C   UNL d   1      53.014  33.282  53.995  0.00  0.00     0.354 C 
ATOM      9  N   UNL d   1      53.707  32.907  54.201  0.00  0.00    -0.256 N 
ATOM     10  O   UNL d   1      52.679  33.851  54.488  0.00  0.00    -0.244 OA
BRANCH   9  11
ATOM     11  C   UNL d   1      54.035  32.338  53.701  0.00  0.00     0.085 C 
ATOM     12  C   UNL d   1      54.162  31.567  53.976  0.00  0.00     0.021 C 
ENDBRANCH   9  11
BRANCH   9  13
ATOM     13  C   UNL d   1      54.078  33.105  54.923  0.00  0.00     0.085 C 
ATOM     14  C   UNL d   1      54.829  33.440  54.908  0.00  0.00     0.021 C 
ENDBRANCH   9  13
ENDBRANCH   2   7
BRANCH   1  15
ATOM     15  C   UNL d   1      49.828  34.578  52.461  0.00  0.00     0.300 C 
ATOM     16  O   UNL d   1      49.447  35.075  52.993  0.00  0.00    -0.259 OA
BRANCH  15  17
ATOM     17  O   UNL d   1      49.503  34.452  51.713  0.00  0.00    -0.271 OA
BRANCH  17  18
ATOM     18  C   UNL d   1      48.791  34.797  51.514  0.00  0.00     0.126 C 
ATOM     19  C   UNL d   1      48.462  34.670  50.771  0.00  0.00     0.029 C 
ENDBRANCH  17  18
ENDBRANCH  15  17
ENDBRANCH   1  15
TORSDOF 6
ENDMDL
MODEL 2
REMARK VINA RESULT:      -6.7      2.218      4.536
REMARK  6 active torsions:
REMARK  status: ('A' for Active; 'I' for Inactive)
REMARK       I    between atoms: N_2  and  C_1 
REMARK       I    between atoms: N_4  and  C_1 
REMARK    1  A    between atoms: C_8  and  N_2 
REMARK    2  A    between atoms: C_3  and  C_5 
REMARK    3  A    between atoms: O_11  and  C_3 
REMARK    4  A    between atoms: C_14  and  N_4 
REMARK    5  A    between atoms: C_15  and  N_4 
REMARK    6  A    between atoms: C_16  and  O_11 
ROOT
ATOM      1  C   UNL d   1      53.016  30.526  53.456  0.00  0.00     0.064 A 
ATOM      2  C   UNL d   1      52.818  32.132  53.154  0.00  0.00     0.086 A 
ATOM      3  C   UNL d   1      53.662  31.042  53.508  0.00  0.00     0.007 A 
ATOM      4  C   UNL d   1      52.283  30.806  53.256  0.00  0.00     0.007 A 
ATOM      5  C   UNL d   1      53.551  31.852  53.354  0.00  0.00     0.019 A 
ATOM      6  C   UNL d   1      52.173  31.612  53.103  0.00  0.00     0.019 A 
ENDROOT
BRANCH   2   7
ATOM      7  N   UNL d   1      52.706  32.934  53.001  0.00  0.00    -0.192 NA
ATOM      8  C   UNL d   1      52.700  33.473  53.633  0.00  0.00     0.354 C 
ATOM      9  N   UNL d   1      52.590  34.266  53.481  0.00  0.00    -0.256 N 
ATOM     10  O   UNL d   1      52.804  33.201  54.404  0.00  0.00    -0.244 OA
BRANCH   9  11
ATOM     11  C   UNL d   1      52.486  34.529  52.706  0.00  0.00     0.085 C 
ATOM     12  C   UNL d   1      51.760  34.853  52.471  0.00  0.00     0.021 C 
ENDBRANCH   9  11
BRANCH   9  13
ATOM     13  C   UNL d   1      52.584  34.805  54.119  0.00  0.00     0.085 C 
ATOM     14  C   UNL d   1      53.117  35.431  54.119  0.00  0.00     0.021 C 
ENDBRANCH   9  13
ENDBRANCH   2   7
BRANCH   1  15
ATOM     15  C   UNL d   1      53.120  29.728  53.607  0.00  0.00     0.300 C 
ATOM     16  O   UNL d   1      52.953  29.167  53.029  0.00  0.00    -0.259 OA
BRANCH  15  17
ATOM     17  O   UNL d   1      53.394  29.486  54.346  0.00  0.00    -0.271 OA
BRANCH  17  18
ATOM     18  C   UNL d   1      53.376  28.697  54.550  0.00  0.00     0.126 C 
ATOM     19  C   UNL d   1      53.519  28.465  55.326  0.00  0.00     0.029 C 
ENDBRANCH  17  18
ENDBRANCH  15  17
ENDBRANCH   1  15
TORSDOF 6
ENDMDL
MODEL 3
REMARK VINA RESULT:      -6.3      1.399      4.776
REMARK  6 active torsions:
REMARK  status: ('A' for Active; 'I' for Inactive)
REMARK       I    between atoms: N_2  and  C_1 
REMARK       I    between atoms: N_4  and  C_1 
REMARK    1  A    between atoms: C_8  and  N_2 
REMARK    2  A    between atoms: C_3  and  C_5 
REMARK    3  A    between atoms: O_11  and  C_3 
REMARK    4  A    between atoms: C_14  and  N_4 
REMARK    5  A    between atoms: C_15  and  N_4 
REMARK    6  A    between atoms: C_16  and  O_11 
ROOT
ATOM      1  C   UNL d   1      52.437  33.502  53.348  0.00  0.00     0.064 A 
ATOM      2  C   UNL d   1      50.957  34.143  53.017  0.00  0.00     0.086 A 
ATOM      3  C   UNL d   1      52.364  34.306  53.161  0.00  0.00     0.007 A 
ATOM      4  C   UNL d   1      51.782  33.025  53.370  0.00  0.00     0.007 A 
ATOM      5  C   UNL d   1      51.612  34.619  52.995  0.00  0.00     0.019 A 
ATOM      6  C   UNL d   1      51.034  33.338  53.205  0.00  0.00     0.019 A 
ENDROOT
BRANCH   2   7
ATOM      7  N   UNL d   1      50.212  34.453  52.853  0.00  0.00    -0.192 NA
ATOM      8  C   UNL d   1      49.952  34.497  52.065  0.00  0.00     0.354 C 
ATOM      9  N   UNL d   1      49.215  34.803  51.904  0.00  0.00    -0.256 N 
ATOM     10  O   UNL d   1      50.441  34.231  51.457  0.00  0.00    -0.244 OA
BRANCH   9  11
ATOM     11  C   UNL d   1      48.732  35.067  52.519  0.00  0.00     0.085 C 
ATOM     12  C   UNL d   1      48.255  35.737  52.415  0.00  0.00     0.021 C 
ENDBRANCH   9  11
BRANCH   9  13
ATOM     13  C   UNL d   1      48.957  34.846  51.110  0.00  0.00     0.085 C 
ATOM     14  C   UNL d   1      48.250  34.484  50.899  0.00  0.00     0.021 C 
ENDBRANCH   9  13
ENDBRANCH   2   7
BRANCH   1  15
ATOM     15  C   UNL d   1      53.174  33.187  53.511  0.00  0.00     0.300 C 
ATOM     16  O   UNL d   1      53.529  32.658  52.992  0.00  0.00    -0.259 OA
BRANCH  15  17
ATOM     17  O   UNL d   1      53.565  33.404  54.205  0.00  0.00    -0.271 OA
BRANCH  17  18
ATOM     18  C   UNL d   1      54.273  33.052  54.403  0.00  0.00     0.126 C 
ATOM     19  C   UNL d   1      54.698  33.312  55.058  0.00  0.00     0.029 C 
ENDBRANCH  17  18
ENDBRANCH  15  17
ENDBRANCH   1  15
TORSDOF 6
ENDMDL
