MODEL 1
REMARK VINA RESULT:      87.2      0.000      0.000
REMARK  3 active torsions:
REMARK  status: ('A' for Active; 'I' for Inactive)
REMARK       I    between atoms: C_4  and  N_1 
REMARK    1  A    between atoms: N_3  and  C_2 
REMARK    2  A    between atoms: C_9  and  C_4 
REMARK    3  A    between atoms: N_10  and  C_5 
ROOT
ATOM      1  C   UNL d   1     -55.200-101.406 -43.005  0.00  0.00     0.143 A 
ATOM      2  C   UNL d   1     -54.998-100.582 -42.982  0.00  0.00     0.086 A 
ATOM      3  C   UNL d   1     -55.143-101.839 -42.291  0.00  0.00     0.030 A 
ATOM      4  C   UNL d   1     -54.899-101.461 -41.602  0.00  0.00     0.058 A 
ATOM      5  C   UNL d   1     -54.760-100.238 -42.283  0.00  0.00     0.019 A 
ATOM      6  C   UNL d   1     -54.713-100.685 -41.596  0.00  0.00     0.006 A 
ENDROOT
BRANCH   4   7
ATOM      7  C   UNL d   1     -54.854-101.918 -40.913  0.00  0.00     0.265 C 
ATOM      8  N   UNL d   1     -54.802-101.518 -40.174  0.00  0.00    -0.275 N 
ATOM      9  C   UNL d   1     -54.753-101.877 -39.434  0.00  0.00     0.067 A 
ATOM     10  C   UNL d   1     -54.791-100.698 -40.070  0.00  0.00     0.067 A 
ATOM     11  C   UNL d   1     -54.713-101.298 -38.886  0.00  0.00     0.019 A 
ATOM     12  C   UNL d   1     -54.732-102.873 -39.048  0.00  0.00     0.019 C 
ATOM     13  C   UNL d   1     -54.735-100.558 -39.258  0.00  0.00     0.018 A 
ATOM     14  C   UNL d   1     -54.713 -99.781 -38.981  0.00  0.00     0.002 A 
ATOM     15  C   UNL d   1     -54.746 -99.170 -39.512  0.00  0.00     0.000 A 
ATOM     16  C   UNL d   1     -54.801 -99.302 -40.313  0.00  0.00     0.002 A 
ATOM     17  C   UNL d   1     -54.824-100.074 -40.598  0.00  0.00     0.018 A 
ATOM     18  O   UNL d   1     -54.860-102.750 -40.931  0.00  0.00    -0.267 OA
ENDBRANCH   4   7
BRANCH   1  19
ATOM     19  N   UNL d   1     -55.444-101.763 -43.718  0.00  0.00    -0.112 N 
ATOM     20  O   UNL d   1     -56.269-101.832 -43.899  0.00  0.00    -0.532 OA
ATOM     21  O   UNL d   1     -54.887-102.055 -44.258  0.00  0.00    -0.532 OA
ENDBRANCH   1  19
BRANCH   2  22
ATOM     22  N   UNL d   1     -55.047-100.132 -43.681  0.00  0.00    -0.302 N 
ATOM     23  C   UNL d   1     -54.729-100.409 -44.413  0.00  0.00     0.080 A 
ATOM     24  C   UNL d   1     -54.788 -99.946 -45.093  0.00  0.00     0.019 A 
ATOM     25  C   UNL d   1     -55.156 -99.215 -45.067  0.00  0.00     0.003 A 
ATOM     26  C   UNL d   1     -55.477 -98.919 -44.359  0.00  0.00     0.019 A 
ATOM     27  C   UNL d   1     -55.420 -99.379 -43.677  0.00  0.00     0.080 A 
ENDBRANCH   2  22
TORSDOF 3
ENDMDL
