MODEL 1
REMARK VINA RESULT:      30.6      0.000      0.000
REMARK  3 active torsions:
REMARK  status: ('A' for Active; 'I' for Inactive)
REMARK    1  A    between atoms: N_5  and  C_1 
REMARK    2  A    between atoms: N_8  and  N_5 
REMARK    3  A    between atoms: C_7  and  N_8 
ROOT
ATOM      1  C   UNL d   1      60.188  49.693  50.482  0.00  0.00     0.162 A 
ATOM      2  C   UNL d   1      60.442  49.676  49.700  0.00  0.00     0.299 A 
ATOM      3  N   UNL d   1      59.773  49.667  49.215  0.00  0.00    -0.207 NA
ATOM      4  C   UNL d   1      59.358  49.694  50.485  0.00  0.00     0.042 A 
ATOM      5  C   UNL d   1      59.102  49.677  49.702  0.00  0.00     0.086 A 
ATOM      6  O   UNL d   1      61.229  49.670  49.442  0.00  0.00    -0.263 OA
ATOM      7  C   UNL d   1      58.808  49.707  51.105  0.00  0.00     0.003 A 
ATOM      8  C   UNL d   1      58.296  49.675  49.539  0.00  0.00     0.019 A 
ATOM      9  C   UNL d   1      58.006  49.704  50.927  0.00  0.00     0.000 A 
ATOM     10  C   UNL d   1      57.749  49.688  50.141  0.00  0.00     0.002 A 
ENDROOT
BRANCH   1  11
ATOM     11  N   UNL d   1      60.672  49.706  51.155  0.00  0.00    -0.141 NA
BRANCH  11  12
ATOM     12  N   UNL d   1      60.984  48.993  51.451  0.00  0.00    -0.115 NA
BRANCH  12  13
ATOM     13  C   UNL d   1      61.320  48.976  52.209  0.00  0.00     0.260 C 
ATOM     14  S   UNL d   1      61.284  48.288  52.667  0.00  0.00    -0.034 SA
ATOM     15  N   UNL d   1      61.693  49.659  52.505  0.00  0.00    -0.113 N 
ENDBRANCH  12  13
ENDBRANCH  11  12
ENDBRANCH   1  11
TORSDOF 3
ENDMDL
