MODEL 1
REMARK VINA RESULT:      10.3      0.000      0.000
REMARK  3 active torsions:
REMARK  status: ('A' for Active; 'I' for Inactive)
REMARK    1  A    between atoms: S_9  and  C_2 
REMARK    2  A    between atoms: C_15  and  S_9 
REMARK    3  A    between atoms: C_14  and  C_15 
ROOT
ATOM      1  C   UNL d   1      45.972 -14.347  44.485  0.00  0.00     0.119 A 
ATOM      2  C   UNL d   1      45.209 -14.133  44.725  0.00  0.00     0.119 A 
ATOM      3  O   UNL d   1      46.372 -13.658  44.288  0.00  0.00    -0.300 OA
ATOM      4  O   UNL d   1      45.147 -13.315  44.672  0.00  0.00    -0.300 OA
ATOM      5  C   UNL d   1      45.862 -13.028  44.403  0.00  0.00     0.304 A 
ATOM      6  C   UNL d   1      46.195 -15.134  44.481  0.00  0.00     0.027 A 
ATOM      7  C   UNL d   1      44.683 -14.711  44.955  0.00  0.00     0.026 A 
ATOM      8  C   UNL d   1      45.660 -15.717  44.715  0.00  0.00     0.009 A 
ATOM      9  C   UNL d   1      44.897 -15.504  44.954  0.00  0.00     0.003 A 
ENDROOT
BRANCH   8  10
ATOM     10  C   UNL d   1      45.882 -16.508  44.711  0.00  0.00     0.037 C 
BRANCH  10  11
ATOM     11  S   UNL d   1      45.972 -16.915  43.995  0.00  0.00    -0.059 SA
BRANCH  11  12
ATOM     12  C   UNL d   1      46.171 -17.740  43.995  0.00  0.00     0.164 A 
ATOM     13  S   UNL d   1      46.293 -18.204  43.314  0.00  0.00    -0.039 SA
ATOM     14  C   UNL d   1      46.478 -18.988  43.573  0.00  0.00     0.134 A 
ATOM     15  N   UNL d   1      46.466 -18.987  44.399  0.00  0.00    -0.140 NA
ATOM     16  C   UNL d   1      46.643 -19.638  43.070  0.00  0.00     0.030 C 
ATOM     17  N   UNL d   1      46.275 -18.215  44.670  0.00  0.00    -0.134 NA
ENDBRANCH  11  12
ENDBRANCH  10  11
ENDBRANCH   8  10
TORSDOF 3
ENDMDL
MODEL 2
REMARK VINA RESULT:      10.8      2.572      4.519
REMARK  3 active torsions:
REMARK  status: ('A' for Active; 'I' for Inactive)
REMARK    1  A    between atoms: S_9  and  C_2 
REMARK    2  A    between atoms: C_15  and  S_9 
REMARK    3  A    between atoms: C_14  and  C_15 
ROOT
ATOM      1  C   UNL d   1      46.468 -18.870  43.078  0.00  0.00     0.119 A 
ATOM      2  C   UNL d   1      46.450 -19.446  43.672  0.00  0.00     0.119 A 
ATOM      3  O   UNL d   1      46.562 -19.255  42.360  0.00  0.00    -0.300 OA
ATOM      4  O   UNL d   1      46.532 -20.181  43.313  0.00  0.00    -0.300 OA
ATOM      5  C   UNL d   1      46.601 -20.059  42.509  0.00  0.00     0.304 A 
ATOM      6  C   UNL d   1      46.397 -18.078  43.273  0.00  0.00     0.027 A 
ATOM      7  C   UNL d   1      46.361 -19.220  44.449  0.00  0.00     0.026 A 
ATOM      8  C   UNL d   1      46.308 -17.852  44.061  0.00  0.00     0.009 A 
ATOM      9  C   UNL d   1      46.290 -18.429  44.655  0.00  0.00     0.003 A 
ENDROOT
BRANCH   8  10
ATOM     10  C   UNL d   1      46.237 -17.058  44.259  0.00  0.00     0.037 C 
BRANCH  10  11
ATOM     11  S   UNL d   1      45.577 -16.788  44.682  0.00  0.00    -0.059 SA
BRANCH  11  12
ATOM     12  C   UNL d   1      45.441 -15.957  44.775  0.00  0.00     0.164 A 
ATOM     13  S   UNL d   1      46.036 -15.374  44.802  0.00  0.00    -0.039 SA
ATOM     14  C   UNL d   1      45.651 -14.625  44.900  0.00  0.00     0.134 A 
ATOM     15  N   UNL d   1      44.838 -14.766  44.931  0.00  0.00    -0.140 NA
ATOM     16  C   UNL d   1      46.040 -13.885  44.955  0.00  0.00     0.030 C 
ATOM     17  N   UNL d   1      44.698 -15.591  44.853  0.00  0.00    -0.134 NA
ENDBRANCH  11  12
ENDBRANCH  10  11
ENDBRANCH   8  10
TORSDOF 3
ENDMDL
MODEL 3
REMARK VINA RESULT:      12.2      0.777      1.235
REMARK  3 active torsions:
REMARK  status: ('A' for Active; 'I' for Inactive)
REMARK    1  A    between atoms: S_9  and  C_2 
REMARK    2  A    between atoms: C_15  and  S_9 
REMARK    3  A    between atoms: C_14  and  C_15 
ROOT
ATOM      1  C   UNL d   1      45.101 -13.701  43.976  0.00  0.00     0.119 A 
ATOM      2  C   UNL d   1      45.683 -13.211  44.303  0.00  0.00     0.119 A 
ATOM      3  O   UNL d   1      44.607 -13.230  43.521  0.00  0.00    -0.300 OA
ATOM      4  O   UNL d   1      45.542 -12.444  44.045  0.00  0.00    -0.300 OA
ATOM      5  C   UNL d   1      44.881 -12.460  43.566  0.00  0.00     0.304 A 
ATOM      6  C   UNL d   1      45.102 -14.503  44.138  0.00  0.00     0.027 A 
ATOM      7  C   UNL d   1      46.255 -13.533  44.785  0.00  0.00     0.026 A 
ATOM      8  C   UNL d   1      45.683 -14.826  44.627  0.00  0.00     0.009 A 
ATOM      9  C   UNL d   1      46.265 -14.337  44.953  0.00  0.00     0.003 A 
ENDROOT
BRANCH   8  10
ATOM     10  C   UNL d   1      45.685 -15.631  44.791  0.00  0.00     0.037 C 
BRANCH  10  11
ATOM     11  S   UNL d   1      45.523 -16.182  44.193  0.00  0.00    -0.059 SA
BRANCH  11  12
ATOM     12  C   UNL d   1      45.818 -16.974  44.251  0.00  0.00     0.164 A 
ATOM     13  S   UNL d   1      46.086 -17.434  43.610  0.00  0.00    -0.039 SA
ATOM     14  C   UNL d   1      46.329 -18.183  43.922  0.00  0.00     0.134 A 
ATOM     15  N   UNL d   1      46.206 -18.166  44.738  0.00  0.00    -0.140 NA
ATOM     16  C   UNL d   1      46.637 -18.818  43.469  0.00  0.00     0.030 C 
ATOM     17  N   UNL d   1      45.888 -17.417  44.952  0.00  0.00    -0.134 NA
ENDBRANCH  11  12
ENDBRANCH  10  11
ENDBRANCH   8  10
TORSDOF 3
ENDMDL
