MODEL 1
REMARK VINA RESULT:      54.7      0.000      0.000
REMARK  4 active torsions:
REMARK  status: ('A' for Active; 'I' for Inactive)
REMARK    1  A    between atoms: N_10  and  C_3 
REMARK    2  A    between atoms: C_11  and  C_4 
REMARK    3  A    between atoms: C_15  and  N_10 
REMARK       I    between atoms: C_12  and  N_13 
REMARK    4  A    between atoms: N_13  and  C_16 
ROOT
ATOM      1  C   UNL d   1     -51.013  25.660  33.314  0.00  0.00     0.167 A 
ATOM      2  N   UNL d   1     -50.862  26.465  33.312  0.00  0.00    -0.195 N 
ATOM      3  C   UNL d   1     -50.084  26.743  33.311  0.00  0.00     0.167 A 
ATOM      4  C   UNL d   1     -51.826  25.552  33.315  0.00  0.00     0.057 A 
ATOM      5  N   UNL d   1     -51.580  26.860  33.312  0.00  0.00    -0.161 NA
ATOM      6  N   UNL d   1     -50.390  25.118  33.314  0.00  0.00    -0.227 NA
ATOM      7  C   UNL d   1     -49.458  26.201  33.311  0.00  0.00     0.058 A 
ATOM      8  C   UNL d   1     -52.173  26.301  33.314  0.00  0.00     0.124 A 
ATOM      9  C   UNL d   1     -49.609  25.396  33.313  0.00  0.00     0.086 A 
ATOM     10  C   UNL d   1     -48.969  24.870  33.313  0.00  0.00     0.021 C 
ENDROOT
BRANCH   3  11
ATOM     11  N   UNL d   1     -49.933  27.549  33.309  0.00  0.00    -0.227 NA
BRANCH  11  12
ATOM     12  C   UNL d   1     -49.426  27.878  33.872  0.00  0.00     0.083 A 
ATOM     13  C   UNL d   1     -49.537  28.660  34.108  0.00  0.00     0.021 A 
ATOM     14  C   UNL d   1     -49.028  28.996  34.675  0.00  0.00     0.021 A 
ATOM     15  C   UNL d   1     -48.421  28.549  34.996  0.00  0.00     0.085 A 
ATOM     16  C   UNL d   1     -48.313  27.759  34.755  0.00  0.00     0.021 A 
ATOM     17  C   UNL d   1     -48.816  27.429  34.195  0.00  0.00     0.021 A 
BRANCH  15  18
ATOM     18  N   UNL d   1     -47.911  28.888  35.566  0.00  0.00    -0.208 NA
ATOM     19  C   UNL d   1     -47.748  29.697  35.558  0.00  0.00     0.279 C 
ATOM     20  O   UNL d   1     -47.239  30.032  36.128  0.00  0.00    -0.265 OA
ATOM     21  C   UNL d   1     -48.090  30.173  34.984  0.00  0.00     0.068 C 
ENDBRANCH  15  18
ENDBRANCH  11  12
ENDBRANCH   3  11
BRANCH   4  22
ATOM     22  C   UNL d   1     -52.156  24.794  33.317  0.00  0.00     0.004 A 
ATOM     23  C   UNL d   1     -51.655  24.139  33.306  0.00  0.00     0.000 A 
ATOM     24  C   UNL d   1     -51.976  23.380  33.307  0.00  0.00     0.000 A 
ATOM     25  C   UNL d   1     -52.802  23.275  33.320  0.00  0.00     0.000 A 
ATOM     26  C   UNL d   1     -53.293  23.933  33.330  0.00  0.00     0.000 A 
ATOM     27  C   UNL d   1     -52.968  24.692  33.329  0.00  0.00     0.000 A 
ENDBRANCH   4  22
TORSDOF 4
ENDMDL
