MODEL 1
REMARK VINA RESULT:      -7.5      0.000      0.000
REMARK  5 active torsions:
REMARK  status: ('A' for Active; 'I' for Inactive)
REMARK    1  A    between atoms: C_2  and  C_1 
REMARK    2  A    between atoms: C_3  and  C_1 
REMARK    3  A    between atoms: C_4  and  C_2 
REMARK    4  A    between atoms: O_9  and  C_6 
REMARK    5  A    between atoms: O_10  and  C_7 
ROOT
ATOM      1  C   UNL d   1     -49.056  13.272  22.881  0.00  0.00     0.236 C 
ATOM      2  O   UNL d   1     -49.077  13.314  23.698  0.00  0.00    -0.283 OA
ENDROOT
BRANCH   1   3
ATOM      3  C   UNL d   1     -48.390  13.002  22.475  0.00  0.00     0.236 C 
ATOM      4  O   UNL d   1     -48.290  13.161  21.682  0.00  0.00    -0.283 OA
BRANCH   3   5
ATOM      5  C   UNL d   1     -47.809  12.558  22.885  0.00  0.00     0.065 A 
ATOM      6  C   UNL d   1     -47.043  12.799  22.924  0.00  0.00     0.097 A 
ATOM      7  C   UNL d   1     -46.477  12.349  23.333  0.00  0.00     0.024 A 
ATOM      8  C   UNL d   1     -46.714  11.652  23.698  0.00  0.00     0.002 A 
ATOM      9  C   UNL d   1     -47.483  11.408  23.660  0.00  0.00     0.000 A 
ATOM     10  C   UNL d   1     -48.046  11.861  23.249  0.00  0.00     0.005 A 
BRANCH   6  11
ATOM     11  O   UNL d   1     -46.806  13.508  22.552  0.00  0.00    -0.328 OA
ATOM     12  C   UNL d   1     -46.116  13.758  22.597  0.00  0.00     0.181 C 
ENDBRANCH   6  11
ENDBRANCH   3   5
ENDBRANCH   1   3
BRANCH   1  13
ATOM     13  C   UNL d   1     -49.720  13.507  22.446  0.00  0.00     0.065 A 
ATOM     14  C   UNL d   1     -50.046  14.252  22.570  0.00  0.00     0.097 A 
ATOM     15  C   UNL d   1     -50.708  14.478  22.132  0.00  0.00     0.024 A 
ATOM     16  C   UNL d   1     -51.037  13.970  21.583  0.00  0.00     0.002 A 
ATOM     17  C   UNL d   1     -50.721  13.241  21.460  0.00  0.00     0.000 A 
ATOM     18  C   UNL d   1     -50.057  12.989  21.885  0.00  0.00     0.005 A 
BRANCH  14  19
ATOM     19  O   UNL d   1     -49.710  14.795  23.143  0.00  0.00    -0.328 OA
ATOM     20  C   UNL d   1     -49.999  15.562  23.251  0.00  0.00     0.181 C 
ENDBRANCH  14  19
ENDBRANCH   1  13
TORSDOF 5
ENDMDL
MODEL 2
REMARK VINA RESULT:      -7.4      0.836      3.780
REMARK  5 active torsions:
REMARK  status: ('A' for Active; 'I' for Inactive)
REMARK    1  A    between atoms: C_2  and  C_1 
REMARK    2  A    between atoms: C_3  and  C_1 
REMARK    3  A    between atoms: C_4  and  C_2 
REMARK    4  A    between atoms: O_9  and  C_6 
REMARK    5  A    between atoms: O_10  and  C_7 
ROOT
ATOM      1  C   UNL d   1     -48.311  13.692  23.013  0.00  0.00     0.236 C 
ATOM      2  O   UNL d   1     -48.693  13.458  23.698  0.00  0.00    -0.283 OA
ENDROOT
BRANCH   1   3
ATOM      3  C   UNL d   1     -48.713  14.066  22.396  0.00  0.00     0.236 C 
ATOM      4  O   UNL d   1     -48.445  14.011  21.628  0.00  0.00    -0.283 OA
BRANCH   3   5
ATOM      5  C   UNL d   1     -49.406  14.507  22.562  0.00  0.00     0.065 A 
ATOM      6  C   UNL d   1     -50.114  14.323  22.231  0.00  0.00     0.097 A 
ATOM      7  C   UNL d   1     -50.794  14.769  22.404  0.00  0.00     0.024 A 
ATOM      8  C   UNL d   1     -50.728  15.403  22.922  0.00  0.00     0.002 A 
ATOM      9  C   UNL d   1     -50.017  15.591  23.257  0.00  0.00     0.000 A 
ATOM     10  C   UNL d   1     -49.341  15.141  23.080  0.00  0.00     0.005 A 
BRANCH   6  11
ATOM     11  O   UNL d   1     -50.177  13.677  21.705  0.00  0.00    -0.328 OA
ATOM     12  C   UNL d   1     -50.820  13.478  21.407  0.00  0.00     0.181 C 
ENDBRANCH   6  11
ENDBRANCH   3   5
ENDBRANCH   1   3
BRANCH   1  13
ATOM     13  C   UNL d   1     -47.499  13.551  22.932  0.00  0.00     0.065 A 
ATOM     14  C   UNL d   1     -47.200  12.799  23.076  0.00  0.00     0.097 A 
ATOM     15  C   UNL d   1     -46.390  12.668  22.993  0.00  0.00     0.024 A 
ATOM     16  C   UNL d   1     -45.890  13.274  22.773  0.00  0.00     0.002 A 
ATOM     17  C   UNL d   1     -46.179  14.012  22.632  0.00  0.00     0.000 A 
ATOM     18  C   UNL d   1     -46.988  14.171  22.707  0.00  0.00     0.005 A 
BRANCH  14  19
ATOM     19  O   UNL d   1     -47.714  12.152  23.308  0.00  0.00    -0.328 OA
ATOM     20  C   UNL d   1     -47.424  11.406  23.515  0.00  0.00     0.181 C 
ENDBRANCH  14  19
ENDBRANCH   1  13
TORSDOF 5
ENDMDL
MODEL 3
REMARK VINA RESULT:      -7.4      0.828      1.954
REMARK  5 active torsions:
REMARK  status: ('A' for Active; 'I' for Inactive)
REMARK    1  A    between atoms: C_2  and  C_1 
REMARK    2  A    between atoms: C_3  and  C_1 
REMARK    3  A    between atoms: C_4  and  C_2 
REMARK    4  A    between atoms: O_9  and  C_6 
REMARK    5  A    between atoms: O_10  and  C_7 
ROOT
ATOM      1  C   UNL d   1     -48.717  14.000  22.410  0.00  0.00     0.236 C 
ATOM      2  O   UNL d   1     -48.476  13.933  21.631  0.00  0.00    -0.283 OA
ENDROOT
BRANCH   1   3
ATOM      3  C   UNL d   1     -48.324  13.612  23.024  0.00  0.00     0.236 C 
ATOM      4  O   UNL d   1     -48.721  13.384  23.697  0.00  0.00    -0.283 OA
BRANCH   3   5
ATOM      5  C   UNL d   1     -47.504  13.451  22.952  0.00  0.00     0.065 A 
ATOM      6  C   UNL d   1     -47.202  12.722  23.099  0.00  0.00     0.097 A 
ATOM      7  C   UNL d   1     -46.387  12.576  23.024  0.00  0.00     0.024 A 
ATOM      8  C   UNL d   1     -45.895  13.193  22.796  0.00  0.00     0.002 A 
ATOM      9  C   UNL d   1     -46.196  13.928  22.648  0.00  0.00     0.000 A 
ATOM     10  C   UNL d   1     -47.012  14.068  22.724  0.00  0.00     0.005 A 
BRANCH   6  11
ATOM     11  O   UNL d   1     -47.706  12.097  23.330  0.00  0.00    -0.328 OA
ATOM     12  C   UNL d   1     -47.444  11.435  23.518  0.00  0.00     0.181 C 
ENDBRANCH   6  11
ENDBRANCH   3   5
ENDBRANCH   1   3
BRANCH   1  13
ATOM     13  C   UNL d   1     -49.375  14.469  22.592  0.00  0.00     0.065 A 
ATOM     14  C   UNL d   1     -50.106  14.294  22.258  0.00  0.00     0.097 A 
ATOM     15  C   UNL d   1     -50.755  14.766  22.444  0.00  0.00     0.024 A 
ATOM     16  C   UNL d   1     -50.677  15.400  22.953  0.00  0.00     0.002 A 
ATOM     17  C   UNL d   1     -49.964  15.575  23.282  0.00  0.00     0.000 A 
ATOM     18  C   UNL d   1     -49.295  15.117  23.112  0.00  0.00     0.005 A 
BRANCH  14  19
ATOM     19  O   UNL d   1     -50.202  13.630  21.721  0.00  0.00    -0.328 OA
ATOM     20  C   UNL d   1     -50.931  13.434  21.384  0.00  0.00     0.181 C 
ENDBRANCH  14  19
ENDBRANCH   1  13
TORSDOF 5
ENDMDL
MODEL 4
REMARK VINA RESULT:      -5.3      8.597     10.295
REMARK  5 active torsions:
REMARK  status: ('A' for Active; 'I' for Inactive)
REMARK    1  A    between atoms: C_2  and  C_1 
REMARK    2  A    between atoms: C_3  and  C_1 
REMARK    3  A    between atoms: C_4  and  C_2 
REMARK    4  A    between atoms: O_9  and  C_6 
REMARK    5  A    between atoms: O_10  and  C_7 
ROOT
ATOM      1  C   UNL d   1     -39.928  14.649  18.578  0.00  0.00     0.236 C 
ATOM      2  O   UNL d   1     -40.506  14.107  18.782  0.00  0.00    -0.283 OA
ENDROOT
BRANCH   1   3
ATOM      3  C   UNL d   1     -39.623  15.189  19.123  0.00  0.00     0.236 C 
ATOM      4  O   UNL d   1     -38.891  15.527  19.013  0.00  0.00    -0.283 OA
BRANCH   3   5
ATOM      5  C   UNL d   1     -40.076  15.391  19.800  0.00  0.00     0.065 A 
ATOM      6  C   UNL d   1     -39.797  15.275  20.544  0.00  0.00     0.097 A 
ATOM      7  C   UNL d   1     -40.255  15.481  21.207  0.00  0.00     0.024 A 
ATOM      8  C   UNL d   1     -41.000  15.804  21.086  0.00  0.00     0.002 A 
ATOM      9  C   UNL d   1     -41.284  15.922  20.338  0.00  0.00     0.000 A 
ATOM     10  C   UNL d   1     -40.821  15.715  19.679  0.00  0.00     0.005 A 
BRANCH   6  11
ATOM     11  O   UNL d   1     -39.039  14.946  20.663  0.00  0.00    -0.328 OA
ATOM     12  C   UNL d   1     -38.757  14.849  21.336  0.00  0.00     0.181 C 
ENDBRANCH   6  11
ENDBRANCH   3   5
ENDBRANCH   1   3
BRANCH   1  13
ATOM     13  C   UNL d   1     -39.638  14.660  17.802  0.00  0.00     0.065 A 
ATOM     14  C   UNL d   1     -39.285  13.986  17.490  0.00  0.00     0.097 A 
ATOM     15  C   UNL d   1     -38.999  14.005  16.717  0.00  0.00     0.024 A 
ATOM     16  C   UNL d   1     -39.064  14.682  16.265  0.00  0.00     0.002 A 
ATOM     17  C   UNL d   1     -39.410  15.343  16.567  0.00  0.00     0.000 A 
ATOM     18  C   UNL d   1     -39.705  15.352  17.340  0.00  0.00     0.005 A 
BRANCH  14  19
ATOM     19  O   UNL d   1     -39.209  13.267  17.954  0.00  0.00    -0.328 OA
ATOM     20  C   UNL d   1     -38.774  12.614  17.693  0.00  0.00     0.181 C 
ENDBRANCH  14  19
ENDBRANCH   1  13
TORSDOF 5
ENDMDL
