MODEL 1
REMARK VINA RESULT:      -0.4      0.000      0.000
REMARK  2 active torsions:
REMARK  status: ('A' for Active; 'I' for Inactive)
REMARK    1  A    between atoms: C_7  and  N_1 
REMARK    2  A    between atoms: C_9  and  C_2 
ROOT
ATOM      1  N   UNL d   1      57.988  -1.154  30.318  0.00  0.00    -0.273 N 
ATOM      2  C   UNL d   1      57.882  -1.969  30.206  0.00  0.00     0.174 A 
ATOM      3  N   UNL d   1      57.342  -2.231  30.766  0.00  0.00    -0.204 NA
ATOM      4  C   UNL d   1      57.512  -0.924  30.946  0.00  0.00     0.185 A 
ATOM      5  C   UNL d   1      57.113  -1.587  31.224  0.00  0.00     0.199 A 
ATOM      6  N   UNL d   1      57.388  -0.189  31.306  0.00  0.00    -0.224 NA
ATOM      7  N   UNL d   1      56.591  -1.521  31.858  0.00  0.00    -0.223 NA
ATOM      8  C   UNL d   1      56.869  -0.125  31.936  0.00  0.00     0.101 A 
ATOM      9  C   UNL d   1      56.469  -0.784  32.215  0.00  0.00     0.101 A 
ATOM     10  C   UNL d   1      56.746   0.608  32.295  0.00  0.00     0.021 A 
ATOM     11  C   UNL d   1      55.947  -0.722  32.848  0.00  0.00     0.021 A 
ATOM     12  C   UNL d   1      55.821   0.009  33.210  0.00  0.00     0.002 A 
ATOM     13  C   UNL d   1      56.226   0.678  32.929  0.00  0.00     0.002 A 
ENDROOT
BRANCH   1  14
ATOM     14  C   UNL d   1      58.494  -0.696  29.856  0.00  0.00     0.069 A 
ATOM     15  C   UNL d   1      59.307  -0.698  30.014  0.00  0.00     0.044 A 
ATOM     16  C   UNL d   1      59.813  -0.242  29.553  0.00  0.00     0.124 A 
ATOM     17  O   UNL d   1      60.616  -0.245  29.711  0.00  0.00    -0.301 OA
ATOM     18  C   UNL d   1      59.505   0.216  28.935  0.00  0.00     0.123 A 
ATOM     19  C   UNL d   1      61.133   0.217  29.246  0.00  0.00     0.149 A 
ATOM     20  C   UNL d   1      60.830   0.680  28.622  0.00  0.00     0.149 A 
ATOM     21  O   UNL d   1      60.016   0.680  28.466  0.00  0.00    -0.301 OA
ATOM     22  C   UNL d   1      58.699   0.220  28.776  0.00  0.00     0.028 A 
ATOM     23  C   UNL d   1      58.193  -0.236  29.236  0.00  0.00     0.020 A 
ENDBRANCH   1  14
BRANCH   2  24
ATOM     24  C   UNL d   1      58.255  -2.429  29.633  0.00  0.00     0.135 A 
ATOM     25  O   UNL d   1      58.961  -2.845  29.727  0.00  0.00    -0.302 OA
ATOM     26  C   UNL d   1      59.127  -3.229  29.009  0.00  0.00     0.123 A 
ATOM     27  C   UNL d   1      58.519  -3.043  28.477  0.00  0.00     0.029 A 
ATOM     28  C   UNL d   1      57.981  -2.549  28.862  0.00  0.00     0.030 A 
ENDBRANCH   2  24
TORSDOF 2
ENDMDL
MODEL 2
REMARK VINA RESULT:       0.4      1.136      2.677
REMARK  2 active torsions:
REMARK  status: ('A' for Active; 'I' for Inactive)
REMARK    1  A    between atoms: C_7  and  N_1 
REMARK    2  A    between atoms: C_9  and  C_2 
ROOT
ATOM      1  N   UNL d   1      58.365  -0.123  31.240  0.00  0.00    -0.273 N 
ATOM      2  C   UNL d   1      59.026   0.321  31.470  0.00  0.00     0.174 A 
ATOM      3  N   UNL d   1      58.848   0.682  32.186  0.00  0.00    -0.204 NA
ATOM      4  C   UNL d   1      57.788  -0.031  31.816  0.00  0.00     0.185 A 
ATOM      5  C   UNL d   1      58.084   0.465  32.401  0.00  0.00     0.199 A 
ATOM      6  N   UNL d   1      57.021  -0.338  31.887  0.00  0.00    -0.224 NA
ATOM      7  N   UNL d   1      57.622   0.658  33.055  0.00  0.00    -0.223 NA
ATOM      8  C   UNL d   1      56.563  -0.146  32.538  0.00  0.00     0.101 A 
ATOM      9  C   UNL d   1      56.856   0.349  33.122  0.00  0.00     0.101 A 
ATOM     10  C   UNL d   1      55.800  -0.451  32.608  0.00  0.00     0.021 A 
ATOM     11  C   UNL d   1      56.397   0.544  33.777  0.00  0.00     0.021 A 
ATOM     12  C   UNL d   1      55.633   0.240  33.851  0.00  0.00     0.002 A 
ATOM     13  C   UNL d   1      55.335  -0.261  33.260  0.00  0.00     0.002 A 
ENDROOT
BRANCH   1  14
ATOM     14  C   UNL d   1      58.337  -0.566  30.544  0.00  0.00     0.069 A 
ATOM     15  C   UNL d   1      58.517  -1.373  30.565  0.00  0.00     0.044 A 
ATOM     16  C   UNL d   1      58.490  -1.815  29.873  0.00  0.00     0.124 A 
ATOM     17  O   UNL d   1      58.668  -2.614  29.896  0.00  0.00    -0.301 OA
ATOM     18  C   UNL d   1      58.282  -1.449  29.159  0.00  0.00     0.123 A 
ATOM     19  C   UNL d   1      58.642  -3.067  29.195  0.00  0.00     0.149 A 
ATOM     20  C   UNL d   1      58.433  -2.704  28.473  0.00  0.00     0.149 A 
ATOM     21  O   UNL d   1      58.254  -1.895  28.455  0.00  0.00    -0.301 OA
ATOM     22  C   UNL d   1      58.103  -0.647  29.135  0.00  0.00     0.028 A 
ATOM     23  C   UNL d   1      58.130  -0.205  29.828  0.00  0.00     0.020 A 
ENDBRANCH   1  14
BRANCH   2  24
ATOM     24  C   UNL d   1      59.732   0.385  31.051  0.00  0.00     0.135 A 
ATOM     25  O   UNL d   1      59.818   0.678  30.285  0.00  0.00    -0.302 OA
ATOM     26  C   UNL d   1      60.624   0.640  30.088  0.00  0.00     0.123 A 
ATOM     27  C   UNL d   1      61.029   0.323  30.738  0.00  0.00     0.029 A 
ATOM     28  C   UNL d   1      60.478   0.166  31.333  0.00  0.00     0.030 A 
ENDBRANCH   2  24
TORSDOF 2
ENDMDL
