MODEL 1
REMARK VINA RESULT:      -1.8      0.000      0.000
REMARK  8 active torsions:
REMARK  status: ('A' for Active; 'I' for Inactive)
REMARK    1  A    between atoms: C_6  and  C_1 
REMARK    2  A    between atoms: C_8  and  N_3 
REMARK    3  A    between atoms: C_7  and  C_6 
REMARK    4  A    between atoms: C_9  and  C_7 
REMARK    5  A    between atoms: C_14  and  C_8 
REMARK    6  A    between atoms: C_17  and  C_14 
REMARK    7  A    between atoms: C_15  and  C_16 
REMARK    8  A    between atoms: C_16  and  C_17 
ROOT
ATOM      1  C   UNL d   1      32.667  19.650 -22.385  0.00  0.00     0.148 A 
ATOM      2  N   UNL d   1      32.454  18.745 -22.329  0.00  0.00    -0.227 NA
ATOM      3  N   UNL d   1      32.886  19.820 -23.268  0.00  0.00    -0.289 N 
ATOM      4  C   UNL d   1      32.812  19.039 -23.757  0.00  0.00     0.083 A 
ATOM      5  C   UNL d   1      32.538  18.358 -23.162  0.00  0.00     0.099 A 
ATOM      6  C   UNL d   1      32.954  18.848 -24.658  0.00  0.00     0.019 A 
ATOM      7  C   UNL d   1      32.415  17.507 -23.487  0.00  0.00     0.021 A 
ATOM      8  C   UNL d   1      32.823  17.987 -24.956  0.00  0.00     0.002 A 
ATOM      9  C   UNL d   1      32.549  17.307 -24.362  0.00  0.00     0.002 A 
ENDROOT
BRANCH   1  10
ATOM     10  C   UNL d   1      32.771  20.370 -22.107  0.00  0.00     0.037 C 
BRANCH  10  11
ATOM     11  C   UNL d   1      32.928  20.540 -21.323  0.00  0.00     0.003 C 
BRANCH  11  12
ATOM     12  C   UNL d   1      32.786  21.279 -20.976  0.00  0.00     0.000 A 
ATOM     13  C   UNL d   1      32.388  21.868 -21.381  0.00  0.00     0.000 A 
ATOM     14  C   UNL d   1      32.250  22.598 -21.033  0.00  0.00     0.000 A 
ATOM     15  C   UNL d   1      32.517  22.740 -20.258  0.00  0.00     0.000 A 
ATOM     16  C   UNL d   1      32.916  22.149 -19.852  0.00  0.00     0.000 A 
ATOM     17  C   UNL d   1      33.053  21.421 -20.200  0.00  0.00     0.000 A 
ENDBRANCH  11  12
ENDBRANCH  10  11
ENDBRANCH   1  10
BRANCH   3  18
ATOM     18  C   UNL d   1      33.091  20.055 -24.011  0.00  0.00     0.082 C 
BRANCH  18  19
ATOM     19  C   UNL d   1      33.225  20.847 -24.169  0.00  0.00     0.019 C 
BRANCH  19  20
ATOM     20  C   UNL d   1      33.192  21.129 -24.934  0.00  0.00     0.002 C 
BRANCH  20  21
ATOM     21  C   UNL d   1      32.881  21.876 -25.097  0.00  0.00     0.000 C 
BRANCH  21  22
ATOM     22  C   UNL d   1      33.241  22.558 -24.809  0.00  0.00     0.000 C 
ATOM     23  C   UNL d   1      33.018  23.305 -25.081  0.00  0.00     0.000 C 
ENDBRANCH  21  22
ENDBRANCH  20  21
ENDBRANCH  19  20
ENDBRANCH  18  19
ENDBRANCH   3  18
TORSDOF 8
ENDMDL
MODEL 2
REMARK VINA RESULT:      -1.4      0.990      4.441
REMARK  8 active torsions:
REMARK  status: ('A' for Active; 'I' for Inactive)
REMARK    1  A    between atoms: C_6  and  C_1 
REMARK    2  A    between atoms: C_8  and  N_3 
REMARK    3  A    between atoms: C_7  and  C_6 
REMARK    4  A    between atoms: C_9  and  C_7 
REMARK    5  A    between atoms: C_14  and  C_8 
REMARK    6  A    between atoms: C_17  and  C_14 
REMARK    7  A    between atoms: C_15  and  C_16 
REMARK    8  A    between atoms: C_16  and  C_17 
ROOT
ATOM      1  C   UNL d   1      33.163  20.659 -24.286  0.00  0.00     0.148 A 
ATOM      2  N   UNL d   1      33.057  21.243 -25.004  0.00  0.00    -0.227 NA
ATOM      3  N   UNL d   1      33.199  21.178 -23.521  0.00  0.00    -0.289 N 
ATOM      4  C   UNL d   1      33.118  22.069 -23.753  0.00  0.00     0.083 A 
ATOM      5  C   UNL d   1      33.028  22.110 -24.692  0.00  0.00     0.099 A 
ATOM      6  C   UNL d   1      33.113  22.850 -23.244  0.00  0.00     0.019 A 
ATOM      7  C   UNL d   1      32.935  22.931 -25.094  0.00  0.00     0.021 A 
ATOM      8  C   UNL d   1      33.018  23.659 -23.673  0.00  0.00     0.002 A 
ATOM      9  C   UNL d   1      32.929  23.700 -24.612  0.00  0.00     0.002 A 
ENDROOT
BRANCH   1  10
ATOM     10  C   UNL d   1      33.241  19.962 -23.948  0.00  0.00     0.037 C 
BRANCH  10  11
ATOM     11  C   UNL d   1      33.156  19.250 -24.342  0.00  0.00     0.003 C 
BRANCH  11  12
ATOM     12  C   UNL d   1      32.714  18.613 -24.048  0.00  0.00     0.000 A 
ATOM     13  C   UNL d   1      32.968  18.183 -23.402  0.00  0.00     0.000 A 
ATOM     14  C   UNL d   1      32.527  17.553 -23.115  0.00  0.00     0.000 A 
ATOM     15  C   UNL d   1      31.810  17.351 -23.488  0.00  0.00     0.000 A 
ATOM     16  C   UNL d   1      31.556  17.784 -24.136  0.00  0.00     0.000 A 
ATOM     17  C   UNL d   1      31.997  18.411 -24.421  0.00  0.00     0.000 A 
ENDBRANCH  11  12
ENDBRANCH  10  11
ENDBRANCH   1  10
BRANCH   3  18
ATOM     18  C   UNL d   1      33.240  21.551 -22.808  0.00  0.00     0.082 C 
BRANCH  18  19
ATOM     19  C   UNL d   1      33.156  21.124 -22.115  0.00  0.00     0.019 C 
BRANCH  19  20
ATOM     20  C   UNL d   1      32.877  21.483 -21.437  0.00  0.00     0.002 C 
BRANCH  20  21
ATOM     21  C   UNL d   1      32.648  21.034 -20.784  0.00  0.00     0.000 C 
BRANCH  21  22
ATOM     22  C   UNL d   1      32.390  21.393 -20.090  0.00  0.00     0.000 C 
ATOM     23  C   UNL d   1      32.880  21.905 -19.668  0.00  0.00     0.000 C 
ENDBRANCH  21  22
ENDBRANCH  20  21
ENDBRANCH  19  20
ENDBRANCH  18  19
ENDBRANCH   3  18
TORSDOF 8
ENDMDL
MODEL 3
REMARK VINA RESULT:       0.2      1.702      2.951
REMARK  8 active torsions:
REMARK  status: ('A' for Active; 'I' for Inactive)
REMARK    1  A    between atoms: C_6  and  C_1 
REMARK    2  A    between atoms: C_8  and  N_3 
REMARK    3  A    between atoms: C_7  and  C_6 
REMARK    4  A    between atoms: C_9  and  C_7 
REMARK    5  A    between atoms: C_14  and  C_8 
REMARK    6  A    between atoms: C_17  and  C_14 
REMARK    7  A    between atoms: C_15  and  C_16 
REMARK    8  A    between atoms: C_16  and  C_17 
ROOT
ATOM      1  C   UNL d   1      32.855  18.272 -23.084  0.00  0.00     0.148 A 
ATOM      2  N   UNL d   1      33.238  17.452 -22.860  0.00  0.00    -0.227 NA
ATOM      3  N   UNL d   1      32.377  18.141 -23.865  0.00  0.00    -0.289 N 
ATOM      4  C   UNL d   1      32.458  17.258 -24.127  0.00  0.00     0.083 A 
ATOM      5  C   UNL d   1      33.002  16.822 -23.491  0.00  0.00     0.099 A 
ATOM      6  C   UNL d   1      32.113  16.788 -24.854  0.00  0.00     0.019 A 
ATOM      7  C   UNL d   1      33.186  15.928 -23.601  0.00  0.00     0.021 A 
ATOM      8  C   UNL d   1      32.313  15.893 -24.939  0.00  0.00     0.002 A 
ATOM      9  C   UNL d   1      32.857  15.457 -24.303  0.00  0.00     0.002 A 
ENDROOT
BRANCH   1  10
ATOM     10  C   UNL d   1      32.702  19.029 -22.988  0.00  0.00     0.037 C 
BRANCH  10  11
ATOM     11  C   UNL d   1      33.018  19.488 -22.390  0.00  0.00     0.003 C 
BRANCH  11  12
ATOM     12  C   UNL d   1      32.937  20.313 -22.353  0.00  0.00     0.000 A 
ATOM     13  C   UNL d   1      32.767  20.691 -21.648  0.00  0.00     0.000 A 
ATOM     14  C   UNL d   1      32.688  21.507 -21.617  0.00  0.00     0.000 A 
ATOM     15  C   UNL d   1      32.782  21.956 -22.312  0.00  0.00     0.000 A 
ATOM     16  C   UNL d   1      32.953  21.575 -23.018  0.00  0.00     0.000 A 
ATOM     17  C   UNL d   1      33.032  20.761 -23.049  0.00  0.00     0.000 A 
ENDBRANCH  11  12
ENDBRANCH  10  11
ENDBRANCH   1  10
BRANCH   3  18
ATOM     18  C   UNL d   1      31.939  18.116 -24.540  0.00  0.00     0.082 C 
BRANCH  18  19
ATOM     19  C   UNL d   1      31.237  18.534 -24.590  0.00  0.00     0.019 C 
BRANCH  19  20
ATOM     20  C   UNL d   1      30.631  18.271 -25.070  0.00  0.00     0.002 C 
BRANCH  20  21
ATOM     21  C   UNL d   1      29.860  18.546 -24.967  0.00  0.00     0.000 C 
BRANCH  21  22
ATOM     22  C   UNL d   1      29.213  18.055 -25.094  0.00  0.00     0.000 C 
ATOM     23  C   UNL d   1      28.646  17.934 -24.506  0.00  0.00     0.000 C 
ENDBRANCH  21  22
ENDBRANCH  20  21
ENDBRANCH  19  20
ENDBRANCH  18  19
ENDBRANCH   3  18
TORSDOF 8
ENDMDL
