MODEL 1
REMARK VINA RESULT:      -9.0      0.000      0.000
REMARK  4 active torsions:
REMARK  status: ('A' for Active; 'I' for Inactive)
REMARK    1  A    between atoms: O_2  and  C_1 
REMARK       I    between atoms: N_6  and  C_1 
REMARK    2  A    between atoms: C_3  and  O_2 
REMARK    3  A    between atoms: C_14  and  N_6 
REMARK    4  A    between atoms: C_15  and  N_6 
ROOT
ATOM      1  C   UNL d   1      53.263  32.522  53.799  0.00  0.00     0.105 A 
ATOM      2  C   UNL d   1      53.684  33.075  54.245  0.00  0.00     0.024 A 
ATOM      3  C   UNL d   1      53.515  33.866  54.199  0.00  0.00     0.013 A 
ATOM      4  C   UNL d   1      52.920  34.128  53.707  0.00  0.00     0.058 A 
ATOM      5  C   UNL d   1      52.660  32.802  53.301  0.00  0.00     0.026 A 
ATOM      6  C   UNL d   1      52.491  33.593  53.255  0.00  0.00     0.013 A 
ATOM      7 CL   UNL d   1      52.742  34.935  53.655  0.00  0.00    -0.082 Cl
ATOM      8  C   UNL d   1      54.286  32.795  54.743  0.00  0.00     0.002 A 
ATOM      9  C   UNL d   1      53.943  34.401  54.650  0.00  0.00     0.001 A 
ATOM     10  C   UNL d   1      54.553  34.143  55.156  0.00  0.00     0.000 A 
ATOM     11  C   UNL d   1      54.722  33.352  55.202  0.00  0.00     0.000 A 
ENDROOT
BRANCH   1  12
ATOM     12  O   UNL d   1      53.428  31.723  53.840  0.00  0.00    -0.259 OA
BRANCH  12  13
ATOM     13  C   UNL d   1      53.137  31.211  53.254  0.00  0.00     0.377 C 
ATOM     14  N   UNL d   1      53.071  30.379  53.423  0.00  0.00    -0.252 N 
ATOM     15  O   UNL d   1      52.910  31.483  52.516  0.00  0.00    -0.237 OA
BRANCH  14  16
ATOM     16  C   UNL d   1      52.783  29.870  52.844  0.00  0.00     0.085 C 
ATOM     17  C   UNL d   1      52.194  29.316  53.043  0.00  0.00     0.021 C 
ENDBRANCH  14  16
BRANCH  14  18
ATOM     18  C   UNL d   1      53.292  30.096  54.151  0.00  0.00     0.085 C 
ATOM     19  C   UNL d   1      53.538  29.305  54.231  0.00  0.00     0.021 C 
ENDBRANCH  14  18
ENDBRANCH  12  13
ENDBRANCH   1  12
TORSDOF 4
ENDMDL
MODEL 2
REMARK VINA RESULT:      -8.9      0.718      1.962
REMARK  4 active torsions:
REMARK  status: ('A' for Active; 'I' for Inactive)
REMARK    1  A    between atoms: O_2  and  C_1 
REMARK       I    between atoms: N_6  and  C_1 
REMARK    2  A    between atoms: C_3  and  O_2 
REMARK    3  A    between atoms: C_14  and  N_6 
REMARK    4  A    between atoms: C_15  and  N_6 
ROOT
ATOM      1  C   UNL d   1      53.064  32.836  53.630  0.00  0.00     0.105 A 
ATOM      2  C   UNL d   1      52.561  33.432  53.360  0.00  0.00     0.024 A 
ATOM      3  C   UNL d   1      52.629  34.192  53.631  0.00  0.00     0.013 A 
ATOM      4  C   UNL d   1      53.201  34.380  54.181  0.00  0.00     0.058 A 
ATOM      5  C   UNL d   1      53.643  33.039  54.190  0.00  0.00     0.026 A 
ATOM      6  C   UNL d   1      53.711  33.800  54.461  0.00  0.00     0.013 A 
ATOM      7 CL   UNL d   1      53.277  35.155  54.463  0.00  0.00    -0.082 Cl
ATOM      8  C   UNL d   1      51.983  33.228  52.800  0.00  0.00     0.002 A 
ATOM      9  C   UNL d   1      52.120  34.772  53.351  0.00  0.00     0.001 A 
ATOM     10  C   UNL d   1      51.532  34.590  52.789  0.00  0.00     0.000 A 
ATOM     11  C   UNL d   1      51.465  33.830  52.517  0.00  0.00     0.000 A 
ENDROOT
BRANCH   1  12
ATOM     12  O   UNL d   1      53.002  32.067  53.361  0.00  0.00    -0.259 OA
BRANCH  12  13
ATOM     13  C   UNL d   1      53.437  31.463  53.731  0.00  0.00     0.377 C 
ATOM     14  N   UNL d   1      53.282  30.652  53.524  0.00  0.00    -0.252 N 
ATOM     15  O   UNL d   1      54.012  31.625  54.291  0.00  0.00    -0.237 OA
BRANCH  14  16
ATOM     16  C   UNL d   1      53.712  30.052  53.889  0.00  0.00     0.085 C 
ATOM     17  C   UNL d   1      53.307  29.432  54.269  0.00  0.00     0.021 C 
ENDBRANCH  14  16
BRANCH  14  18
ATOM     18  C   UNL d   1      52.715  30.477  52.971  0.00  0.00     0.085 C 
ATOM     19  C   UNL d   1      52.832  29.844  52.443  0.00  0.00     0.021 C 
ENDBRANCH  14  18
ENDBRANCH  12  13
ENDBRANCH   1  12
TORSDOF 4
ENDMDL
MODEL 3
REMARK VINA RESULT:      -8.4      2.104      3.331
REMARK  4 active torsions:
REMARK  status: ('A' for Active; 'I' for Inactive)
REMARK    1  A    between atoms: O_2  and  C_1 
REMARK       I    between atoms: N_6  and  C_1 
REMARK    2  A    between atoms: C_3  and  O_2 
REMARK    3  A    between atoms: C_14  and  N_6 
REMARK    4  A    between atoms: C_15  and  N_6 
ROOT
ATOM      1  C   UNL d   1      52.448  33.119  53.441  0.00  0.00     0.105 A 
ATOM      2  C   UNL d   1      53.078  33.200  53.968  0.00  0.00     0.024 A 
ATOM      3  C   UNL d   1      53.634  32.616  54.049  0.00  0.00     0.013 A 
ATOM      4  C   UNL d   1      53.577  31.934  53.606  0.00  0.00     0.058 A 
ATOM      5  C   UNL d   1      52.400  32.419  52.996  0.00  0.00     0.026 A 
ATOM      6  C   UNL d   1      52.956  31.835  53.077  0.00  0.00     0.013 A 
ATOM      7 CL   UNL d   1      54.141  31.333  53.684  0.00  0.00    -0.082 Cl
ATOM      8  C   UNL d   1      53.125  33.899  54.413  0.00  0.00     0.002 A 
ATOM      9  C   UNL d   1      54.254  32.715  54.577  0.00  0.00     0.001 A 
ATOM     10  C   UNL d   1      54.321  33.409  55.034  0.00  0.00     0.000 A 
ATOM     11  C   UNL d   1      53.765  33.992  54.953  0.00  0.00     0.000 A 
ENDROOT
BRANCH   1  12
ATOM     12  O   UNL d   1      51.883  33.703  53.354  0.00  0.00    -0.259 OA
BRANCH  12  13
ATOM     13  C   UNL d   1      51.587  33.882  52.598  0.00  0.00     0.377 C 
ATOM     14  N   UNL d   1      50.799  34.193  52.524  0.00  0.00    -0.252 N 
ATOM     15  O   UNL d   1      52.032  33.767  51.921  0.00  0.00    -0.237 OA
BRANCH  14  16
ATOM     16  C   UNL d   1      50.503  34.371  51.776  0.00  0.00     0.085 C 
ATOM     17  C   UNL d   1      49.709  34.196  51.597  0.00  0.00     0.021 C 
ENDBRANCH  14  16
BRANCH  14  18
ATOM     18  C   UNL d   1      50.346  34.312  53.186  0.00  0.00     0.085 C 
ATOM     19  C   UNL d   1      49.837  34.969  53.229  0.00  0.00     0.021 C 
ENDBRANCH  14  18
ENDBRANCH  12  13
ENDBRANCH   1  12
TORSDOF 4
ENDMDL
MODEL 4
REMARK VINA RESULT:      -8.0      2.019      3.537
REMARK  4 active torsions:
REMARK  status: ('A' for Active; 'I' for Inactive)
REMARK    1  A    between atoms: O_2  and  C_1 
REMARK       I    between atoms: N_6  and  C_1 
REMARK    2  A    between atoms: C_3  and  O_2 
REMARK    3  A    between atoms: C_14  and  N_6 
REMARK    4  A    between atoms: C_15  and  N_6 
ROOT
ATOM      1  C   UNL d   1      52.744  33.328  53.482  0.00  0.00     0.105 A 
ATOM      2  C   UNL d   1      53.092  32.584  53.556  0.00  0.00     0.024 A 
ATOM      3  C   UNL d   1      53.707  32.458  54.069  0.00  0.00     0.013 A 
ATOM      4  C   UNL d   1      53.991  33.072  54.523  0.00  0.00     0.058 A 
ATOM      5  C   UNL d   1      53.043  33.946  53.951  0.00  0.00     0.026 A 
ATOM      6  C   UNL d   1      53.657  33.820  54.464  0.00  0.00     0.013 A 
ATOM      7 CL   UNL d   1      54.619  32.950  55.050  0.00  0.00    -0.082 Cl
ATOM      8  C   UNL d   1      52.793  31.967  53.088  0.00  0.00     0.002 A 
ATOM      9  C   UNL d   1      54.041  31.711  54.129  0.00  0.00     0.001 A 
ATOM     10  C   UNL d   1      53.757  31.077  53.668  0.00  0.00     0.000 A 
ATOM     11  C   UNL d   1      53.143  31.203  53.156  0.00  0.00     0.000 A 
ENDROOT
BRANCH   1  12
ATOM     12  O   UNL d   1      52.124  33.463  52.968  0.00  0.00    -0.259 OA
BRANCH  12  13
ATOM     13  C   UNL d   1      51.499  33.962  53.195  0.00  0.00     0.377 C 
ATOM     14  N   UNL d   1      50.932  34.211  52.611  0.00  0.00    -0.252 N 
ATOM     15  O   UNL d   1      51.412  34.223  53.966  0.00  0.00    -0.237 OA
BRANCH  14  16
ATOM     16  C   UNL d   1      50.312  34.705  52.834  0.00  0.00     0.085 C 
ATOM     17  C   UNL d   1      49.529  34.480  52.665  0.00  0.00     0.021 C 
ENDBRANCH  14  16
BRANCH  14  18
ATOM     18  C   UNL d   1      51.005  33.960  51.843  0.00  0.00     0.085 C 
ATOM     19  C   UNL d   1      50.748  34.449  51.221  0.00  0.00     0.021 C 
ENDBRANCH  14  18
ENDBRANCH  12  13
ENDBRANCH   1  12
TORSDOF 4
ENDMDL
MODEL 5
REMARK VINA RESULT:      -7.5      1.694      3.731
REMARK  4 active torsions:
REMARK  status: ('A' for Active; 'I' for Inactive)
REMARK    1  A    between atoms: O_2  and  C_1 
REMARK       I    between atoms: N_6  and  C_1 
REMARK    2  A    between atoms: C_3  and  O_2 
REMARK    3  A    between atoms: C_14  and  N_6 
REMARK    4  A    between atoms: C_15  and  N_6 
ROOT
ATOM      1  C   UNL d   1      53.421  31.420  53.866  0.00  0.00     0.105 A 
ATOM      2  C   UNL d   1      53.354  30.631  54.098  0.00  0.00     0.024 A 
ATOM      3  C   UNL d   1      53.124  30.058  53.573  0.00  0.00     0.013 A 
ATOM      4  C   UNL d   1      52.953  30.258  52.801  0.00  0.00     0.058 A 
ATOM      5  C   UNL d   1      53.245  31.610  53.077  0.00  0.00     0.026 A 
ATOM      6  C   UNL d   1      53.014  31.038  52.552  0.00  0.00     0.013 A 
ATOM      7 CL   UNL d   1      52.717  29.678  52.258  0.00  0.00    -0.082 Cl
ATOM      8  C   UNL d   1      53.531  30.441  54.886  0.00  0.00     0.002 A 
ATOM      9  C   UNL d   1      53.063  29.278  53.820  0.00  0.00     0.001 A 
ATOM     10  C   UNL d   1      53.235  29.064  54.607  0.00  0.00     0.000 A 
ATOM     11  C   UNL d   1      53.466  29.637  55.132  0.00  0.00     0.000 A 
ENDROOT
BRANCH   1  12
ATOM     12  O   UNL d   1      53.653  32.003  54.390  0.00  0.00    -0.259 OA
BRANCH  12  13
ATOM     13  C   UNL d   1      53.424  32.790  54.259  0.00  0.00     0.377 C 
ATOM     14  N   UNL d   1      53.852  33.417  54.644  0.00  0.00    -0.252 N 
ATOM     15  O   UNL d   1      52.796  32.983  53.771  0.00  0.00    -0.237 OA
BRANCH  14  16
ATOM     16  C   UNL d   1      53.627  34.199  54.516  0.00  0.00     0.085 C 
ATOM     17  C   UNL d   1      53.287  34.634  55.139  0.00  0.00     0.021 C 
ENDBRANCH  14  16
BRANCH  14  18
ATOM     18  C   UNL d   1      54.476  33.242  55.131  0.00  0.00     0.085 C 
ATOM     19  C   UNL d   1      55.147  33.734  55.140  0.00  0.00     0.021 C 
ENDBRANCH  14  18
ENDBRANCH  12  13
ENDBRANCH   1  12
TORSDOF 4
ENDMDL
MODEL 6
REMARK VINA RESULT:      -6.4      1.899      3.945
REMARK  4 active torsions:
REMARK  status: ('A' for Active; 'I' for Inactive)
REMARK    1  A    between atoms: O_2  and  C_1 
REMARK       I    between atoms: N_6  and  C_1 
REMARK    2  A    between atoms: C_3  and  O_2 
REMARK    3  A    between atoms: C_14  and  N_6 
REMARK    4  A    between atoms: C_15  and  N_6 
ROOT
ATOM      1  C   UNL d   1      53.060  32.069  53.350  0.00  0.00     0.105 A 
ATOM      2  C   UNL d   1      52.788  31.291  53.332  0.00  0.00     0.024 A 
ATOM      3  C   UNL d   1      53.303  30.666  53.344  0.00  0.00     0.013 A 
ATOM      4  C   UNL d   1      54.107  30.801  53.375  0.00  0.00     0.058 A 
ATOM      5  C   UNL d   1      53.881  32.194  53.381  0.00  0.00     0.026 A 
ATOM      6  C   UNL d   1      54.397  31.569  53.394  0.00  0.00     0.013 A 
ATOM      7 CL   UNL d   1      54.640  30.167  53.388  0.00  0.00    -0.082 Cl
ATOM      8  C   UNL d   1      51.968  31.167  53.301  0.00  0.00     0.002 A 
ATOM      9  C   UNL d   1      53.014  29.898  53.326  0.00  0.00     0.001 A 
ATOM     10  C   UNL d   1      52.195  29.750  53.294  0.00  0.00     0.000 A 
ATOM     11  C   UNL d   1      51.679  30.375  53.282  0.00  0.00     0.000 A 
ENDROOT
BRANCH   1  12
ATOM     12  O   UNL d   1      52.546  32.704  53.338  0.00  0.00    -0.259 OA
BRANCH  12  13
ATOM     13  C   UNL d   1      52.691  33.362  53.824  0.00  0.00     0.377 C 
ATOM     14  N   UNL d   1      52.363  34.118  53.611  0.00  0.00    -0.252 N 
ATOM     15  O   UNL d   1      53.142  33.306  54.505  0.00  0.00    -0.237 OA
BRANCH  14  16
ATOM     16  C   UNL d   1      52.505  34.771  54.091  0.00  0.00     0.085 C 
ATOM     17  C   UNL d   1      52.980  35.393  53.807  0.00  0.00     0.021 C 
ENDBRANCH  14  16
BRANCH  14  18
ATOM     18  C   UNL d   1      51.914  34.189  52.939  0.00  0.00     0.085 C 
ATOM     19  C   UNL d   1      51.166  34.552  52.975  0.00  0.00     0.021 C 
ENDBRANCH  14  18
ENDBRANCH  12  13
ENDBRANCH   1  12
TORSDOF 4
ENDMDL
