MODEL 1
REMARK VINA RESULT:      -5.8      0.000      0.000
REMARK  2 active torsions:
REMARK  status: ('A' for Active; 'I' for Inactive)
REMARK    1  A    between atoms: C_6  and  C_2 
REMARK    2  A    between atoms: C_7  and  C_3 
ROOT
ATOM      1  N   UNL d   1      56.759   0.294  32.238  0.00  0.00    -0.238 NA
ATOM      2  C   UNL d   1      56.300  -0.104  32.777  0.00  0.00     0.112 A 
ATOM      3  C   UNL d   1      57.007  -0.249  31.666  0.00  0.00     0.088 A 
ATOM      4  S   UNL d   1      56.253  -0.896  32.555  0.00  0.00    -0.066 SA
ATOM      5  C   UNL d   1      56.696  -0.985  31.859  0.00  0.00     0.056 A 
ENDROOT
BRANCH   3   6
ATOM      6  C   UNL d   1      57.474  -0.161  31.001  0.00  0.00     0.020 A 
ATOM      7  C   UNL d   1      57.832  -0.824  30.640  0.00  0.00     0.028 A 
ATOM      8  C   UNL d   1      58.314  -0.720  29.950  0.00  0.00     0.123 A 
ATOM      9  O   UNL d   1      58.664  -1.370  29.598  0.00  0.00    -0.301 OA
ATOM     10  C   UNL d   1      58.427   0.032  29.640  0.00  0.00     0.123 A 
ATOM     11  C   UNL d   1      59.130  -1.281  28.934  0.00  0.00     0.149 A 
ATOM     12  C   UNL d   1      59.250  -0.531  28.613  0.00  0.00     0.149 A 
ATOM     13  O   UNL d   1      58.899   0.128  28.965  0.00  0.00    -0.301 OA
ATOM     14  C   UNL d   1      58.062   0.682  30.012  0.00  0.00     0.027 A 
ATOM     15  C   UNL d   1      57.591   0.594  30.683  0.00  0.00     0.004 A 
ENDBRANCH   3   6
BRANCH   2  16
ATOM     16  C   UNL d   1      55.906   0.160  33.464  0.00  0.00     0.043 A 
ATOM     17  C   UNL d   1      56.334   0.386  34.130  0.00  0.00     0.101 A 
ATOM     18  N   UNL d   1      55.928   0.650  34.813  0.00  0.00    -0.242 NA
ATOM     19  C   UNL d   1      55.092   0.682  34.819  0.00  0.00     0.099 A 
ATOM     20  C   UNL d   1      54.675   0.453  34.148  0.00  0.00     0.021 A 
ATOM     21  C   UNL d   1      55.072   0.193  33.473  0.00  0.00     0.005 A 
ENDBRANCH   2  16
TORSDOF 2
ENDMDL
MODEL 2
REMARK VINA RESULT:      -5.4      1.050      1.511
REMARK  2 active torsions:
REMARK  status: ('A' for Active; 'I' for Inactive)
REMARK    1  A    between atoms: C_6  and  C_2 
REMARK    2  A    between atoms: C_7  and  C_3 
ROOT
ATOM      1  N   UNL d   1      57.096  -0.657  31.423  0.00  0.00    -0.238 NA
ATOM      2  C   UNL d   1      56.792  -0.045  31.861  0.00  0.00     0.112 A 
ATOM      3  C   UNL d   1      57.622  -0.337  30.870  0.00  0.00     0.088 A 
ATOM      4  S   UNL d   1      57.118   0.663  31.594  0.00  0.00    -0.066 SA
ATOM      5  C   UNL d   1      57.638   0.477  30.973  0.00  0.00     0.056 A 
ENDROOT
BRANCH   3   6
ATOM      6  C   UNL d   1      58.083  -0.689  30.293  0.00  0.00     0.020 A 
ATOM      7  C   UNL d   1      58.113  -1.520  30.220  0.00  0.00     0.028 A 
ATOM      8  C   UNL d   1      58.594  -1.874  29.618  0.00  0.00     0.123 A 
ATOM      9  O   UNL d   1      58.623  -2.688  29.548  0.00  0.00    -0.301 OA
ATOM     10  C   UNL d   1      59.027  -1.397  29.110  0.00  0.00     0.123 A 
ATOM     11  C   UNL d   1      59.083  -3.039  28.972  0.00  0.00     0.149 A 
ATOM     12  C   UNL d   1      59.522  -2.570  28.455  0.00  0.00     0.149 A 
ATOM     13  O   UNL d   1      59.497  -1.748  28.522  0.00  0.00    -0.301 OA
ATOM     14  C   UNL d   1      58.986  -0.570  29.196  0.00  0.00     0.027 A 
ATOM     15  C   UNL d   1      58.522  -0.214  29.778  0.00  0.00     0.004 A 
ENDBRANCH   3   6
BRANCH   2  16
ATOM     16  C   UNL d   1      56.242  -0.039  32.489  0.00  0.00     0.043 A 
ATOM     17  C   UNL d   1      56.108  -0.719  32.933  0.00  0.00     0.101 A 
ATOM     18  N   UNL d   1      55.554  -0.702  33.561  0.00  0.00    -0.242 NA
ATOM     19  C   UNL d   1      55.139   0.004  33.735  0.00  0.00     0.099 A 
ATOM     20  C   UNL d   1      55.281   0.677  33.284  0.00  0.00     0.021 A 
ATOM     21  C   UNL d   1      55.826   0.663  32.665  0.00  0.00     0.005 A 
ENDBRANCH   2  16
TORSDOF 2
ENDMDL
MODEL 3
REMARK VINA RESULT:      -5.4      2.225      4.910
REMARK  2 active torsions:
REMARK  status: ('A' for Active; 'I' for Inactive)
REMARK    1  A    between atoms: C_6  and  C_2 
REMARK    2  A    between atoms: C_7  and  C_3 
ROOT
ATOM      1  N   UNL d   1      58.583  -0.443  30.409  0.00  0.00    -0.238 NA
ATOM      2  C   UNL d   1      58.947  -0.129  29.755  0.00  0.00     0.112 A 
ATOM      3  C   UNL d   1      57.934   0.037  30.593  0.00  0.00     0.088 A 
ATOM      4  S   UNL d   1      58.538   0.546  29.519  0.00  0.00    -0.066 SA
ATOM      5  C   UNL d   1      57.905   0.648  30.046  0.00  0.00     0.056 A 
ENDROOT
BRANCH   3   6
ATOM      6  C   UNL d   1      57.376  -0.011  31.188  0.00  0.00     0.020 A 
ATOM      7  C   UNL d   1      57.147  -0.752  31.499  0.00  0.00     0.028 A 
ATOM      8  C   UNL d   1      56.566  -0.790  32.116  0.00  0.00     0.123 A 
ATOM      9  O   UNL d   1      56.343  -1.516  32.419  0.00  0.00    -0.301 OA
ATOM     10  C   UNL d   1      56.232  -0.098  32.404  0.00  0.00     0.123 A 
ATOM     11  C   UNL d   1      55.785  -1.564  33.013  0.00  0.00     0.149 A 
ATOM     12  C   UNL d   1      55.442  -0.875  33.311  0.00  0.00     0.149 A 
ATOM     13  O   UNL d   1      55.664  -0.141  33.008  0.00  0.00    -0.301 OA
ATOM     14  C   UNL d   1      56.471   0.632  32.083  0.00  0.00     0.027 A 
ATOM     15  C   UNL d   1      57.035   0.682  31.483  0.00  0.00     0.004 A 
ENDBRANCH   3   6
BRANCH   2  16
ATOM     16  C   UNL d   1      59.620  -0.379  29.329  0.00  0.00     0.043 A 
ATOM     17  C   UNL d   1      59.680  -1.154  29.060  0.00  0.00     0.101 A 
ATOM     18  N   UNL d   1      60.360  -1.393  28.633  0.00  0.00    -0.242 NA
ATOM     19  C   UNL d   1      60.975  -0.846  28.482  0.00  0.00     0.099 A 
ATOM     20  C   UNL d   1      60.904  -0.074  28.756  0.00  0.00     0.021 A 
ATOM     21  C   UNL d   1      60.236   0.165  29.176  0.00  0.00     0.005 A 
ENDBRANCH   2  16
TORSDOF 2
ENDMDL
MODEL 4
REMARK VINA RESULT:      -5.2      2.219      4.851
REMARK  2 active torsions:
REMARK  status: ('A' for Active; 'I' for Inactive)
REMARK    1  A    between atoms: C_6  and  C_2 
REMARK    2  A    between atoms: C_7  and  C_3 
ROOT
ATOM      1  N   UNL d   1      57.954  -0.568  30.922  0.00  0.00    -0.238 NA
ATOM      2  C   UNL d   1      58.169  -0.398  30.157  0.00  0.00     0.112 A 
ATOM      3  C   UNL d   1      57.566   0.095  31.229  0.00  0.00     0.088 A 
ATOM      4  S   UNL d   1      57.924   0.366  29.974  0.00  0.00    -0.066 SA
ATOM      5  C   UNL d   1      57.546   0.673  30.646  0.00  0.00     0.056 A 
ENDROOT
BRANCH   3   6
ATOM      6  C   UNL d   1      57.234   0.237  31.962  0.00  0.00     0.020 A 
ATOM      7  C   UNL d   1      56.422   0.093  32.098  0.00  0.00     0.028 A 
ATOM      8  C   UNL d   1      56.089   0.244  32.863  0.00  0.00     0.123 A 
ATOM      9  O   UNL d   1      55.294   0.102  32.994  0.00  0.00    -0.301 OA
ATOM     10  C   UNL d   1      56.565   0.532  33.466  0.00  0.00     0.123 A 
ATOM     11  C   UNL d   1      54.962   0.244  33.726  0.00  0.00     0.149 A 
ATOM     12  C   UNL d   1      55.431   0.533  34.340  0.00  0.00     0.149 A 
ATOM     13  O   UNL d   1      56.233   0.678  34.213  0.00  0.00    -0.301 OA
ATOM     14  C   UNL d   1      57.372   0.670  33.315  0.00  0.00     0.027 A 
ATOM     15  C   UNL d   1      57.708   0.527  32.575  0.00  0.00     0.004 A 
ENDBRANCH   3   6
BRANCH   2  16
ATOM     16  C   UNL d   1      58.571  -0.855  29.586  0.00  0.00     0.043 A 
ATOM     17  C   UNL d   1      59.084  -0.498  29.051  0.00  0.00     0.101 A 
ATOM     18  N   UNL d   1      59.481  -0.967  28.482  0.00  0.00    -0.242 NA
ATOM     19  C   UNL d   1      59.357  -1.794  28.458  0.00  0.00     0.099 A 
ATOM     20  C   UNL d   1      58.841  -2.140  28.998  0.00  0.00     0.021 A 
ATOM     21  C   UNL d   1      58.449  -1.681  29.559  0.00  0.00     0.005 A 
ENDBRANCH   2  16
TORSDOF 2
ENDMDL
MODEL 5
REMARK VINA RESULT:      -5.1      2.246      4.926
REMARK  2 active torsions:
REMARK  status: ('A' for Active; 'I' for Inactive)
REMARK    1  A    between atoms: C_6  and  C_2 
REMARK    2  A    between atoms: C_7  and  C_3 
ROOT
ATOM      1  N   UNL d   1      58.273  -1.173  30.350  0.00  0.00    -0.238 NA
ATOM      2  C   UNL d   1      58.673  -1.071  29.650  0.00  0.00     0.112 A 
ATOM      3  C   UNL d   1      57.803  -0.503  30.474  0.00  0.00     0.088 A 
ATOM      4  S   UNL d   1      58.463  -0.344  29.326  0.00  0.00    -0.066 SA
ATOM      5  C   UNL d   1      57.918   0.010  29.843  0.00  0.00     0.056 A 
ENDROOT
BRANCH   3   6
ATOM      6  C   UNL d   1      57.291  -0.305  31.079  0.00  0.00     0.020 A 
ATOM      7  C   UNL d   1      57.005  -0.888  31.604  0.00  0.00     0.028 A 
ATOM      8  C   UNL d   1      56.474  -0.671  32.228  0.00  0.00     0.123 A 
ATOM      9  O   UNL d   1      56.195  -1.243  32.741  0.00  0.00    -0.301 OA
ATOM     10  C   UNL d   1      56.244   0.112  32.314  0.00  0.00     0.123 A 
ATOM     11  C   UNL d   1      55.684  -1.045  33.346  0.00  0.00     0.149 A 
ATOM     12  C   UNL d   1      55.446  -0.261  33.442  0.00  0.00     0.149 A 
ATOM     13  O   UNL d   1      55.725   0.320  32.927  0.00  0.00    -0.301 OA
ATOM     14  C   UNL d   1      56.539   0.682  31.782  0.00  0.00     0.027 A 
ATOM     15  C   UNL d   1      57.056   0.482  31.171  0.00  0.00     0.004 A 
ENDBRANCH   3   6
BRANCH   2  16
ATOM     16  C   UNL d   1      59.218  -1.562  29.253  0.00  0.00     0.043 A 
ATOM     17  C   UNL d   1      60.004  -1.331  29.168  0.00  0.00     0.101 A 
ATOM     18  N   UNL d   1      60.542  -1.832  28.768  0.00  0.00    -0.242 NA
ATOM     19  C   UNL d   1      60.282  -2.564  28.455  0.00  0.00     0.099 A 
ATOM     20  C   UNL d   1      59.494  -2.784  28.546  0.00  0.00     0.021 A 
ATOM     21  C   UNL d   1      58.962  -2.293  28.940  0.00  0.00     0.005 A 
ENDBRANCH   2  16
TORSDOF 2
ENDMDL
