MODEL 1
REMARK VINA RESULT:      24.6      0.000      0.000
REMARK  4 active torsions:
REMARK  status: ('A' for Active; 'I' for Inactive)
REMARK    1  A    between atoms: C_6  and  C_1 
REMARK    2  A    between atoms: C_7  and  C_5 
REMARK    3  A    between atoms: O_15  and  C_12 
REMARK    4  A    between atoms: C_16  and  O_15 
ROOT
ATOM      1  C   UNL d   1      13.556  13.300  -3.285  0.00  0.00     0.020 A 
ATOM      2  C   UNL d   1      13.775  14.107  -3.313  0.00  0.00     0.004 A 
ATOM      3  C   UNL d   1      13.096  12.979  -3.890  0.00  0.00     0.004 A 
ATOM      4  C   UNL d   1      13.060  14.244  -4.559  0.00  0.00     0.100 A 
ATOM      5  C   UNL d   1      13.528  14.576  -3.945  0.00  0.00     0.025 A 
ATOM      6  C   UNL d   1      12.850  13.447  -4.522  0.00  0.00     0.025 A 
ENDROOT
BRANCH   1   7
ATOM      7  C   UNL d   1      13.802  12.828  -2.651  0.00  0.00     0.105 A 
ATOM      8  C   UNL d   1      14.441  13.061  -1.473  0.00  0.00     0.048 A 
ATOM      9  C   UNL d   1      14.401  12.286  -1.303  0.00  0.00     0.169 A 
ATOM     10  N   UNL d   1      14.063  11.782  -1.805  0.00  0.00    -0.142 NA
ATOM     11  N   UNL d   1      13.765  12.062  -2.480  0.00  0.00    -0.148 NA
BRANCH   9  12
ATOM     12  C   UNL d   1      14.706  12.021  -0.620  0.00  0.00     0.231 C 
ATOM     13  O   UNL d   1      14.223  11.799  -0.036  0.00  0.00    -0.643 OA
ATOM     14  O   UNL d   1      15.524  11.979  -0.527  0.00  0.00    -0.643 OA
ENDBRANCH   9  12
ENDBRANCH   1   7
BRANCH   4  15
ATOM     15  O   UNL d   1      12.815  14.724  -5.194  0.00  0.00    -0.305 OA
BRANCH  15  16
ATOM     16  C   UNL d   1      13.171  15.461  -5.306  0.00  0.00     0.123 C 
ATOM     17  C   UNL d   1      12.866  15.989  -5.871  0.00  0.00     0.029 C 
ENDBRANCH  15  16
ENDBRANCH   4  15
TORSDOF 4
ENDMDL
MODEL 2
REMARK VINA RESULT:      26.5      1.448      1.831
REMARK  4 active torsions:
REMARK  status: ('A' for Active; 'I' for Inactive)
REMARK    1  A    between atoms: C_6  and  C_1 
REMARK    2  A    between atoms: C_7  and  C_5 
REMARK    3  A    between atoms: O_15  and  C_12 
REMARK    4  A    between atoms: C_16  and  O_15 
ROOT
ATOM      1  C   UNL d   1      13.802  12.468  -3.026  0.00  0.00     0.020 A 
ATOM      2  C   UNL d   1      13.837  13.152  -3.507  0.00  0.00     0.004 A 
ATOM      3  C   UNL d   1      13.425  11.789  -3.305  0.00  0.00     0.004 A 
ATOM      4  C   UNL d   1      13.112  12.448  -4.537  0.00  0.00     0.100 A 
ATOM      5  C   UNL d   1      13.495  13.141  -4.257  0.00  0.00     0.025 A 
ATOM      6  C   UNL d   1      13.083  11.779  -4.055  0.00  0.00     0.025 A 
ENDROOT
BRANCH   1   7
ATOM      7  C   UNL d   1      14.144  12.476  -2.272  0.00  0.00     0.105 A 
ATOM      8  C   UNL d   1      15.041  13.277  -1.634  0.00  0.00     0.048 A 
ATOM      9  C   UNL d   1      14.981  12.819  -0.987  0.00  0.00     0.169 A 
ATOM     10  N   UNL d   1      14.504  12.192  -0.981  0.00  0.00    -0.142 NA
ATOM     11  N   UNL d   1      14.088  12.027  -1.630  0.00  0.00    -0.148 NA
BRANCH   9  12
ATOM     12  C   UNL d   1      15.407  13.000  -0.343  0.00  0.00     0.231 C 
ATOM     13  O   UNL d   1      15.343  13.718  -0.020  0.00  0.00    -0.643 OA
ATOM     14  O   UNL d   1      15.913  12.437  -0.015  0.00  0.00    -0.643 OA
ENDBRANCH   9  12
ENDBRANCH   1   7
BRANCH   4  15
ATOM     15  O   UNL d   1      12.769  12.446  -5.297  0.00  0.00    -0.305 OA
BRANCH  15  16
ATOM     16  C   UNL d   1      13.036  11.903  -5.860  0.00  0.00     0.123 C 
ATOM     17  C   UNL d   1      13.716  12.071  -6.308  0.00  0.00     0.029 C 
ENDBRANCH  15  16
ENDBRANCH   4  15
TORSDOF 4
ENDMDL
