MODEL 1
REMARK VINA RESULT:      -5.6      0.000      0.000
REMARK  7 active torsions:
REMARK  status: ('A' for Active; 'I' for Inactive)
REMARK    1  A    between atoms: N_3  and  C_2 
REMARK       I    between atoms: C_6  and  N_3 
REMARK    2  A    between atoms: C_11  and  C_4 
REMARK    3  A    between atoms: C_5  and  C_6 
REMARK    4  A    between atoms: C_15  and  C_11 
REMARK    5  A    between atoms: C_18  and  C_12 
REMARK    6  A    between atoms: O_17  and  C_18 
REMARK    7  A    between atoms: C_19  and  O_17 
ROOT
ATOM      1  C   UNL d   1     -44.283  12.875  21.767  0.00  0.00     0.158 A 
ATOM      2  O   UNL d   1     -43.848  13.452  21.374  0.00  0.00    -0.300 OA
ATOM      3  C   UNL d   1     -43.780  12.245  21.932  0.00  0.00     0.032 A 
ATOM      4  C   UNL d   1     -43.074  13.183  21.293  0.00  0.00     0.125 A 
ATOM      5  C   UNL d   1     -43.027  12.435  21.638  0.00  0.00     0.029 A 
ENDROOT
BRANCH   1   6
ATOM      6  C   UNL d   1     -45.088  12.918  21.964  0.00  0.00     0.304 C 
ATOM      7  N   UNL d   1     -45.317  12.916  22.757  0.00  0.00    -0.180 NA
ATOM      8  O   UNL d   1     -45.650  12.963  21.365  0.00  0.00    -0.263 OA
BRANCH   7   9
ATOM      9  C   UNL d   1     -46.118  12.959  22.954  0.00  0.00     0.216 A 
ATOM     10  N   UNL d   1     -46.592  12.320  23.213  0.00  0.00    -0.200 NA
ATOM     11  C   UNL d   1     -47.342  12.611  23.344  0.00  0.00     0.175 A 
ATOM     12  N   UNL d   1     -47.344  13.417  23.172  0.00  0.00    -0.187 NA
ATOM     13  S   UNL d   1     -46.580  13.630  22.930  0.00  0.00     0.054 SA
BRANCH  11  14
ATOM     14  C   UNL d   1     -47.990  12.179  23.603  0.00  0.00     0.082 C 
BRANCH  14  15
ATOM     15  C   UNL d   1     -48.429  11.729  23.062  0.00  0.00     0.199 C 
ATOM     16  O   UNL d   1     -48.176  10.970  22.854  0.00  0.00    -0.286 OA
ATOM     17  C   UNL d   1     -49.120  12.036  22.729  0.00  0.00     0.045 C 
ENDBRANCH  14  15
ENDBRANCH  11  14
ENDBRANCH   7   9
ENDBRANCH   1   6
BRANCH   4  18
ATOM     18  C   UNL d   1     -42.457  13.589  20.933  0.00  0.00     0.147 C 
BRANCH  18  19
ATOM     19  O   UNL d   1     -41.919  14.012  21.398  0.00  0.00    -0.303 OA
BRANCH  19  20
ATOM     20  C   UNL d   1     -41.352  14.489  21.040  0.00  0.00     0.100 A 
ATOM     21  C   UNL d   1     -40.627  14.164  20.795  0.00  0.00     0.025 A 
ATOM     22  C   UNL d   1     -40.061  14.641  20.437  0.00  0.00     0.002 A 
ATOM     23  C   UNL d   1     -40.217  15.443  20.323  0.00  0.00     0.000 A 
ATOM     24  C   UNL d   1     -40.938  15.768  20.566  0.00  0.00     0.002 A 
ATOM     25  C   UNL d   1     -41.505  15.292  20.924  0.00  0.00     0.025 A 
ENDBRANCH  19  20
ENDBRANCH  18  19
ENDBRANCH   4  18
TORSDOF 7
ENDMDL
MODEL 2
REMARK VINA RESULT:      -5.3      1.564      6.570
REMARK  7 active torsions:
REMARK  status: ('A' for Active; 'I' for Inactive)
REMARK    1  A    between atoms: N_3  and  C_2 
REMARK       I    between atoms: C_6  and  N_3 
REMARK    2  A    between atoms: C_11  and  C_4 
REMARK    3  A    between atoms: C_5  and  C_6 
REMARK    4  A    between atoms: C_15  and  C_11 
REMARK    5  A    between atoms: C_18  and  C_12 
REMARK    6  A    between atoms: O_17  and  C_18 
REMARK    7  A    between atoms: C_19  and  O_17 
ROOT
ATOM      1  C   UNL d   1     -46.196  13.377  22.611  0.00  0.00     0.158 A 
ATOM      2  O   UNL d   1     -46.904  12.963  22.541  0.00  0.00    -0.300 OA
ATOM      3  C   UNL d   1     -46.376  14.154  22.820  0.00  0.00     0.032 A 
ATOM      4  C   UNL d   1     -47.524  13.479  22.705  0.00  0.00     0.125 A 
ATOM      5  C   UNL d   1     -47.202  14.218  22.879  0.00  0.00     0.029 A 
ENDROOT
BRANCH   1   6
ATOM      6  C   UNL d   1     -45.435  13.070  22.494  0.00  0.00     0.304 C 
ATOM      7  N   UNL d   1     -44.971  13.351  21.871  0.00  0.00    -0.180 NA
ATOM      8  O   UNL d   1     -45.150  12.488  22.999  0.00  0.00    -0.263 OA
BRANCH   7   9
ATOM      9  C   UNL d   1     -44.213  13.046  21.752  0.00  0.00     0.216 A 
ATOM     10  N   UNL d   1     -43.516  13.496  21.652  0.00  0.00    -0.200 NA
ATOM     11  C   UNL d   1     -42.899  12.972  21.552  0.00  0.00     0.175 A 
ATOM     12  N   UNL d   1     -43.199  12.205  21.589  0.00  0.00    -0.187 NA
ATOM     13  S   UNL d   1     -44.018  12.255  21.713  0.00  0.00     0.054 SA
BRANCH  11  14
ATOM     14  C   UNL d   1     -42.111  13.168  21.435  0.00  0.00     0.082 C 
BRANCH  14  15
ATOM     15  C   UNL d   1     -41.899  13.663  20.803  0.00  0.00     0.199 C 
ATOM     16  O   UNL d   1     -41.997  13.404  20.024  0.00  0.00    -0.286 OA
ATOM     17  C   UNL d   1     -41.588  14.414  20.949  0.00  0.00     0.045 C 
ENDBRANCH  14  15
ENDBRANCH  11  14
ENDBRANCH   7   9
ENDBRANCH   1   6
BRANCH   4  18
ATOM     18  C   UNL d   1     -48.324  13.290  22.698  0.00  0.00     0.147 C 
BRANCH  18  19
ATOM     19  O   UNL d   1     -48.696  13.059  23.400  0.00  0.00    -0.303 OA
BRANCH  19  20
ATOM     20  C   UNL d   1     -49.485  12.824  23.389  0.00  0.00     0.100 A 
ATOM     21  C   UNL d   1     -50.089  13.394  23.359  0.00  0.00     0.025 A 
ATOM     22  C   UNL d   1     -50.878  13.160  23.347  0.00  0.00     0.002 A 
ATOM     23  C   UNL d   1     -51.064  12.356  23.367  0.00  0.00     0.000 A 
ATOM     24  C   UNL d   1     -50.464  11.788  23.397  0.00  0.00     0.002 A 
ATOM     25  C   UNL d   1     -49.675  12.022  23.408  0.00  0.00     0.025 A 
ENDBRANCH  19  20
ENDBRANCH  18  19
ENDBRANCH   4  18
TORSDOF 7
ENDMDL
MODEL 3
REMARK VINA RESULT:      -4.9      2.384      6.265
REMARK  7 active torsions:
REMARK  status: ('A' for Active; 'I' for Inactive)
REMARK    1  A    between atoms: N_3  and  C_2 
REMARK       I    between atoms: C_6  and  N_3 
REMARK    2  A    between atoms: C_11  and  C_4 
REMARK    3  A    between atoms: C_5  and  C_6 
REMARK    4  A    between atoms: C_15  and  C_11 
REMARK    5  A    between atoms: C_18  and  C_12 
REMARK    6  A    between atoms: O_17  and  C_18 
REMARK    7  A    between atoms: C_19  and  O_17 
ROOT
ATOM      1  C   UNL d   1     -43.039  13.087  21.353  0.00  0.00     0.158 A 
ATOM      2  O   UNL d   1     -43.797  13.408  21.379  0.00  0.00    -0.300 OA
ATOM      3  C   UNL d   1     -43.062  12.351  21.721  0.00  0.00     0.032 A 
ATOM      4  C   UNL d   1     -44.291  12.874  21.763  0.00  0.00     0.125 A 
ATOM      5  C   UNL d   1     -43.841  12.217  21.977  0.00  0.00     0.029 A 
ENDROOT
BRANCH   1   6
ATOM      6  C   UNL d   1     -42.369  13.441  21.015  0.00  0.00     0.304 C 
ATOM      7  N   UNL d   1     -41.964  14.030  21.428  0.00  0.00    -0.180 NA
ATOM      8  O   UNL d   1     -42.116  13.200  20.271  0.00  0.00    -0.263 OA
BRANCH   7   9
ATOM      9  C   UNL d   1     -41.297  14.382  21.094  0.00  0.00     0.216 A 
ATOM     10  N   UNL d   1     -41.275  15.130  20.720  0.00  0.00    -0.200 NA
ATOM     11  C   UNL d   1     -40.509  15.258  20.472  0.00  0.00     0.175 A 
ATOM     12  N   UNL d   1     -40.053  14.604  20.684  0.00  0.00    -0.187 NA
ATOM     13  S   UNL d   1     -40.548  14.061  21.071  0.00  0.00     0.054 SA
BRANCH  11  14
ATOM     14  C   UNL d   1     -40.231  15.922  20.079  0.00  0.00     0.082 C 
BRANCH  14  15
ATOM     15  C   UNL d   1     -40.129  15.900  19.255  0.00  0.00     0.199 C 
ATOM     16  O   UNL d   1     -40.788  15.921  18.756  0.00  0.00    -0.286 OA
ATOM     17  C   UNL d   1     -39.371  15.858  18.931  0.00  0.00     0.045 C 
ENDBRANCH  14  15
ENDBRANCH  11  14
ENDBRANCH   7   9
ENDBRANCH   1   6
BRANCH   4  18
ATOM     18  C   UNL d   1     -45.094  12.977  21.908  0.00  0.00     0.147 C 
BRANCH  18  19
ATOM     19  O   UNL d   1     -45.340  13.310  22.624  0.00  0.00    -0.303 OA
BRANCH  19  20
ATOM     20  C   UNL d   1     -46.141  13.446  22.760  0.00  0.00     0.100 A 
ATOM     21  C   UNL d   1     -46.645  12.812  22.948  0.00  0.00     0.025 A 
ATOM     22  C   UNL d   1     -47.445  12.948  23.084  0.00  0.00     0.002 A 
ATOM     23  C   UNL d   1     -47.742  13.716  23.033  0.00  0.00     0.000 A 
ATOM     24  C   UNL d   1     -47.241  14.347  22.847  0.00  0.00     0.002 A 
ATOM     25  C   UNL d   1     -46.441  14.213  22.711  0.00  0.00     0.025 A 
ENDBRANCH  19  20
ENDBRANCH  18  19
ENDBRANCH   4  18
TORSDOF 7
ENDMDL
MODEL 4
REMARK VINA RESULT:      -4.8      2.012      6.129
REMARK  7 active torsions:
REMARK  status: ('A' for Active; 'I' for Inactive)
REMARK    1  A    between atoms: N_3  and  C_2 
REMARK       I    between atoms: C_6  and  N_3 
REMARK    2  A    between atoms: C_11  and  C_4 
REMARK    3  A    between atoms: C_5  and  C_6 
REMARK    4  A    between atoms: C_15  and  C_11 
REMARK    5  A    between atoms: C_18  and  C_12 
REMARK    6  A    between atoms: O_17  and  C_18 
REMARK    7  A    between atoms: C_19  and  O_17 
ROOT
ATOM      1  C   UNL d   1     -45.669  12.895  22.672  0.00  0.00     0.158 A 
ATOM      2  O   UNL d   1     -46.144  13.554  22.539  0.00  0.00    -0.300 OA
ATOM      3  C   UNL d   1     -46.088  12.373  23.154  0.00  0.00     0.032 A 
ATOM      4  C   UNL d   1     -46.856  13.445  22.936  0.00  0.00     0.125 A 
ATOM      5  C   UNL d   1     -46.827  12.715  23.319  0.00  0.00     0.029 A 
ENDROOT
BRANCH   1   6
ATOM      6  C   UNL d   1     -44.905  12.774  22.375  0.00  0.00     0.304 C 
ATOM      7  N   UNL d   1     -44.584  13.310  21.835  0.00  0.00    -0.180 NA
ATOM      8  O   UNL d   1     -44.473  12.119  22.622  0.00  0.00    -0.263 OA
BRANCH   7   9
ATOM      9  C   UNL d   1     -43.823  13.191  21.539  0.00  0.00     0.216 A 
ATOM     10  N   UNL d   1     -43.148  13.649  21.725  0.00  0.00    -0.200 NA
ATOM     11  C   UNL d   1     -42.519  13.337  21.311  0.00  0.00     0.175 A 
ATOM     12  N   UNL d   1     -42.789  12.695  20.870  0.00  0.00    -0.187 NA
ATOM     13  S   UNL d   1     -43.601  12.607  21.015  0.00  0.00     0.054 SA
BRANCH  11  14
ATOM     14  C   UNL d   1     -41.746  13.612  21.325  0.00  0.00     0.082 C 
BRANCH  14  15
ATOM     15  C   UNL d   1     -41.527  14.253  20.845  0.00  0.00     0.199 C 
ATOM     16  O   UNL d   1     -41.736  15.022  21.063  0.00  0.00    -0.286 OA
ATOM     17  C   UNL d   1     -41.101  14.124  20.150  0.00  0.00     0.045 C 
ENDBRANCH  14  15
ENDBRANCH  11  14
ENDBRANCH   7   9
ENDBRANCH   1   6
BRANCH   4  18
ATOM     18  C   UNL d   1     -47.487  13.972  22.949  0.00  0.00     0.147 C 
BRANCH  18  19
ATOM     19  O   UNL d   1     -48.031  13.974  22.326  0.00  0.00    -0.303 OA
BRANCH  19  20
ATOM     20  C   UNL d   1     -48.745  14.376  22.405  0.00  0.00     0.100 A 
ATOM     21  C   UNL d   1     -48.762  15.131  22.752  0.00  0.00     0.025 A 
ATOM     22  C   UNL d   1     -49.476  15.533  22.832  0.00  0.00     0.002 A 
ATOM     23  C   UNL d   1     -50.172  15.181  22.564  0.00  0.00     0.000 A 
ATOM     24  C   UNL d   1     -50.157  14.430  22.218  0.00  0.00     0.002 A 
ATOM     25  C   UNL d   1     -49.444  14.028  22.139  0.00  0.00     0.025 A 
ENDBRANCH  19  20
ENDBRANCH  18  19
ENDBRANCH   4  18
TORSDOF 7
ENDMDL
MODEL 5
REMARK VINA RESULT:      -4.8      2.033      3.002
REMARK  7 active torsions:
REMARK  status: ('A' for Active; 'I' for Inactive)
REMARK    1  A    between atoms: N_3  and  C_2 
REMARK       I    between atoms: C_6  and  N_3 
REMARK    2  A    between atoms: C_11  and  C_4 
REMARK    3  A    between atoms: C_5  and  C_6 
REMARK    4  A    between atoms: C_15  and  C_11 
REMARK    5  A    between atoms: C_18  and  C_12 
REMARK    6  A    between atoms: O_17  and  C_18 
REMARK    7  A    between atoms: C_19  and  O_17 
ROOT
ATOM      1  C   UNL d   1     -42.047  13.590  20.777  0.00  0.00     0.158 A 
ATOM      2  O   UNL d   1     -41.836  13.768  20.002  0.00  0.00    -0.300 OA
ATOM      3  C   UNL d   1     -41.439  13.844  21.271  0.00  0.00     0.032 A 
ATOM      4  C   UNL d   1     -41.098  14.132  20.011  0.00  0.00     0.125 A 
ATOM      5  C   UNL d   1     -40.847  14.182  20.796  0.00  0.00     0.029 A 
ENDROOT
BRANCH   1   6
ATOM      6  C   UNL d   1     -42.747  13.219  21.021  0.00  0.00     0.304 C 
ATOM      7  N   UNL d   1     -43.189  13.542  21.639  0.00  0.00    -0.180 NA
ATOM      8  O   UNL d   1     -42.996  12.532  20.643  0.00  0.00    -0.263 OA
BRANCH   7   9
ATOM      9  C   UNL d   1     -43.887  13.175  21.883  0.00  0.00     0.216 A 
ATOM     10  N   UNL d   1     -44.646  13.525  21.892  0.00  0.00    -0.200 NA
ATOM     11  C   UNL d   1     -45.170  12.966  22.171  0.00  0.00     0.175 A 
ATOM     12  N   UNL d   1     -44.751  12.275  22.337  0.00  0.00    -0.187 NA
ATOM     13  S   UNL d   1     -43.952  12.409  22.156  0.00  0.00     0.054 SA
BRANCH  11  14
ATOM     14  C   UNL d   1     -45.977  13.067  22.273  0.00  0.00     0.082 C 
BRANCH  14  15
ATOM     15  C   UNL d   1     -46.263  13.454  22.950  0.00  0.00     0.199 C 
ATOM     16  O   UNL d   1     -46.186  13.100  23.692  0.00  0.00    -0.286 OA
ATOM     17  C   UNL d   1     -46.624  14.193  22.884  0.00  0.00     0.045 C 
ENDBRANCH  14  15
ENDBRANCH  11  14
ENDBRANCH   7   9
ENDBRANCH   1   6
BRANCH   4  18
ATOM     18  C   UNL d   1     -40.683  14.400  19.354  0.00  0.00     0.147 C 
BRANCH  18  19
ATOM     19  O   UNL d   1     -40.726  13.978  18.643  0.00  0.00    -0.303 OA
BRANCH  19  20
ATOM     20  C   UNL d   1     -40.287  14.224  17.992  0.00  0.00     0.100 A 
ATOM     21  C   UNL d   1     -40.559  14.850  17.519  0.00  0.00     0.025 A 
ATOM     22  C   UNL d   1     -40.119  15.096  16.867  0.00  0.00     0.002 A 
ATOM     23  C   UNL d   1     -39.409  14.716  16.689  0.00  0.00     0.000 A 
ATOM     24  C   UNL d   1     -39.138  14.092  17.160  0.00  0.00     0.002 A 
ATOM     25  C   UNL d   1     -39.576  13.846  17.811  0.00  0.00     0.025 A 
ENDBRANCH  19  20
ENDBRANCH  18  19
ENDBRANCH   4  18
TORSDOF 7
ENDMDL
