MODEL 1
REMARK VINA RESULT:      -3.9      0.000      0.000
REMARK  0 active torsions:
REMARK  status: ('A' for Active; 'I' for Inactive)
ROOT
ATOM      1  N   UNL d   1     -41.916-121.853 -54.146  0.00  0.00    -0.219 NA
ATOM      2  C   UNL d   1     -42.022-122.191 -54.891  0.00  0.00     0.215 A 
ATOM      3  S   UNL d   1     -41.741-122.960 -54.870  0.00  0.00    -0.045 SA
ATOM      4  C   UNL d   1     -41.566-122.423 -53.662  0.00  0.00     0.090 A 
ATOM      5  C   UNL d   1     -41.455-123.113 -54.108  0.00  0.00     0.050 A 
ATOM      6  N   UNL d   1     -42.356-121.815 -55.549  0.00  0.00    -0.120 N 
ATOM      7  C   UNL d   1     -41.359-122.327 -52.869  0.00  0.00     0.021 C 
ATOM      8  C   UNL d   1     -41.125-123.817 -53.848  0.00  0.00     0.009 C 
ENDROOT
TORSDOF 0
ENDMDL
MODEL 2
REMARK VINA RESULT:      -3.9      1.046      1.809
REMARK  0 active torsions:
REMARK  status: ('A' for Active; 'I' for Inactive)
ROOT
ATOM      1  N   UNL d   1     -41.748-121.955 -53.547  0.00  0.00    -0.219 NA
ATOM      2  C   UNL d   1     -41.378-122.351 -52.924  0.00  0.00     0.215 A 
ATOM      3  S   UNL d   1     -41.143-123.089 -53.189  0.00  0.00    -0.045 SA
ATOM      4  C   UNL d   1     -41.740-122.457 -54.201  0.00  0.00     0.090 A 
ATOM      5  C   UNL d   1     -41.364-123.164 -53.984  0.00  0.00     0.050 A 
ATOM      6  N   UNL d   1     -41.264-122.051 -52.161  0.00  0.00    -0.120 N 
ATOM      7  C   UNL d   1     -42.050-122.290 -54.948  0.00  0.00     0.021 C 
ATOM      8  C   UNL d   1     -41.234-123.817 -54.462  0.00  0.00     0.009 C 
ENDROOT
TORSDOF 0
ENDMDL
MODEL 3
REMARK VINA RESULT:      -3.0     10.340     10.465
REMARK  0 active torsions:
REMARK  status: ('A' for Active; 'I' for Inactive)
ROOT
ATOM      1  N   UNL d   1     -42.646-114.274 -47.717  0.00  0.00    -0.219 NA
ATOM      2  C   UNL d   1     -43.162-114.838 -47.405  0.00  0.00     0.215 A 
ATOM      3  S   UNL d   1     -42.722-115.389 -46.987  0.00  0.00    -0.045 SA
ATOM      4  C   UNL d   1     -41.882-114.481 -47.486  0.00  0.00     0.090 A 
ATOM      5  C   UNL d   1     -41.923-115.174 -47.032  0.00  0.00     0.050 A 
ATOM      6  N   UNL d   1     -43.984-114.846 -47.500  0.00  0.00    -0.120 N 
ATOM      7  C   UNL d   1     -41.189-114.073 -47.673  0.00  0.00     0.021 C 
ATOM      8  C   UNL d   1     -41.296-115.575 -46.690  0.00  0.00     0.009 C 
ENDROOT
TORSDOF 0
ENDMDL
MODEL 4
REMARK VINA RESULT:      -3.0      3.141      3.825
REMARK  0 active torsions:
REMARK  status: ('A' for Active; 'I' for Inactive)
ROOT
ATOM      1  N   UNL d   1     -42.278-122.191 -50.816  0.00  0.00    -0.219 NA
ATOM      2  C   UNL d   1     -41.570-122.322 -51.221  0.00  0.00     0.215 A 
ATOM      3  S   UNL d   1     -41.122-122.859 -50.795  0.00  0.00    -0.045 SA
ATOM      4  C   UNL d   1     -42.263-122.654 -50.133  0.00  0.00     0.090 A 
ATOM      5  C   UNL d   1     -41.546-123.071 -50.116  0.00  0.00     0.050 A 
ATOM      6  N   UNL d   1     -41.351-121.969 -51.938  0.00  0.00    -0.120 N 
ATOM      7  C   UNL d   1     -42.856-122.698 -49.562  0.00  0.00     0.021 C 
ATOM      8  C   UNL d   1     -41.299-123.597 -49.537  0.00  0.00     0.009 C 
ENDROOT
TORSDOF 0
ENDMDL
MODEL 5
REMARK VINA RESULT:      -2.8      3.566      4.172
REMARK  0 active torsions:
REMARK  status: ('A' for Active; 'I' for Inactive)
ROOT
ATOM      1  N   UNL d   1     -42.352-122.206 -50.309  0.00  0.00    -0.219 NA
ATOM      2  C   UNL d   1     -42.526-122.798 -49.761  0.00  0.00     0.215 A 
ATOM      3  S   UNL d   1     -42.096-123.467 -49.957  0.00  0.00    -0.045 SA
ATOM      4  C   UNL d   1     -41.808-122.515 -50.846  0.00  0.00     0.090 A 
ATOM      5  C   UNL d   1     -41.646-123.300 -50.632  0.00  0.00     0.050 A 
ATOM      6  N   UNL d   1     -43.048-122.728 -49.122  0.00  0.00    -0.120 N 
ATOM      7  C   UNL d   1     -41.478-122.118 -51.490  0.00  0.00     0.021 C 
ATOM      8  C   UNL d   1     -41.137-123.817 -51.013  0.00  0.00     0.009 C 
ENDROOT
TORSDOF 0
ENDMDL
MODEL 6
REMARK VINA RESULT:      -2.8      3.160      3.748
REMARK  0 active torsions:
REMARK  status: ('A' for Active; 'I' for Inactive)
ROOT
ATOM      1  N   UNL d   1     -41.897-123.514 -50.782  0.00  0.00    -0.219 NA
ATOM      2  C   UNL d   1     -42.153-122.860 -50.349  0.00  0.00     0.215 A 
ATOM      3  S   UNL d   1     -41.897-122.181 -50.728  0.00  0.00    -0.045 SA
ATOM      4  C   UNL d   1     -41.481-123.232 -51.436  0.00  0.00     0.090 A 
ATOM      5  C   UNL d   1     -41.478-122.404 -51.407  0.00  0.00     0.050 A 
ATOM      6  N   UNL d   1     -42.593-122.887 -49.647  0.00  0.00    -0.120 N 
ATOM      7  C   UNL d   1     -41.125-123.692 -52.022  0.00  0.00     0.021 C 
ATOM      8  C   UNL d   1     -41.127-121.895 -51.946  0.00  0.00     0.009 C 
ENDROOT
TORSDOF 0
ENDMDL
MODEL 7
REMARK VINA RESULT:      -2.5      3.562      4.302
REMARK  0 active torsions:
REMARK  status: ('A' for Active; 'I' for Inactive)
ROOT
ATOM      1  N   UNL d   1     -41.123-122.957 -50.340  0.00  0.00    -0.219 NA
ATOM      2  C   UNL d   1     -41.545-122.413 -50.794  0.00  0.00     0.215 A 
ATOM      3  S   UNL d   1     -42.288-122.318 -50.462  0.00  0.00    -0.045 SA
ATOM      4  C   UNL d   1     -41.613-123.199 -49.722  0.00  0.00     0.090 A 
ATOM      5  C   UNL d   1     -42.339-122.804 -49.793  0.00  0.00     0.050 A 
ATOM      6  N   UNL d   1     -41.265-122.028 -51.472  0.00  0.00    -0.120 N 
ATOM      7  C   UNL d   1     -41.419-123.740 -49.130  0.00  0.00     0.021 C 
ATOM      8  C   UNL d   1     -42.988-122.877 -49.298  0.00  0.00     0.009 C 
ENDROOT
TORSDOF 0
ENDMDL
MODEL 8
REMARK VINA RESULT:      -2.1      5.139      5.888
REMARK  0 active torsions:
REMARK  status: ('A' for Active; 'I' for Inactive)
ROOT
ATOM      1  N   UNL d   1     -41.343-123.454 -48.557  0.00  0.00    -0.219 NA
ATOM      2  C   UNL d   1     -41.937-123.432 -47.983  0.00  0.00     0.215 A 
ATOM      3  S   UNL d   1     -42.622-123.147 -48.330  0.00  0.00    -0.045 SA
ATOM      4  C   UNL d   1     -41.668-123.179 -49.263  0.00  0.00     0.090 A 
ATOM      5  C   UNL d   1     -42.464-122.987 -49.127  0.00  0.00     0.050 A 
ATOM      6  N   UNL d   1     -41.853-123.660 -47.192  0.00  0.00    -0.120 N 
ATOM      7  C   UNL d   1     -41.275-123.106 -49.984  0.00  0.00     0.021 C 
ATOM      8  C   UNL d   1     -42.997-122.693 -49.676  0.00  0.00     0.009 C 
ENDROOT
TORSDOF 0
ENDMDL
