MODEL 1
REMARK VINA RESULT:      63.0      0.000      0.000
REMARK  5 active torsions:
REMARK  status: ('A' for Active; 'I' for Inactive)
REMARK    1  A    between atoms: N_2  and  S_1 
REMARK    2  A    between atoms: C_4  and  S_1 
REMARK    3  A    between atoms: C_3  and  C_8 
REMARK       I    between atoms: N_7  and  C_3 
REMARK    4  A    between atoms: C_16  and  N_7 
REMARK    5  A    between atoms: C_15  and  C_16 
ROOT
ATOM      1  C   UNL d   1     -49.481  27.764  34.293  0.00  0.00     0.104 A 
ATOM      2  C   UNL d   1     -48.558  29.030  34.803  0.00  0.00     0.058 A 
ATOM      3  C   UNL d   1     -49.558  28.503  33.934  0.00  0.00     0.013 A 
ATOM      4  C   UNL d   1     -48.929  27.666  34.917  0.00  0.00     0.013 A 
ATOM      5  C   UNL d   1     -49.107  29.138  34.177  0.00  0.00     0.005 A 
ATOM      6  C   UNL d   1     -48.469  28.314  35.166  0.00  0.00     0.005 A 
ENDROOT
BRANCH   2   7
ATOM      7  C   UNL d   1     -48.077  29.688  35.069  0.00  0.00     0.279 C 
ATOM      8  N   UNL d   1     -48.110  30.398  34.636  0.00  0.00    -0.206 NA
ATOM      9  O   UNL d   1     -47.611  29.608  35.721  0.00  0.00    -0.265 OA
BRANCH   8  10
ATOM     10  C   UNL d   1     -47.657  31.030  34.882  0.00  0.00     0.104 C 
BRANCH  10  11
ATOM     11  C   UNL d   1     -47.683  31.726  34.466  0.00  0.00     0.038 A 
ATOM     12  C   UNL d   1     -46.991  32.170  34.337  0.00  0.00     0.101 A 
ATOM     13  N   UNL d   1     -47.016  32.866  33.921  0.00  0.00    -0.242 NA
ATOM     14  C   UNL d   1     -47.736  33.143  33.620  0.00  0.00     0.099 A 
ATOM     15  C   UNL d   1     -48.422  32.713  33.742  0.00  0.00     0.021 A 
ATOM     16  C   UNL d   1     -48.389  31.995  34.172  0.00  0.00     0.005 A 
ENDBRANCH  10  11
ENDBRANCH   8  10
ENDBRANCH   2   7
BRANCH   1  17
ATOM     17  S   UNL d   1     -49.941  27.116  34.044  0.00  0.00     0.271 S 
ATOM     18  O   UNL d   1     -50.501  27.282  34.637  0.00  0.00    -0.200 OA
ATOM     19  O   UNL d   1     -49.367  26.946  33.435  0.00  0.00    -0.200 OA
BRANCH  17  20
ATOM     20  N   UNL d   1     -50.401  26.465  33.792  0.00  0.00    -0.229 N 
ATOM     21  C   UNL d   1     -50.021  25.776  33.552  0.00  0.00     0.092 A 
ATOM     22  C   UNL d   1     -50.471  25.142  33.306  0.00  0.00     0.020 A 
ATOM     23  C   UNL d   1     -51.309  25.211  33.306  0.00  0.00     0.003 A 
ATOM     24  C   UNL d   1     -51.672  25.896  33.545  0.00  0.00     0.020 A 
ATOM     25  C   UNL d   1     -51.214  26.525  33.789  0.00  0.00     0.092 A 
ENDBRANCH  17  20
ENDBRANCH   1  17
TORSDOF 5
ENDMDL
