MODEL 1
REMARK VINA RESULT:      -2.7      0.000      0.000
REMARK  4 active torsions:
REMARK  status: ('A' for Active; 'I' for Inactive)
REMARK    1  A    between atoms: C_7  and  C_4 
REMARK    2  A    between atoms: C_8  and  C_5 
REMARK    3  A    between atoms: S_9  and  C_6 
REMARK    4  A    between atoms: C_14  and  S_9 
ROOT
ATOM      1  N   UNL d   1      32.897  17.316 -23.584  0.00  0.00    -0.200 NA
ATOM      2  N   UNL d   1      31.701  17.987 -23.919  0.00  0.00    -0.202 NA
ATOM      3  N   UNL d   1      31.758  16.558 -23.968  0.00  0.00    -0.206 NA
ATOM      4  C   UNL d   1      32.558  16.598 -23.721  0.00  0.00     0.187 A 
ATOM      5  C   UNL d   1      31.344  17.257 -24.063  0.00  0.00     0.166 A 
ATOM      6  C   UNL d   1      32.471  18.007 -23.682  0.00  0.00     0.197 A 
ENDROOT
BRANCH   5   7
ATOM      7  C   UNL d   1      30.556  17.225 -24.305  0.00  0.00     0.036 A 
ATOM      8  C   UNL d   1      30.293  17.755 -24.853  0.00  0.00     0.003 A 
ATOM      9  C   UNL d   1      29.505  17.723 -25.096  0.00  0.00     0.000 A 
ATOM     10  C   UNL d   1      28.997  17.154 -24.779  0.00  0.00     0.000 A 
ATOM     11  C   UNL d   1      29.277  16.616 -24.219  0.00  0.00     0.000 A 
ATOM     12  C   UNL d   1      30.048  16.656 -23.988  0.00  0.00     0.003 A 
ENDBRANCH   5   7
BRANCH   6  13
ATOM     13  S   UNL d   1      32.833  18.763 -23.536  0.00  0.00    -0.048 SA
BRANCH  13  14
ATOM     14  C   UNL d   1      33.100  18.962 -22.777  0.00  0.00     0.038 C 
ATOM     15  C   UNL d   1      33.202  19.755 -22.562  0.00  0.00     0.008 C 
ENDBRANCH  13  14
ENDBRANCH   6  13
BRANCH   4  16
ATOM     16  C   UNL d   1      33.005  15.916 -23.616  0.00  0.00     0.151 C 
ATOM     17 CL   UNL d   1      33.206  15.474 -24.264  0.00  0.00    -0.067 Cl
ATOM     18 CL   UNL d   1      33.241  15.689 -22.882  0.00  0.00    -0.067 Cl
ENDBRANCH   4  16
TORSDOF 4
ENDMDL
MODEL 2
REMARK VINA RESULT:      -1.9      5.325      7.507
REMARK  4 active torsions:
REMARK  status: ('A' for Active; 'I' for Inactive)
REMARK    1  A    between atoms: C_7  and  C_4 
REMARK    2  A    between atoms: C_8  and  C_5 
REMARK    3  A    between atoms: S_9  and  C_6 
REMARK    4  A    between atoms: C_14  and  S_9 
ROOT
ATOM      1  N   UNL d   1      32.621  22.183 -20.986  0.00  0.00    -0.200 NA
ATOM      2  N   UNL d   1      33.084  21.817 -19.703  0.00  0.00    -0.202 NA
ATOM      3  N   UNL d   1      32.494  23.104 -19.911  0.00  0.00    -0.206 NA
ATOM      4  C   UNL d   1      32.383  22.905 -20.717  0.00  0.00     0.187 A 
ATOM      5  C   UNL d   1      32.844  22.553 -19.418  0.00  0.00     0.166 A 
ATOM      6  C   UNL d   1      32.970  21.642 -20.482  0.00  0.00     0.197 A 
ENDROOT
BRANCH   5   7
ATOM      7  C   UNL d   1      32.957  22.742 -18.623  0.00  0.00     0.036 A 
ATOM      8  C   UNL d   1      32.895  23.511 -18.390  0.00  0.00     0.003 A 
ATOM      9  C   UNL d   1      33.008  23.700 -17.595  0.00  0.00     0.000 A 
ATOM     10  C   UNL d   1      33.180  23.105 -17.049  0.00  0.00     0.000 A 
ATOM     11  C   UNL d   1      33.241  22.321 -17.298  0.00  0.00     0.000 A 
ATOM     12  C   UNL d   1      33.129  22.147 -18.077  0.00  0.00     0.003 A 
ENDBRANCH   5   7
BRANCH   6  13
ATOM     13  S   UNL d   1      33.219  20.881 -20.770  0.00  0.00    -0.048 SA
BRANCH  13  14
ATOM     14  C   UNL d   1      32.888  20.563 -21.460  0.00  0.00     0.038 C 
ATOM     15  C   UNL d   1      33.197  19.871 -21.794  0.00  0.00     0.008 C 
ENDBRANCH  13  14
ENDBRANCH   6  13
BRANCH   4  16
ATOM     16  C   UNL d   1      32.035  23.434 -21.242  0.00  0.00     0.151 C 
ATOM     17 CL   UNL d   1      31.284  23.696 -21.095  0.00  0.00    -0.067 Cl
ATOM     18 CL   UNL d   1      32.433  23.689 -21.892  0.00  0.00    -0.067 Cl
ENDBRANCH   4  16
TORSDOF 4
ENDMDL
MODEL 3
REMARK VINA RESULT:      -1.9      4.590      5.692
REMARK  4 active torsions:
REMARK  status: ('A' for Active; 'I' for Inactive)
REMARK    1  A    between atoms: C_7  and  C_4 
REMARK    2  A    between atoms: C_8  and  C_5 
REMARK    3  A    between atoms: S_9  and  C_6 
REMARK    4  A    between atoms: C_14  and  S_9 
ROOT
ATOM      1  N   UNL d   1      32.830  22.929 -21.721  0.00  0.00    -0.200 NA
ATOM      2  N   UNL d   1      33.154  21.816 -22.528  0.00  0.00    -0.202 NA
ATOM      3  N   UNL d   1      32.753  21.622 -21.168  0.00  0.00    -0.206 NA
ATOM      4  C   UNL d   1      32.671  22.452 -21.091  0.00  0.00     0.187 A 
ATOM      5  C   UNL d   1      32.994  21.319 -21.889  0.00  0.00     0.166 A 
ATOM      6  C   UNL d   1      33.070  22.613 -22.436  0.00  0.00     0.197 A 
ENDROOT
BRANCH   5   7
ATOM      7  C   UNL d   1      33.077  20.503 -21.973  0.00  0.00     0.036 A 
ATOM      8  C   UNL d   1      33.130  20.045 -21.312  0.00  0.00     0.003 A 
ATOM      9  C   UNL d   1      33.213  19.228 -21.396  0.00  0.00     0.000 A 
ATOM     10  C   UNL d   1      33.241  18.890 -22.149  0.00  0.00     0.000 A 
ATOM     11  C   UNL d   1      33.186  19.368 -22.818  0.00  0.00     0.000 A 
ATOM     12  C   UNL d   1      33.105  20.165 -22.726  0.00  0.00     0.003 A 
ENDBRANCH   5   7
BRANCH   6  13
ATOM     13  S   UNL d   1      33.237  23.120 -23.098  0.00  0.00    -0.048 SA
BRANCH  13  14
ATOM     14  C   UNL d   1      32.652  23.279 -23.664  0.00  0.00     0.038 C 
ATOM     15  C   UNL d   1      32.839  23.697 -24.354  0.00  0.00     0.008 C 
ENDBRANCH  13  14
ENDBRANCH   6  13
BRANCH   4  16
ATOM     16  C   UNL d   1      32.431  22.791 -20.381  0.00  0.00     0.151 C 
ATOM     17 CL   UNL d   1      31.672  23.063 -20.312  0.00  0.00    -0.067 Cl
ATOM     18 CL   UNL d   1      32.941  22.853 -19.762  0.00  0.00    -0.067 Cl
ENDBRANCH   4  16
TORSDOF 4
ENDMDL
MODEL 4
REMARK VINA RESULT:      -1.6      2.280      3.548
REMARK  4 active torsions:
REMARK  status: ('A' for Active; 'I' for Inactive)
REMARK    1  A    between atoms: C_7  and  C_4 
REMARK    2  A    between atoms: C_8  and  C_5 
REMARK    3  A    between atoms: S_9  and  C_6 
REMARK    4  A    between atoms: C_14  and  S_9 
ROOT
ATOM      1  N   UNL d   1      29.198  16.622 -24.083  0.00  0.00    -0.200 NA
ATOM      2  N   UNL d   1      30.502  16.875 -24.564  0.00  0.00    -0.202 NA
ATOM      3  N   UNL d   1      30.289  15.875 -23.562  0.00  0.00    -0.206 NA
ATOM      4  C   UNL d   1      29.470  16.052 -23.583  0.00  0.00     0.187 A 
ATOM      5  C   UNL d   1      30.791  16.293 -24.056  0.00  0.00     0.166 A 
ATOM      6  C   UNL d   1      29.711  17.032 -24.571  0.00  0.00     0.197 A 
ENDROOT
BRANCH   5   7
ATOM      7  C   UNL d   1      31.598  16.124 -24.041  0.00  0.00     0.036 A 
ATOM      8  C   UNL d   1      31.913  15.662 -24.621  0.00  0.00     0.003 A 
ATOM      9  C   UNL d   1      32.720  15.493 -24.606  0.00  0.00     0.000 A 
ATOM     10  C   UNL d   1      33.195  15.797 -24.002  0.00  0.00     0.000 A 
ATOM     11  C   UNL d   1      32.862  16.269 -23.413  0.00  0.00     0.000 A 
ATOM     12  C   UNL d   1      32.073  16.428 -23.437  0.00  0.00     0.003 A 
ENDBRANCH   5   7
BRANCH   6  13
ATOM     13  S   UNL d   1      29.419  17.633 -25.097  0.00  0.00    -0.048 SA
BRANCH  13  14
ATOM     14  C   UNL d   1      29.411  18.428 -24.863  0.00  0.00     0.038 C 
ATOM     15  C   UNL d   1      28.778  18.921 -25.072  0.00  0.00     0.008 C 
ENDBRANCH  13  14
ENDBRANCH   6  13
BRANCH   4  16
ATOM     16  C   UNL d   1      28.937  15.652 -23.101  0.00  0.00     0.151 C 
ATOM     17 CL   UNL d   1      29.156  15.461 -22.345  0.00  0.00    -0.067 Cl
ATOM     18 CL   UNL d   1      28.207  15.453 -23.373  0.00  0.00    -0.067 Cl
ENDBRANCH   4  16
TORSDOF 4
ENDMDL
MODEL 5
REMARK VINA RESULT:      -1.1      4.607      5.673
REMARK  4 active torsions:
REMARK  status: ('A' for Active; 'I' for Inactive)
REMARK    1  A    between atoms: C_7  and  C_4 
REMARK    2  A    between atoms: C_8  and  C_5 
REMARK    3  A    between atoms: S_9  and  C_6 
REMARK    4  A    between atoms: C_14  and  S_9 
ROOT
ATOM      1  N   UNL d   1      33.186  21.422 -20.868  0.00  0.00    -0.200 NA
ATOM      2  N   UNL d   1      33.227  22.609 -21.632  0.00  0.00    -0.202 NA
ATOM      3  N   UNL d   1      33.174  21.338 -22.286  0.00  0.00    -0.206 NA
ATOM      4  C   UNL d   1      33.164  20.969 -21.534  0.00  0.00     0.187 A 
ATOM      5  C   UNL d   1      33.205  22.155 -22.320  0.00  0.00     0.166 A 
ATOM      6  C   UNL d   1      33.217  22.238 -20.916  0.00  0.00     0.197 A 
ENDROOT
BRANCH   5   7
ATOM      7  C   UNL d   1      33.215  22.525 -23.057  0.00  0.00     0.036 A 
ATOM      8  C   UNL d   1      33.210  23.330 -23.092  0.00  0.00     0.003 A 
ATOM      9  C   UNL d   1      33.220  23.700 -23.829  0.00  0.00     0.000 A 
ATOM     10  C   UNL d   1      33.235  23.246 -24.519  0.00  0.00     0.000 A 
ATOM     11  C   UNL d   1      33.241  22.423 -24.472  0.00  0.00     0.000 A 
ATOM     12  C   UNL d   1      33.231  22.071 -23.747  0.00  0.00     0.003 A 
ENDBRANCH   5   7
BRANCH   6  13
ATOM     13  S   UNL d   1      33.240  22.712 -20.210  0.00  0.00    -0.048 SA
BRANCH  13  14
ATOM     14  C   UNL d   1      32.559  22.810 -19.747  0.00  0.00     0.038 C 
ATOM     15  C   UNL d   1      32.531  23.394 -19.161  0.00  0.00     0.008 C 
ENDBRANCH  13  14
ENDBRANCH   6  13
BRANCH   4  16
ATOM     16  C   UNL d   1      33.133  20.150 -21.462  0.00  0.00     0.151 C 
ATOM     17 CL   UNL d   1      33.036  19.701 -22.128  0.00  0.00    -0.067 Cl
ATOM     18 CL   UNL d   1      33.197  19.799 -20.742  0.00  0.00    -0.067 Cl
ENDBRANCH   4  16
TORSDOF 4
ENDMDL
MODEL 6
REMARK VINA RESULT:      -1.0      2.650      4.099
REMARK  4 active torsions:
REMARK  status: ('A' for Active; 'I' for Inactive)
REMARK    1  A    between atoms: C_7  and  C_4 
REMARK    2  A    between atoms: C_8  and  C_5 
REMARK    3  A    between atoms: S_9  and  C_6 
REMARK    4  A    between atoms: C_14  and  S_9 
ROOT
ATOM      1  N   UNL d   1      29.062  16.757 -24.474  0.00  0.00    -0.200 NA
ATOM      2  N   UNL d   1      29.975  15.737 -24.129  0.00  0.00    -0.202 NA
ATOM      3  N   UNL d   1      30.456  16.991 -24.620  0.00  0.00    -0.206 NA
ATOM      4  C   UNL d   1      29.662  17.252 -24.685  0.00  0.00     0.187 A 
ATOM      5  C   UNL d   1      30.597  16.235 -24.341  0.00  0.00     0.166 A 
ATOM      6  C   UNL d   1      29.218  16.003 -24.197  0.00  0.00     0.197 A 
ENDROOT
BRANCH   5   7
ATOM      7  C   UNL d   1      31.376  15.972 -24.275  0.00  0.00     0.036 A 
ATOM      8  C   UNL d   1      31.690  15.859 -23.542  0.00  0.00     0.003 A 
ATOM      9  C   UNL d   1      32.469  15.596 -23.475  0.00  0.00     0.000 A 
ATOM     10  C   UNL d   1      32.917  15.453 -24.154  0.00  0.00     0.000 A 
ATOM     11  C   UNL d   1      32.585  15.572 -24.900  0.00  0.00     0.000 A 
ATOM     12  C   UNL d   1      31.823  15.829 -24.954  0.00  0.00     0.003 A 
ENDBRANCH   5   7
BRANCH   6  13
ATOM     13  S   UNL d   1      28.581  15.484 -23.976  0.00  0.00    -0.048 SA
BRANCH  13  14
ATOM     14  C   UNL d   1      28.134  15.633 -23.294  0.00  0.00     0.038 C 
ATOM     15  C   UNL d   1      27.323  15.461 -23.277  0.00  0.00     0.008 C 
ENDBRANCH  13  14
ENDBRANCH   6  13
BRANCH   4  16
ATOM     16  C   UNL d   1      29.483  18.005 -24.960  0.00  0.00     0.151 C 
ATOM     17 CL   UNL d   1      30.085  18.529 -25.095  0.00  0.00    -0.067 Cl
ATOM     18 CL   UNL d   1      28.720  18.223 -25.096  0.00  0.00    -0.067 Cl
ENDBRANCH   4  16
TORSDOF 4
ENDMDL
MODEL 7
REMARK VINA RESULT:      -0.8      3.921      5.019
REMARK  4 active torsions:
REMARK  status: ('A' for Active; 'I' for Inactive)
REMARK    1  A    between atoms: C_7  and  C_4 
REMARK    2  A    between atoms: C_8  and  C_5 
REMARK    3  A    between atoms: S_9  and  C_6 
REMARK    4  A    between atoms: C_14  and  S_9 
ROOT
ATOM      1  N   UNL d   1      33.120  22.158 -21.893  0.00  0.00    -0.200 NA
ATOM      2  N   UNL d   1      33.122  20.787 -21.554  0.00  0.00    -0.202 NA
ATOM      3  N   UNL d   1      33.188  21.185 -22.927  0.00  0.00    -0.206 NA
ATOM      4  C   UNL d   1      33.164  21.985 -22.679  0.00  0.00     0.187 A 
ATOM      5  C   UNL d   1      33.166  20.600 -22.356  0.00  0.00     0.166 A 
ATOM      6  C   UNL d   1      33.099  21.562 -21.334  0.00  0.00     0.197 A 
ENDROOT
BRANCH   5   7
ATOM      7  C   UNL d   1      33.190  19.810 -22.593  0.00  0.00     0.036 A 
ATOM      8  C   UNL d   1      33.186  19.636 -23.380  0.00  0.00     0.003 A 
ATOM      9  C   UNL d   1      33.209  18.846 -23.616  0.00  0.00     0.000 A 
ATOM     10  C   UNL d   1      33.237  18.245 -23.050  0.00  0.00     0.000 A 
ATOM     11  C   UNL d   1      33.241  18.434 -22.247  0.00  0.00     0.000 A 
ATOM     12  C   UNL d   1      33.218  19.209 -22.026  0.00  0.00     0.003 A 
ENDBRANCH   5   7
BRANCH   6  13
ATOM     13  S   UNL d   1      33.053  21.749 -20.505  0.00  0.00    -0.048 SA
BRANCH  13  14
ATOM     14  C   UNL d   1      32.675  22.441 -20.250  0.00  0.00     0.038 C 
ATOM     15  C   UNL d   1      32.636  22.626 -19.443  0.00  0.00     0.008 C 
ENDBRANCH  13  14
ENDBRANCH   6  13
BRANCH   4  16
ATOM     16  C   UNL d   1      33.184  22.600 -23.225  0.00  0.00     0.151 C 
ATOM     17 CL   UNL d   1      33.240  22.425 -24.013  0.00  0.00    -0.067 Cl
ATOM     18 CL   UNL d   1      33.148  23.366 -22.982  0.00  0.00    -0.067 Cl
ENDBRANCH   4  16
TORSDOF 4
ENDMDL
MODEL 8
REMARK VINA RESULT:      -0.8      1.651      3.619
REMARK  4 active torsions:
REMARK  status: ('A' for Active; 'I' for Inactive)
REMARK    1  A    between atoms: C_7  and  C_4 
REMARK    2  A    between atoms: C_8  and  C_5 
REMARK    3  A    between atoms: S_9  and  C_6 
REMARK    4  A    between atoms: C_14  and  S_9 
ROOT
ATOM      1  N   UNL d   1      32.064  17.361 -23.967  0.00  0.00    -0.200 NA
ATOM      2  N   UNL d   1      32.992  18.116 -23.216  0.00  0.00    -0.202 NA
ATOM      3  N   UNL d   1      31.833  18.749 -23.767  0.00  0.00    -0.206 NA
ATOM      4  C   UNL d   1      31.602  18.010 -24.089  0.00  0.00     0.187 A 
ATOM      5  C   UNL d   1      32.526  18.787 -23.335  0.00  0.00     0.166 A 
ATOM      6  C   UNL d   1      32.755  17.414 -23.532  0.00  0.00     0.197 A 
ENDROOT
BRANCH   5   7
ATOM      7  C   UNL d   1      32.759  19.511 -23.016  0.00  0.00     0.036 A 
ATOM      8  C   UNL d   1      32.737  19.612 -22.217  0.00  0.00     0.003 A 
ATOM      9  C   UNL d   1      32.970  20.336 -21.897  0.00  0.00     0.000 A 
ATOM     10  C   UNL d   1      33.222  20.946 -22.395  0.00  0.00     0.000 A 
ATOM     11  C   UNL d   1      33.241  20.831 -23.211  0.00  0.00     0.000 A 
ATOM     12  C   UNL d   1      33.011  20.120 -23.513  0.00  0.00     0.003 A 
ENDBRANCH   5   7
BRANCH   6  13
ATOM     13  S   UNL d   1      33.240  16.725 -23.406  0.00  0.00    -0.048 SA
BRANCH  13  14
ATOM     14  C   UNL d   1      33.165  16.280 -22.711  0.00  0.00     0.038 C 
ATOM     15  C   UNL d   1      33.183  15.453 -22.738  0.00  0.00     0.008 C 
ENDBRANCH  13  14
ENDBRANCH   6  13
BRANCH   4  16
ATOM     16  C   UNL d   1      30.911  17.934 -24.528  0.00  0.00     0.151 C 
ATOM     17 CL   UNL d   1      30.420  17.308 -24.384  0.00  0.00    -0.067 Cl
ATOM     18 CL   UNL d   1      30.724  18.474 -25.094  0.00  0.00    -0.067 Cl
ENDBRANCH   4  16
TORSDOF 4
ENDMDL
MODEL 9
REMARK VINA RESULT:      -0.6      1.517      2.283
REMARK  4 active torsions:
REMARK  status: ('A' for Active; 'I' for Inactive)
REMARK    1  A    between atoms: C_7  and  C_4 
REMARK    2  A    between atoms: C_8  and  C_5 
REMARK    3  A    between atoms: S_9  and  C_6 
REMARK    4  A    between atoms: C_14  and  S_9 
ROOT
ATOM      1  N   UNL d   1      32.666  17.373 -23.673  0.00  0.00    -0.200 NA
ATOM      2  N   UNL d   1      31.645  16.472 -24.049  0.00  0.00    -0.202 NA
ATOM      3  N   UNL d   1      31.421  17.883 -24.128  0.00  0.00    -0.206 NA
ATOM      4  C   UNL d   1      32.199  18.007 -23.843  0.00  0.00     0.187 A 
ATOM      5  C   UNL d   1      31.158  17.114 -24.226  0.00  0.00     0.166 A 
ATOM      6  C   UNL d   1      32.391  16.609 -23.776  0.00  0.00     0.197 A 
ENDROOT
BRANCH   5   7
ATOM      7  C   UNL d   1      30.393  16.985 -24.506  0.00  0.00     0.036 A 
ATOM      8  C   UNL d   1      30.133  16.228 -24.599  0.00  0.00     0.003 A 
ATOM      9  C   UNL d   1      29.368  16.099 -24.880  0.00  0.00     0.000 A 
ATOM     10  C   UNL d   1      28.880  16.741 -25.060  0.00  0.00     0.000 A 
ATOM     11  C   UNL d   1      29.156  17.511 -24.961  0.00  0.00     0.000 A 
ATOM     12  C   UNL d   1      29.905  17.627 -24.687  0.00  0.00     0.003 A 
ENDBRANCH   5   7
BRANCH   6  13
ATOM     13  S   UNL d   1      32.888  15.943 -23.595  0.00  0.00    -0.048 SA
BRANCH  13  14
ATOM     14  C   UNL d   1      32.724  15.460 -22.942  0.00  0.00     0.038 C 
ATOM     15  C   UNL d   1      33.230  15.453 -22.286  0.00  0.00     0.008 C 
ENDBRANCH  13  14
ENDBRANCH   6  13
BRANCH   4  16
ATOM     16  C   UNL d   1      32.496  18.766 -23.733  0.00  0.00     0.151 C 
ATOM     17 CL   UNL d   1      32.331  19.156 -23.044  0.00  0.00    -0.067 Cl
ATOM     18 CL   UNL d   1      32.944  19.118 -24.301  0.00  0.00    -0.067 Cl
ENDBRANCH   4  16
TORSDOF 4
ENDMDL
