MODEL 1
REMARK VINA RESULT:     106.2      0.000      0.000
REMARK  4 active torsions:
REMARK  status: ('A' for Active; 'I' for Inactive)
REMARK    1  A    between atoms: S_4  and  C_1 
REMARK    2  A    between atoms: N_7  and  C_3 
REMARK    3  A    between atoms: C_11  and  S_4 
REMARK    4  A    between atoms: C_8  and  C_6 
ROOT
ATOM      1  C   UNL d   1      60.979  48.412  51.303  0.00  0.00     0.210 A 
ATOM      2  N   UNL d   1      61.450  48.563  51.959  0.00  0.00    -0.205 NA
ATOM      3  C   UNL d   1      60.492  49.066  51.181  0.00  0.00     0.199 A 
ATOM      4  O   UNL d   1      60.667  49.620  51.764  0.00  0.00    -0.268 OA
ATOM      5  C   UNL d   1      61.256  49.311  52.243  0.00  0.00     0.208 A 
ENDROOT
BRANCH   1   6
ATOM      6  S   UNL d   1      61.047  47.699  50.894  0.00  0.00     0.230 S 
ATOM      7  O   UNL d   1      61.596  47.615  50.290  0.00  0.00    -0.215 OA
ATOM      8  O   UNL d   1      60.555  47.061  51.095  0.00  0.00    -0.215 OA
BRANCH   6   9
ATOM      9  C   UNL d   1      61.108  46.984  50.491  0.00  0.00     0.090 A 
ATOM     10  C   UNL d   1      60.670  46.337  50.743  0.00  0.00     0.011 A 
ATOM     11  C   UNL d   1      60.725  45.612  50.343  0.00  0.00     0.001 A 
ATOM     12  C   UNL d   1      61.224  45.546  49.687  0.00  0.00     0.000 A 
ATOM     13  C   UNL d   1      61.666  46.200  49.432  0.00  0.00     0.001 A 
ATOM     14  C   UNL d   1      61.606  46.918  49.835  0.00  0.00     0.011 A 
ENDBRANCH   6   9
ENDBRANCH   1   6
BRANCH   3  15
ATOM     15  N   UNL d   1      59.931  49.152  50.582  0.00  0.00    -0.283 N 
ATOM     16  C   UNL d   1      60.157  49.424  49.958  0.00  0.00     0.082 A 
ATOM     17  C   UNL d   1      59.783  49.607  49.206  0.00  0.00     0.019 A 
ATOM     18  C   UNL d   1      59.096  49.541  48.954  0.00  0.00     0.002 A 
ATOM     19  C   UNL d   1      58.437  49.240  49.381  0.00  0.00     0.002 A 
ATOM     20  C   UNL d   1      58.463  48.949  50.218  0.00  0.00     0.019 A 
ATOM     21  C   UNL d   1      59.151  48.911  50.762  0.00  0.00     0.082 A 
ENDBRANCH   3  15
BRANCH   5  22
ATOM     22  C   UNL d   1      61.724  49.462  52.895  0.00  0.00     0.141 A 
ATOM     23  O   UNL d   1      61.718  49.559  53.709  0.00  0.00    -0.302 OA
ATOM     24  C   UNL d   1      62.489  49.707  53.958  0.00  0.00     0.123 A 
ATOM     25  C   UNL d   1      62.972  49.700  53.289  0.00  0.00     0.029 A 
ATOM     26  C   UNL d   1      62.501  49.549  52.634  0.00  0.00     0.030 A 
ENDBRANCH   5  22
TORSDOF 4
ENDMDL
MODEL 2
REMARK VINA RESULT:     106.5      1.275      4.059
REMARK  4 active torsions:
REMARK  status: ('A' for Active; 'I' for Inactive)
REMARK    1  A    between atoms: S_4  and  C_1 
REMARK    2  A    between atoms: N_7  and  C_3 
REMARK    3  A    between atoms: C_11  and  S_4 
REMARK    4  A    between atoms: C_8  and  C_6 
ROOT
ATOM      1  C   UNL d   1      59.609  48.602  51.125  0.00  0.00     0.210 A 
ATOM      2  N   UNL d   1      58.904  49.018  51.060  0.00  0.00    -0.205 NA
ATOM      3  C   UNL d   1      59.558  47.934  50.644  0.00  0.00     0.199 A 
ATOM      4  O   UNL d   1      58.818  47.942  50.283  0.00  0.00    -0.268 OA
ATOM      5  C   UNL d   1      58.416  48.609  50.538  0.00  0.00     0.208 A 
ENDROOT
BRANCH   1   6
ATOM      6  S   UNL d   1      60.214  48.877  51.613  0.00  0.00     0.230 S 
ATOM      7  O   UNL d   1      60.933  49.111  51.294  0.00  0.00    -0.215 OA
ATOM      8  O   UNL d   1      60.096  48.917  52.434  0.00  0.00    -0.215 OA
BRANCH   6   9
ATOM      9  C   UNL d   1      60.814  49.150  52.107  0.00  0.00     0.090 A 
ATOM     10  C   UNL d   1      61.519  49.416  51.781  0.00  0.00     0.011 A 
ATOM     11  C   UNL d   1      62.129  49.693  52.270  0.00  0.00     0.001 A 
ATOM     12  C   UNL d   1      62.022  49.700  53.090  0.00  0.00     0.000 A 
ATOM     13  C   UNL d   1      61.310  49.432  53.419  0.00  0.00     0.001 A 
ATOM     14  C   UNL d   1      60.707  49.157  52.926  0.00  0.00     0.011 A 
ENDBRANCH   6   9
ENDBRANCH   1   6
BRANCH   3  15
ATOM     15  N   UNL d   1      60.142  47.360  50.542  0.00  0.00    -0.283 N 
ATOM     16  C   UNL d   1      60.081  46.759  50.930  0.00  0.00     0.082 A 
ATOM     17  C   UNL d   1      60.542  46.037  51.002  0.00  0.00     0.019 A 
ATOM     18  C   UNL d   1      61.159  45.797  50.685  0.00  0.00     0.002 A 
ATOM     19  C   UNL d   1      61.617  46.211  50.114  0.00  0.00     0.002 A 
ATOM     20  C   UNL d   1      61.427  47.015  49.795  0.00  0.00     0.019 A 
ATOM     21  C   UNL d   1      60.749  47.536  49.996  0.00  0.00     0.082 A 
ENDBRANCH   3  15
BRANCH   5  22
ATOM     22  C   UNL d   1      57.715  49.023  50.473  0.00  0.00     0.141 A 
ATOM     23  O   UNL d   1      57.196  49.517  50.872  0.00  0.00    -0.302 OA
ATOM     24  C   UNL d   1      56.572  49.698  50.367  0.00  0.00     0.123 A 
ATOM     25  C   UNL d   1      56.710  49.312  49.651  0.00  0.00     0.029 A 
ATOM     26  C   UNL d   1      57.415  48.895  49.717  0.00  0.00     0.030 A 
ENDBRANCH   5  22
TORSDOF 4
ENDMDL
