MODEL 1
REMARK VINA RESULT:      -6.9      0.000      0.000
REMARK  2 active torsions:
REMARK  status: ('A' for Active; 'I' for Inactive)
REMARK    1  A    between atoms: C_5  and  CA_2 
REMARK    2  A    between atoms: C_4  and  CA_3 
ROOT
ATOM      1  N   UNL d   1      52.981  33.694  53.941  0.00  0.00    -0.233 NA
ATOM      2  CA  UNL d   1      53.478  34.036  54.503  0.00  0.00     0.146 A 
ATOM      3  CA  UNL d   1      53.087  32.914  53.709  0.00  0.00     0.146 A 
ATOM      4  C   UNL d   1      53.702  32.463  54.044  0.00  0.00     0.025 A 
ATOM      5  C   UNL d   1      54.093  33.586  54.837  0.00  0.00     0.025 A 
ATOM      6  C   UNL d   1      54.205  32.797  54.607  0.00  0.00     0.004 A 
ENDROOT
BRANCH   2   7
ATOM      7  C   UNL d   1      53.372  34.819  54.737  0.00  0.00     0.229 C 
ATOM      8  O   UNL d   1      53.230  35.003  55.526  0.00  0.00    -0.643 OA
ATOM      9  OXT UNL d   1      53.403  35.449  54.205  0.00  0.00    -0.643 OA
ENDBRANCH   2   7
BRANCH   3  10
ATOM     10  C   UNL d   1      52.591  32.575  53.150  0.00  0.00     0.229 C 
ATOM     11  O   UNL d   1      52.879  32.172  52.497  0.00  0.00    -0.643 OA
ATOM     12  OXT UNL d   1      51.757  32.625  53.218  0.00  0.00    -0.643 OA
ENDBRANCH   3  10
TORSDOF 2
ENDMDL
MODEL 2
REMARK VINA RESULT:      -6.9      1.455      1.762
REMARK  2 active torsions:
REMARK  status: ('A' for Active; 'I' for Inactive)
REMARK    1  A    between atoms: C_5  and  CA_2 
REMARK    2  A    between atoms: C_4  and  CA_3 
ROOT
ATOM      1  N   UNL d   1      53.073  33.202  53.958  0.00  0.00    -0.233 NA
ATOM      2  CA  UNL d   1      53.701  32.703  54.150  0.00  0.00     0.146 A 
ATOM      3  CA  UNL d   1      52.535  32.991  53.374  0.00  0.00     0.146 A 
ATOM      4  C   UNL d   1      52.624  32.268  52.973  0.00  0.00     0.025 A 
ATOM      5  C   UNL d   1      53.789  31.980  53.748  0.00  0.00     0.025 A 
ATOM      6  C   UNL d   1      53.248  31.762  53.157  0.00  0.00     0.004 A 
ENDROOT
BRANCH   2   7
ATOM      7  C   UNL d   1      54.241  32.913  54.735  0.00  0.00     0.229 C 
ATOM      8  O   UNL d   1      54.115  32.692  55.518  0.00  0.00    -0.643 OA
ATOM      9  OXT UNL d   1      54.924  33.346  54.574  0.00  0.00    -0.643 OA
ENDBRANCH   2   7
BRANCH   3  10
ATOM     10  C   UNL d   1      51.911  33.489  53.185  0.00  0.00     0.229 C 
ATOM     11  O   UNL d   1      52.004  34.140  52.696  0.00  0.00    -0.643 OA
ATOM     12  OXT UNL d   1      51.140  33.358  53.486  0.00  0.00    -0.643 OA
ENDBRANCH   3  10
TORSDOF 2
ENDMDL
MODEL 3
REMARK VINA RESULT:      -6.9      1.453      2.324
REMARK  2 active torsions:
REMARK  status: ('A' for Active; 'I' for Inactive)
REMARK    1  A    between atoms: C_5  and  CA_2 
REMARK    2  A    between atoms: C_4  and  CA_3 
ROOT
ATOM      1  N   UNL d   1      53.086  33.226  53.964  0.00  0.00    -0.233 NA
ATOM      2  CA  UNL d   1      52.537  33.024  53.383  0.00  0.00     0.146 A 
ATOM      3  CA  UNL d   1      53.709  32.722  54.143  0.00  0.00     0.146 A 
ATOM      4  C   UNL d   1      53.788  32.001  53.735  0.00  0.00     0.025 A 
ATOM      5  C   UNL d   1      52.616  32.303  52.975  0.00  0.00     0.025 A 
ATOM      6  C   UNL d   1      53.244  31.790  53.152  0.00  0.00     0.004 A 
ENDROOT
BRANCH   2   7
ATOM      7  C   UNL d   1      51.911  33.528  53.202  0.00  0.00     0.229 C 
ATOM      8  O   UNL d   1      51.155  33.373  53.486  0.00  0.00    -0.643 OA
ATOM      9  OXT UNL d   1      52.005  34.203  52.736  0.00  0.00    -0.643 OA
ENDBRANCH   2   7
BRANCH   3  10
ATOM     10  C   UNL d   1      54.254  32.925  54.722  0.00  0.00     0.229 C 
ATOM     11  O   UNL d   1      54.933  33.352  54.552  0.00  0.00    -0.643 OA
ATOM     12  OXT UNL d   1      54.144  32.705  55.523  0.00  0.00    -0.643 OA
ENDBRANCH   3  10
TORSDOF 2
ENDMDL
MODEL 4
REMARK VINA RESULT:      -6.9      0.016      2.621
REMARK  2 active torsions:
REMARK  status: ('A' for Active; 'I' for Inactive)
REMARK    1  A    between atoms: C_5  and  CA_2 
REMARK    2  A    between atoms: C_4  and  CA_3 
ROOT
ATOM      1  N   UNL d   1      52.972  33.694  53.948  0.00  0.00    -0.233 NA
ATOM      2  CA  UNL d   1      53.078  32.913  53.703  0.00  0.00     0.146 A 
ATOM      3  CA  UNL d   1      53.475  34.028  54.504  0.00  0.00     0.146 A 
ATOM      4  C   UNL d   1      54.096  33.577  54.824  0.00  0.00     0.025 A 
ATOM      5  C   UNL d   1      53.699  32.462  54.023  0.00  0.00     0.025 A 
ATOM      6  C   UNL d   1      54.210  32.795  54.585  0.00  0.00     0.004 A 
ENDROOT
BRANCH   2   7
ATOM      7  C   UNL d   1      52.574  32.575  53.145  0.00  0.00     0.229 C 
ATOM      8  O   UNL d   1      52.880  32.160  52.504  0.00  0.00    -0.643 OA
ATOM      9  OXT UNL d   1      51.753  32.633  53.196  0.00  0.00    -0.643 OA
ENDBRANCH   2   7
BRANCH   3  10
ATOM     10  C   UNL d   1      53.368  34.805  54.746  0.00  0.00     0.229 C 
ATOM     11  O   UNL d   1      53.229  35.004  55.529  0.00  0.00    -0.643 OA
ATOM     12  OXT UNL d   1      53.395  35.441  54.200  0.00  0.00    -0.643 OA
ENDBRANCH   3  10
TORSDOF 2
ENDMDL
MODEL 5
REMARK VINA RESULT:      -6.8      1.600      3.255
REMARK  2 active torsions:
REMARK  status: ('A' for Active; 'I' for Inactive)
REMARK    1  A    between atoms: C_5  and  CA_2 
REMARK    2  A    between atoms: C_4  and  CA_3 
ROOT
ATOM      1  N   UNL d   1      53.639  31.908  53.823  0.00  0.00    -0.233 NA
ATOM      2  CA  UNL d   1      53.052  31.710  53.278  0.00  0.00     0.146 A 
ATOM      3  CA  UNL d   1      53.726  32.683  54.080  0.00  0.00     0.146 A 
ATOM      4  C   UNL d   1      53.219  33.275  53.787  0.00  0.00     0.025 A 
ATOM      5  C   UNL d   1      52.546  32.302  52.986  0.00  0.00     0.025 A 
ATOM      6  C   UNL d   1      52.629  33.086  53.242  0.00  0.00     0.004 A 
ENDROOT
BRANCH   2   7
ATOM      7  C   UNL d   1      52.964  30.933  53.019  0.00  0.00     0.229 C 
ATOM      8  O   UNL d   1      52.943  30.761  52.215  0.00  0.00    -0.643 OA
ATOM      9  OXT UNL d   1      52.892  30.297  53.540  0.00  0.00    -0.643 OA
ENDBRANCH   2   7
BRANCH   3  10
ATOM     10  C   UNL d   1      54.310  32.878  54.622  0.00  0.00     0.229 C 
ATOM     11  O   UNL d   1      54.210  32.770  55.429  0.00  0.00    -0.643 OA
ATOM     12  OXT UNL d   1      55.044  33.199  54.378  0.00  0.00    -0.643 OA
ENDBRANCH   3  10
TORSDOF 2
ENDMDL
MODEL 6
REMARK VINA RESULT:      -6.8      1.654      2.127
REMARK  2 active torsions:
REMARK  status: ('A' for Active; 'I' for Inactive)
REMARK    1  A    between atoms: C_5  and  CA_2 
REMARK    2  A    between atoms: C_4  and  CA_3 
ROOT
ATOM      1  N   UNL d   1      53.648  31.823  53.844  0.00  0.00    -0.233 NA
ATOM      2  CA  UNL d   1      53.713  32.612  54.078  0.00  0.00     0.146 A 
ATOM      3  CA  UNL d   1      53.082  31.596  53.295  0.00  0.00     0.146 A 
ATOM      4  C   UNL d   1      52.569  32.166  52.970  0.00  0.00     0.025 A 
ATOM      5  C   UNL d   1      53.201  33.181  53.753  0.00  0.00     0.025 A 
ATOM      6  C   UNL d   1      52.627  32.957  53.197  0.00  0.00     0.004 A 
ENDROOT
BRANCH   2   7
ATOM      7  C   UNL d   1      54.281  32.841  54.629  0.00  0.00     0.229 C 
ATOM      8  O   UNL d   1      54.985  33.189  54.382  0.00  0.00    -0.643 OA
ATOM      9  OXT UNL d   1      54.179  32.738  55.441  0.00  0.00    -0.643 OA
ENDBRANCH   2   7
BRANCH   3  10
ATOM     10  C   UNL d   1      53.018  30.811  53.065  0.00  0.00     0.229 C 
ATOM     11  O   UNL d   1      52.951  30.200  53.607  0.00  0.00    -0.643 OA
ATOM     12  OXT UNL d   1      53.018  30.592  52.256  0.00  0.00    -0.643 OA
ENDBRANCH   3  10
TORSDOF 2
ENDMDL
