MODEL 1
REMARK VINA RESULT:      16.1      0.000      0.000
REMARK  4 active torsions:
REMARK  status: ('A' for Active; 'I' for Inactive)
REMARK    1  A    between atoms: C_6  and  C_1 
REMARK    2  A    between atoms: C_7  and  C_4 
REMARK    3  A    between atoms: O_10  and  C_6 
REMARK    4  A    between atoms: C_13  and  O_10 
ROOT
ATOM      1  C   UNL d   1     -58.483 -98.779 -44.273  0.00  0.00     0.112 A 
ATOM      2  S   UNL d   1     -57.705 -98.785 -43.961  0.00  0.00    -0.080 SA
ATOM      3  C   UNL d   1     -58.418 -98.769 -45.096  0.00  0.00     0.115 A 
ATOM      4  C   UNL d   1     -57.181 -98.779 -44.605  0.00  0.00     0.031 A 
ATOM      5  C   UNL d   1     -57.630 -98.769 -45.291  0.00  0.00     0.028 A 
ATOM      6  N   UNL d   1     -59.061 -98.760 -45.637  0.00  0.00    -0.147 N 
ENDROOT
BRANCH   4   7
ATOM      7  C   UNL d   1     -56.368 -98.784 -44.456  0.00  0.00     0.006 A 
ATOM      8  C   UNL d   1     -55.843 -98.790 -45.101  0.00  0.00     0.001 A 
ATOM      9  C   UNL d   1     -55.032 -98.795 -44.951  0.00  0.00     0.000 A 
ATOM     10  C   UNL d   1     -54.747 -98.793 -44.180  0.00  0.00     0.000 A 
ATOM     11  C   UNL d   1     -55.268 -98.787 -43.549  0.00  0.00     0.000 A 
ATOM     12  C   UNL d   1     -56.082 -98.783 -43.686  0.00  0.00     0.001 A 
ENDBRANCH   4   7
BRANCH   1  13
ATOM     13  C   UNL d   1     -59.197 -98.781 -43.834  0.00  0.00     0.308 C 
ATOM     14  O   UNL d   1     -59.944 -98.809 -44.208  0.00  0.00    -0.258 OA
BRANCH  13  15
ATOM     15  O   UNL d   1     -59.155 -98.756 -43.001  0.00  0.00    -0.271 OA
BRANCH  15  16
ATOM     16  C   UNL d   1     -59.843 -98.884 -42.541  0.00  0.00     0.126 C 
ATOM     17  C   UNL d   1     -59.806 -98.761 -41.726  0.00  0.00     0.029 C 
ENDBRANCH  15  16
ENDBRANCH  13  15
ENDBRANCH   1  13
TORSDOF 4
ENDMDL
