MODEL 1
REMARK VINA RESULT:      70.0      0.000      0.000
REMARK  4 active torsions:
REMARK  status: ('A' for Active; 'I' for Inactive)
REMARK    1  A    between atoms: S_9  and  C_2 
REMARK    2  A    between atoms: C_11  and  C_3 
REMARK    3  A    between atoms: C_7  and  C_10 
REMARK       I    between atoms: N_8  and  C_7 
REMARK    4  A    between atoms: C_10  and  S_9 
ROOT
ATOM      1  N   UNL d   1      60.738  48.249  50.254  0.00  0.00    -0.220 NA
ATOM      2  C   UNL d   1      60.571  48.936  50.693  0.00  0.00     0.114 A 
ATOM      3  C   UNL d   1      61.129  47.624  50.615  0.00  0.00     0.163 A 
ATOM      4  N   UNL d   1      61.355  47.674  51.407  0.00  0.00    -0.227 NA
ATOM      5  C   UNL d   1      60.798  48.987  51.484  0.00  0.00     0.042 A 
ATOM      6  C   UNL d   1      61.191  48.350  51.838  0.00  0.00     0.085 A 
ATOM      7  C   UNL d   1      60.635  49.657  51.910  0.00  0.00     0.004 A 
ATOM      8  C   UNL d   1      61.416  48.396  52.618  0.00  0.00     0.019 A 
ATOM      9  C   UNL d   1      60.861  49.708  52.702  0.00  0.00     0.000 A 
ATOM     10  C   UNL d   1      61.255  49.071  53.055  0.00  0.00     0.002 A 
ENDROOT
BRANCH   2  11
ATOM     11  S   UNL d   1      60.181  49.566  50.339  0.00  0.00    -0.062 SA
BRANCH  11  12
ATOM     12  C   UNL d   1      59.385  49.688  50.473  0.00  0.00     0.098 C 
BRANCH  12  13
ATOM     13  C   UNL d   1      58.846  49.691  49.845  0.00  0.00     0.271 C 
ATOM     14  N   UNL d   1      58.036  49.676  49.988  0.00  0.00    -0.272 N 
ATOM     15  C   UNL d   1      57.509  49.679  49.364  0.00  0.00     0.083 A 
ATOM     16  C   UNL d   1      57.767  49.659  50.768  0.00  0.00     0.083 A 
ATOM     17  C   UNL d   1      56.700  49.665  49.502  0.00  0.00     0.019 A 
ATOM     18  C   UNL d   1      56.414  49.648  50.276  0.00  0.00     0.003 A 
ATOM     19  C   UNL d   1      56.952  49.645  50.904  0.00  0.00     0.019 A 
ATOM     20  O   UNL d   1      59.126  49.708  49.068  0.00  0.00    -0.266 OA
ENDBRANCH  12  13
ENDBRANCH  11  12
ENDBRANCH   2  11
BRANCH   3  21
ATOM     21  C   UNL d   1      61.296  46.943  50.188  0.00  0.00     0.036 A 
ATOM     22  C   UNL d   1      61.753  46.994  49.504  0.00  0.00     0.003 A 
ATOM     23  C   UNL d   1      61.923  46.307  49.071  0.00  0.00     0.000 A 
ATOM     24  C   UNL d   1      61.633  45.581  49.330  0.00  0.00     0.000 A 
ATOM     25  C   UNL d   1      61.175  45.530  50.015  0.00  0.00     0.000 A 
ATOM     26  C   UNL d   1      61.008  46.206  50.441  0.00  0.00     0.003 A 
ENDBRANCH   3  21
TORSDOF 4
ENDMDL
MODEL 2
REMARK VINA RESULT:      71.2      1.052      4.118
REMARK  4 active torsions:
REMARK  status: ('A' for Active; 'I' for Inactive)
REMARK    1  A    between atoms: S_9  and  C_2 
REMARK    2  A    between atoms: C_11  and  C_3 
REMARK    3  A    between atoms: C_7  and  C_10 
REMARK       I    between atoms: N_8  and  C_7 
REMARK    4  A    between atoms: C_10  and  S_9 
ROOT
ATOM      1  N   UNL d   1      59.069  49.476  50.449  0.00  0.00    -0.220 NA
ATOM      2  C   UNL d   1      59.713  49.437  50.975  0.00  0.00     0.114 A 
ATOM      3  C   UNL d   1      58.312  49.591  50.744  0.00  0.00     0.163 A 
ATOM      4  N   UNL d   1      58.187  49.668  51.556  0.00  0.00    -0.227 NA
ATOM      5  C   UNL d   1      59.588  49.514  51.787  0.00  0.00     0.042 A 
ATOM      6  C   UNL d   1      58.820  49.630  52.073  0.00  0.00     0.085 A 
ATOM      7  C   UNL d   1      60.217  49.477  52.298  0.00  0.00     0.004 A 
ATOM      8  C   UNL d   1      58.694  49.707  52.872  0.00  0.00     0.019 A 
ATOM      9  C   UNL d   1      60.092  49.554  53.110  0.00  0.00     0.000 A 
ATOM     10  C   UNL d   1      59.324  49.670  53.396  0.00  0.00     0.002 A 
ENDROOT
BRANCH   2  11
ATOM     11  S   UNL d   1      60.474  49.322  50.688  0.00  0.00    -0.062 SA
BRANCH  11  12
ATOM     12  C   UNL d   1      60.809  48.578  50.691  0.00  0.00     0.098 C 
BRANCH  12  13
ATOM     13  C   UNL d   1      61.309  48.337  50.077  0.00  0.00     0.271 C 
ATOM     14  N   UNL d   1      61.484  47.541  49.968  0.00  0.00    -0.272 N 
ATOM     15  C   UNL d   1      61.978  47.308  49.360  0.00  0.00     0.083 A 
ATOM     16  C   UNL d   1      61.154  46.983  50.480  0.00  0.00     0.083 A 
ATOM     17  C   UNL d   1      62.155  46.514  49.247  0.00  0.00     0.019 A 
ATOM     18  C   UNL d   1      61.834  45.945  49.750  0.00  0.00     0.003 A 
ATOM     19  C   UNL d   1      61.334  46.185  50.364  0.00  0.00     0.019 A 
ATOM     20  O   UNL d   1      61.634  48.902  49.571  0.00  0.00    -0.266 OA
ENDBRANCH  12  13
ENDBRANCH  11  12
ENDBRANCH   2  11
BRANCH   3  21
ATOM     21  C   UNL d   1      57.673  49.630  50.230  0.00  0.00     0.036 A 
ATOM     22  C   UNL d   1      57.805  49.658  49.417  0.00  0.00     0.003 A 
ATOM     23  C   UNL d   1      57.161  49.697  48.897  0.00  0.00     0.000 A 
ATOM     24  C   UNL d   1      56.394  49.708  49.198  0.00  0.00     0.000 A 
ATOM     25  C   UNL d   1      56.262  49.680  50.013  0.00  0.00     0.000 A 
ATOM     26  C   UNL d   1      56.896  49.641  50.525  0.00  0.00     0.003 A 
ENDBRANCH   3  21
TORSDOF 4
ENDMDL
MODEL 3
REMARK VINA RESULT:      72.0      1.096      4.166
REMARK  4 active torsions:
REMARK  status: ('A' for Active; 'I' for Inactive)
REMARK    1  A    between atoms: S_9  and  C_2 
REMARK    2  A    between atoms: C_11  and  C_3 
REMARK    3  A    between atoms: C_7  and  C_10 
REMARK       I    between atoms: N_8  and  C_7 
REMARK    4  A    between atoms: C_10  and  S_9 
ROOT
ATOM      1  N   UNL d   1      59.691  48.989  50.332  0.00  0.00    -0.220 NA
ATOM      2  C   UNL d   1      60.436  48.886  50.686  0.00  0.00     0.114 A 
ATOM      3  C   UNL d   1      59.081  49.330  50.763  0.00  0.00     0.163 A 
ATOM      4  N   UNL d   1      59.205  49.569  51.543  0.00  0.00    -0.227 NA
ATOM      5  C   UNL d   1      60.560  49.124  51.466  0.00  0.00     0.042 A 
ATOM      6  C   UNL d   1      59.938  49.467  51.892  0.00  0.00     0.085 A 
ATOM      7  C   UNL d   1      61.287  49.023  51.810  0.00  0.00     0.004 A 
ATOM      8  C   UNL d   1      60.056  49.703  52.660  0.00  0.00     0.019 A 
ATOM      9  C   UNL d   1      61.411  49.261  52.590  0.00  0.00     0.000 A 
ATOM     10  C   UNL d   1      60.789  49.604  53.015  0.00  0.00     0.002 A 
ENDROOT
BRANCH   2  11
ATOM     11  S   UNL d   1      61.051  48.545  50.261  0.00  0.00    -0.062 SA
BRANCH  11  12
ATOM     12  C   UNL d   1      61.103  47.735  50.184  0.00  0.00     0.098 C 
BRANCH  12  13
ATOM     13  C   UNL d   1      61.733  47.388  49.776  0.00  0.00     0.271 C 
ATOM     14  N   UNL d   1      61.741  46.579  49.628  0.00  0.00    -0.272 N 
ATOM     15  C   UNL d   1      62.367  46.242  49.224  0.00  0.00     0.083 A 
ATOM     16  C   UNL d   1      61.112  46.116  49.892  0.00  0.00     0.083 A 
ATOM     17  C   UNL d   1      62.379  45.434  49.074  0.00  0.00     0.019 A 
ATOM     18  C   UNL d   1      61.757  44.958  49.332  0.00  0.00     0.003 A 
ATOM     19  C   UNL d   1      61.127  45.304  49.740  0.00  0.00     0.019 A 
ATOM     20  O   UNL d   1      62.359  47.860  49.515  0.00  0.00    -0.266 OA
ENDBRANCH  12  13
ENDBRANCH  11  12
ENDBRANCH   2  11
BRANCH   3  21
ATOM     21  C   UNL d   1      58.344  49.435  50.419  0.00  0.00     0.036 A 
ATOM     22  C   UNL d   1      57.665  49.376  50.884  0.00  0.00     0.003 A 
ATOM     23  C   UNL d   1      56.919  49.482  50.538  0.00  0.00     0.000 A 
ATOM     24  C   UNL d   1      56.864  49.645  49.732  0.00  0.00     0.000 A 
ATOM     25  C   UNL d   1      57.544  49.703  49.266  0.00  0.00     0.000 A 
ATOM     26  C   UNL d   1      58.277  49.599  49.607  0.00  0.00     0.003 A 
ENDBRANCH   3  21
TORSDOF 4
ENDMDL
