MODEL 1
REMARK VINA RESULT:      -4.2      0.000      0.000
REMARK  3 active torsions:
REMARK  status: ('A' for Active; 'I' for Inactive)
REMARK    1  A    between atoms: C_6  and  C_1 
REMARK    2  A    between atoms: O_18  and  C_11 
REMARK    3  A    between atoms: O_19  and  C_13 
ROOT
ATOM      1  C   UNL d   1     -41.803-122.592 -51.262  0.00  0.00     0.064 A 
ATOM      2  C   UNL d   1     -41.474-123.067 -51.859  0.00  0.00     0.199 A 
ATOM      3  C   UNL d   1     -41.477-122.810 -52.640  0.00  0.00     0.062 A 
ATOM      4  C   UNL d   1     -42.132-121.861 -51.456  0.00  0.00     0.126 A 
ATOM      5  C   UNL d   1     -41.806-122.079 -52.834  0.00  0.00     0.106 A 
ATOM      6  O   UNL d   1     -42.133-121.604 -52.246  0.00  0.00    -0.305 OA
ATOM      7  C   UNL d   1     -41.150-123.284 -53.229  0.00  0.00     0.009 A 
ATOM      8  C   UNL d   1     -41.808-121.821 -53.616  0.00  0.00     0.067 A 
ATOM      9  O   UNL d   1     -41.145-123.798 -51.665  0.00  0.00    -0.286 OA
ATOM     10  C   UNL d   1     -41.482-122.296 -54.204  0.00  0.00     0.198 A 
ATOM     11  C   UNL d   1     -41.152-123.027 -54.011  0.00  0.00     0.042 A 
ATOM     12  O   UNL d   1     -41.481-122.040 -54.999  0.00  0.00    -0.286 OA
ENDROOT
BRANCH   1  13
ATOM     13  C   UNL d   1     -41.800-122.849 -50.481  0.00  0.00     0.007 A 
ATOM     14  C   UNL d   1     -42.474-123.205 -50.159  0.00  0.00     0.026 A 
ATOM     15  C   UNL d   1     -42.472-123.462 -49.377  0.00  0.00     0.116 A 
ATOM     16  C   UNL d   1     -41.798-123.365 -48.912  0.00  0.00     0.116 A 
ATOM     17  C   UNL d   1     -41.123-123.009 -49.233  0.00  0.00     0.026 A 
ATOM     18  C   UNL d   1     -41.126-122.752 -50.016  0.00  0.00     0.002 A 
BRANCH  15  19
ATOM     19  O   UNL d   1     -43.144-123.816 -49.060  0.00  0.00    -0.326 OA
ATOM     20  C   UNL d   1     -43.879-123.702 -49.417  0.00  0.00     0.181 C 
ENDBRANCH  15  19
BRANCH  16  21
ATOM     21  O   UNL d   1     -41.788-123.621 -48.126  0.00  0.00    -0.326 OA
ATOM     22  C   UNL d   1     -41.145-123.426 -47.638  0.00  0.00     0.181 C 
ENDBRANCH  16  21
ENDBRANCH   1  13
TORSDOF 3
ENDMDL
MODEL 2
REMARK VINA RESULT:      -3.1      1.029      4.509
REMARK  3 active torsions:
REMARK  status: ('A' for Active; 'I' for Inactive)
REMARK    1  A    between atoms: C_6  and  C_1 
REMARK    2  A    between atoms: O_18  and  C_11 
REMARK    3  A    between atoms: O_19  and  C_13 
ROOT
ATOM      1  C   UNL d   1     -41.700-123.031 -50.601  0.00  0.00     0.064 A 
ATOM      2  C   UNL d   1     -42.318-122.778 -50.107  0.00  0.00     0.199 A 
ATOM      3  C   UNL d   1     -42.356-123.035 -49.327  0.00  0.00     0.062 A 
ATOM      4  C   UNL d   1     -41.124-123.542 -50.306  0.00  0.00     0.126 A 
ATOM      5  C   UNL d   1     -41.779-123.546 -49.032  0.00  0.00     0.106 A 
ATOM      6  O   UNL d   1     -41.165-123.800 -49.517  0.00  0.00    -0.305 OA
ATOM      7  C   UNL d   1     -42.970-122.782 -48.840  0.00  0.00     0.009 A 
ATOM      8  C   UNL d   1     -41.816-123.804 -48.250  0.00  0.00     0.067 A 
ATOM      9  O   UNL d   1     -42.895-122.268 -50.402  0.00  0.00    -0.286 OA
ATOM     10  C   UNL d   1     -42.430-123.550 -47.764  0.00  0.00     0.198 A 
ATOM     11  C   UNL d   1     -43.007-123.039 -48.060  0.00  0.00     0.042 A 
ATOM     12  O   UNL d   1     -42.473-123.808 -46.972  0.00  0.00    -0.286 OA
ENDROOT
BRANCH   1  13
ATOM     13  C   UNL d   1     -41.663-122.774 -51.382  0.00  0.00     0.007 A 
ATOM     14  C   UNL d   1     -41.417-122.004 -51.553  0.00  0.00     0.026 A 
ATOM     15  C   UNL d   1     -41.379-121.746 -52.334  0.00  0.00     0.116 A 
ATOM     16  C   UNL d   1     -41.587-122.257 -52.948  0.00  0.00     0.116 A 
ATOM     17  C   UNL d   1     -41.833-123.028 -52.777  0.00  0.00     0.026 A 
ATOM     18  C   UNL d   1     -41.871-123.285 -51.995  0.00  0.00     0.002 A 
BRANCH  15  19
ATOM     19  O   UNL d   1     -41.134-120.979 -52.502  0.00  0.00    -0.326 OA
ATOM     20  C   UNL d   1     -41.185-120.393 -51.923  0.00  0.00     0.181 C 
ENDBRANCH  15  19
BRANCH  16  21
ATOM     21  O   UNL d   1     -41.552-122.005 -53.735  0.00  0.00    -0.326 OA
ATOM     22  C   UNL d   1     -41.548-122.568 -54.346  0.00  0.00     0.181 C 
ENDBRANCH  16  21
ENDBRANCH   1  13
TORSDOF 3
ENDMDL
MODEL 3
REMARK VINA RESULT:      -3.0      1.007      4.350
REMARK  3 active torsions:
REMARK  status: ('A' for Active; 'I' for Inactive)
REMARK    1  A    between atoms: C_6  and  C_1 
REMARK    2  A    between atoms: O_18  and  C_11 
REMARK    3  A    between atoms: O_19  and  C_13 
ROOT
ATOM      1  C   UNL d   1     -41.585-122.832 -50.908  0.00  0.00     0.064 A 
ATOM      2  C   UNL d   1     -42.162-123.280 -50.512  0.00  0.00     0.199 A 
ATOM      3  C   UNL d   1     -42.272-123.188 -49.702  0.00  0.00     0.062 A 
ATOM      4  C   UNL d   1     -41.123-122.295 -50.487  0.00  0.00     0.126 A 
ATOM      5  C   UNL d   1     -41.810-122.650 -49.280  0.00  0.00     0.106 A 
ATOM      6  O   UNL d   1     -41.237-122.205 -49.669  0.00  0.00    -0.305 OA
ATOM      7  C   UNL d   1     -42.845-123.633 -49.313  0.00  0.00     0.009 A 
ATOM      8  C   UNL d   1     -41.920-122.558 -48.469  0.00  0.00     0.067 A 
ATOM      9  O   UNL d   1     -42.624-123.817 -50.934  0.00  0.00    -0.286 OA
ATOM     10  C   UNL d   1     -42.493-123.004 -48.081  0.00  0.00     0.198 A 
ATOM     11  C   UNL d   1     -42.955-123.542 -48.503  0.00  0.00     0.042 A 
ATOM     12  O   UNL d   1     -42.609-122.915 -47.260  0.00  0.00    -0.286 OA
ENDROOT
BRANCH   1  13
ATOM     13  C   UNL d   1     -41.474-122.924 -51.718  0.00  0.00     0.007 A 
ATOM     14  C   UNL d   1     -41.605-122.287 -52.229  0.00  0.00     0.026 A 
ATOM     15  C   UNL d   1     -41.494-122.378 -53.040  0.00  0.00     0.116 A 
ATOM     16  C   UNL d   1     -41.253-123.106 -53.344  0.00  0.00     0.116 A 
ATOM     17  C   UNL d   1     -41.123-123.744 -52.834  0.00  0.00     0.026 A 
ATOM     18  C   UNL d   1     -41.233-123.652 -52.023  0.00  0.00     0.002 A 
BRANCH  15  19
ATOM     19  O   UNL d   1     -41.625-121.743 -53.546  0.00  0.00    -0.326 OA
ATOM     20  C   UNL d   1     -42.376-121.406 -53.601  0.00  0.00     0.181 C 
ENDBRANCH  15  19
BRANCH  16  21
ATOM     21  O   UNL d   1     -41.140-123.206 -54.158  0.00  0.00    -0.326 OA
ATOM     22  C   UNL d   1     -41.607-123.752 -54.574  0.00  0.00     0.181 C 
ENDBRANCH  16  21
ENDBRANCH   1  13
TORSDOF 3
ENDMDL
