MODEL 1
REMARK VINA RESULT:      -2.9      0.000      0.000
REMARK  2 active torsions:
REMARK  status: ('A' for Active; 'I' for Inactive)
REMARK    1  A    between atoms: C_10  and  N_1 
REMARK    2  A    between atoms: N_11  and  C_10 
ROOT
ATOM      1  N   UNL d   1      57.757   0.638  32.363  0.00  0.00    -0.175 N 
ATOM      2  N   UNL d   1      57.499   0.626  31.263  0.00  0.00    -0.161 NA
ATOM      3  C   UNL d   1      58.191   0.635  30.818  0.00  0.00     0.102 A 
ATOM      4  C   UNL d   1      58.923   0.650  31.190  0.00  0.00     0.024 A 
ATOM      5  C   UNL d   1      58.552   0.653  32.566  0.00  0.00     0.282 A 
ATOM      6  C   UNL d   1      59.133   0.659  31.981  0.00  0.00     0.059 A 
ATOM      7  C   UNL d   1      59.511   0.656  30.599  0.00  0.00     0.002 A 
ATOM      8  C   UNL d   1      58.322   0.632  30.005  0.00  0.00     0.019 A 
ATOM      9  C   UNL d   1      59.134   0.645  29.869  0.00  0.00     0.002 A 
ATOM     10  O   UNL d   1      58.763   0.662  33.375  0.00  0.00    -0.265 OA
ATOM     11  C   UNL d   1      59.935   0.674  32.196  0.00  0.00     0.005 A 
ATOM     12  C   UNL d   1      60.300   0.671  30.808  0.00  0.00     0.000 A 
ATOM     13  C   UNL d   1      57.803   0.618  29.363  0.00  0.00     0.002 A 
ATOM     14  C   UNL d   1      59.421   0.644  29.098  0.00  0.00     0.000 A 
ATOM     15  C   UNL d   1      60.522   0.680  31.605  0.00  0.00     0.000 A 
ATOM     16  C   UNL d   1      58.096   0.618  28.587  0.00  0.00     0.000 A 
ATOM     17  C   UNL d   1      58.901   0.631  28.456  0.00  0.00     0.000 A 
ENDROOT
BRANCH   1  18
ATOM     18  C   UNL d   1      57.322   0.636  33.070  0.00  0.00     0.188 C 
BRANCH  18  19
ATOM     19  N   UNL d   1      56.602   0.227  33.107  0.00  0.00    -0.283 N 
ATOM     20  C   UNL d   1      56.589  -0.587  33.003  0.00  0.00     0.108 A 
ATOM     21  C   UNL d   1      55.870  -0.997  33.040  0.00  0.00     0.142 A 
ATOM     22  O   UNL d   1      55.168  -0.579  33.182  0.00  0.00    -0.300 OA
ATOM     23  C   UNL d   1      55.184   0.239  33.287  0.00  0.00     0.142 A 
ATOM     24  C   UNL d   1      55.914   0.649  33.248  0.00  0.00     0.108 A 
ENDBRANCH  18  19
ENDBRANCH   1  18
TORSDOF 2
ENDMDL
MODEL 2
REMARK VINA RESULT:      -2.8      2.645      3.251
REMARK  2 active torsions:
REMARK  status: ('A' for Active; 'I' for Inactive)
REMARK    1  A    between atoms: C_10  and  N_1 
REMARK    2  A    between atoms: N_11  and  C_10 
ROOT
ATOM      1  N   UNL d   1      58.719  -0.255  29.946  0.00  0.00    -0.175 N 
ATOM      2  N   UNL d   1      58.324  -1.300  29.777  0.00  0.00    -0.161 NA
ATOM      3  C   UNL d   1      58.890  -1.748  29.385  0.00  0.00     0.102 A 
ATOM      4  C   UNL d   1      59.613  -1.415  29.178  0.00  0.00     0.024 A 
ATOM      5  C   UNL d   1      59.474  -0.086  29.672  0.00  0.00     0.282 A 
ATOM      6  C   UNL d   1      59.919  -0.664  29.289  0.00  0.00     0.059 A 
ATOM      7  C   UNL d   1      60.063  -2.000  28.792  0.00  0.00     0.002 A 
ATOM      8  C   UNL d   1      58.893  -2.531  29.129  0.00  0.00     0.019 A 
ATOM      9  C   UNL d   1      59.614  -2.687  28.764  0.00  0.00     0.002 A 
ATOM     10  O   UNL d   1      59.783   0.682  29.787  0.00  0.00    -0.265 OA
ATOM     11  C   UNL d   1      60.682  -0.484  29.016  0.00  0.00     0.005 A 
ATOM     12  C   UNL d   1      60.814  -1.825  28.522  0.00  0.00     0.000 A 
ATOM     13  C   UNL d   1      58.326  -3.129  29.181  0.00  0.00     0.002 A 
ATOM     14  C   UNL d   1      59.763  -3.435  28.455  0.00  0.00     0.000 A 
ATOM     15  C   UNL d   1      61.133  -1.069  28.630  0.00  0.00     0.000 A 
ATOM     16  C   UNL d   1      58.480  -3.882  28.868  0.00  0.00     0.000 A 
ATOM     17  C   UNL d   1      59.196  -4.033  28.507  0.00  0.00     0.000 A 
ENDROOT
BRANCH   1  18
ATOM     18  C   UNL d   1      58.424   0.436  30.299  0.00  0.00     0.188 C 
BRANCH  18  19
ATOM     19  N   UNL d   1      57.941   0.380  30.970  0.00  0.00    -0.283 N 
ATOM     20  C   UNL d   1      57.153   0.165  30.889  0.00  0.00     0.108 A 
ATOM     21  C   UNL d   1      56.669   0.109  31.559  0.00  0.00     0.142 A 
ATOM     22  O   UNL d   1      56.986   0.271  32.308  0.00  0.00    -0.300 OA
ATOM     23  C   UNL d   1      57.778   0.487  32.386  0.00  0.00     0.142 A 
ATOM     24  C   UNL d   1      58.265   0.543  31.706  0.00  0.00     0.108 A 
ENDBRANCH  18  19
ENDBRANCH   1  18
TORSDOF 2
ENDMDL
MODEL 3
REMARK VINA RESULT:      -2.2      3.252      4.450
REMARK  2 active torsions:
REMARK  status: ('A' for Active; 'I' for Inactive)
REMARK    1  A    between atoms: C_10  and  N_1 
REMARK    2  A    between atoms: N_11  and  C_10 
ROOT
ATOM      1  N   UNL d   1      58.950  -1.934  29.040  0.00  0.00    -0.175 N 
ATOM      2  N   UNL d   1      58.116  -1.970  29.802  0.00  0.00    -0.161 NA
ATOM      3  C   UNL d   1      58.108  -1.270  30.234  0.00  0.00     0.102 A 
ATOM      4  C   UNL d   1      58.657  -0.679  30.077  0.00  0.00     0.024 A 
ATOM      5  C   UNL d   1      59.413  -1.257  29.016  0.00  0.00     0.282 A 
ATOM      6  C   UNL d   1      59.267  -0.631  29.533  0.00  0.00     0.059 A 
ATOM      7  C   UNL d   1      58.509  -0.047  30.599  0.00  0.00     0.002 A 
ATOM      8  C   UNL d   1      57.625  -1.008  30.847  0.00  0.00     0.019 A 
ATOM      9  C   UNL d   1      57.871  -0.255  31.073  0.00  0.00     0.002 A 
ATOM     10  O   UNL d   1      60.034  -1.212  28.459  0.00  0.00    -0.265 OA
ATOM     11  C   UNL d   1      59.740   0.050  29.501  0.00  0.00     0.005 A 
ATOM     12  C   UNL d   1      58.974   0.624  30.569  0.00  0.00     0.000 A 
ATOM     13  C   UNL d   1      56.986  -1.359  31.234  0.00  0.00     0.002 A 
ATOM     14  C   UNL d   1      57.480   0.140  31.680  0.00  0.00     0.000 A 
ATOM     15  C   UNL d   1      59.593   0.682  30.023  0.00  0.00     0.000 A 
ATOM     16  C   UNL d   1      56.594  -0.958  31.846  0.00  0.00     0.000 A 
ATOM     17  C   UNL d   1      56.841  -0.212  32.067  0.00  0.00     0.000 A 
ENDROOT
BRANCH   1  18
ATOM     18  C   UNL d   1      59.237  -2.450  28.457  0.00  0.00     0.188 C 
BRANCH  18  19
ATOM     19  N   UNL d   1      59.163  -3.269  28.561  0.00  0.00    -0.283 N 
ATOM     20  C   UNL d   1      59.821  -3.716  28.766  0.00  0.00     0.108 A 
ATOM     21  C   UNL d   1      59.750  -4.534  28.870  0.00  0.00     0.142 A 
ATOM     22  O   UNL d   1      59.010  -4.896  28.766  0.00  0.00    -0.300 OA
ATOM     23  C   UNL d   1      58.351  -4.445  28.561  0.00  0.00     0.142 A 
ATOM     24  C   UNL d   1      58.428  -3.617  28.456  0.00  0.00     0.108 A 
ENDBRANCH  18  19
ENDBRANCH   1  18
TORSDOF 2
ENDMDL
MODEL 4
REMARK VINA RESULT:      -0.4      1.563      4.408
REMARK  2 active torsions:
REMARK  status: ('A' for Active; 'I' for Inactive)
REMARK    1  A    between atoms: C_10  and  N_1 
REMARK    2  A    between atoms: N_11  and  C_10 
ROOT
ATOM      1  N   UNL d   1      57.909   0.675  31.246  0.00  0.00    -0.175 N 
ATOM      2  N   UNL d   1      58.446   0.679  32.240  0.00  0.00    -0.161 NA
ATOM      3  C   UNL d   1      57.896   0.675  32.850  0.00  0.00     0.102 A 
ATOM      4  C   UNL d   1      57.091   0.670  32.683  0.00  0.00     0.024 A 
ATOM      5  C   UNL d   1      57.088   0.669  31.258  0.00  0.00     0.282 A 
ATOM      6  C   UNL d   1      56.681   0.667  31.975  0.00  0.00     0.059 A 
ATOM      7  C   UNL d   1      56.679   0.667  33.407  0.00  0.00     0.002 A 
ATOM      8  C   UNL d   1      57.982   0.676  33.669  0.00  0.00     0.019 A 
ATOM      9  C   UNL d   1      57.234   0.671  34.013  0.00  0.00     0.002 A 
ATOM     10  O   UNL d   1      56.672   0.666  30.533  0.00  0.00    -0.265 OA
ATOM     11  C   UNL d   1      55.850   0.662  31.977  0.00  0.00     0.005 A 
ATOM     12  C   UNL d   1      55.863   0.662  33.412  0.00  0.00     0.000 A 
ATOM     13  C   UNL d   1      58.651   0.681  34.152  0.00  0.00     0.002 A 
ATOM     14  C   UNL d   1      57.160   0.671  34.833  0.00  0.00     0.000 A 
ATOM     15  C   UNL d   1      55.439   0.659  32.701  0.00  0.00     0.000 A 
ATOM     16  C   UNL d   1      58.573   0.681  34.978  0.00  0.00     0.000 A 
ATOM     17  C   UNL d   1      57.829   0.676  35.316  0.00  0.00     0.000 A 
ENDROOT
BRANCH   1  18
ATOM     18  C   UNL d   1      58.143   0.676  30.449  0.00  0.00     0.188 C 
BRANCH  18  19
ATOM     19  N   UNL d   1      58.856   0.314  30.230  0.00  0.00    -0.283 N 
ATOM     20  C   UNL d   1      59.568   0.612  30.511  0.00  0.00     0.108 A 
ATOM     21  C   UNL d   1      60.281   0.252  30.294  0.00  0.00     0.142 A 
ATOM     22  O   UNL d   1      60.269  -0.410  29.793  0.00  0.00    -0.300 OA
ATOM     23  C   UNL d   1      59.553  -0.707  29.513  0.00  0.00     0.142 A 
ATOM     24  C   UNL d   1      58.833  -0.339  29.736  0.00  0.00     0.108 A 
ENDBRANCH  18  19
ENDBRANCH   1  18
TORSDOF 2
ENDMDL
MODEL 5
REMARK VINA RESULT:      -0.3      1.752      2.557
REMARK  2 active torsions:
REMARK  status: ('A' for Active; 'I' for Inactive)
REMARK    1  A    between atoms: C_10  and  N_1 
REMARK    2  A    between atoms: N_11  and  C_10 
ROOT
ATOM      1  N   UNL d   1      57.732  -0.447  30.854  0.00  0.00    -0.175 N 
ATOM      2  N   UNL d   1      58.604   0.184  30.508  0.00  0.00    -0.161 NA
ATOM      3  C   UNL d   1      59.043  -0.235  29.954  0.00  0.00     0.102 A 
ATOM      4  C   UNL d   1      58.819  -0.995  29.734  0.00  0.00     0.024 A 
ATOM      5  C   UNL d   1      57.653  -1.197  30.528  0.00  0.00     0.282 A 
ATOM      6  C   UNL d   1      58.195  -1.469  29.970  0.00  0.00     0.059 A 
ATOM      7  C   UNL d   1      59.366  -1.271  29.170  0.00  0.00     0.002 A 
ATOM      8  C   UNL d   1      59.722  -0.042  29.530  0.00  0.00     0.019 A 
ATOM      9  C   UNL d   1      59.922  -0.678  29.047  0.00  0.00     0.002 A 
ATOM     10  O   UNL d   1      57.015  -1.678  30.771  0.00  0.00    -0.265 OA
ATOM     11  C   UNL d   1      58.107  -2.228  29.646  0.00  0.00     0.005 A 
ATOM     12  C   UNL d   1      59.282  -2.017  28.850  0.00  0.00     0.000 A 
ATOM     13  C   UNL d   1      60.191   0.638  29.521  0.00  0.00     0.002 A 
ATOM     14  C   UNL d   1      60.585  -0.631  28.561  0.00  0.00     0.000 A 
ATOM     15  C   UNL d   1      58.654  -2.504  29.082  0.00  0.00     0.000 A 
ATOM     16  C   UNL d   1      60.858   0.682  29.029  0.00  0.00     0.000 A 
ATOM     17  C   UNL d   1      61.053   0.049  28.552  0.00  0.00     0.000 A 
ENDROOT
BRANCH   1  18
ATOM     18  C   UNL d   1      57.106  -0.344  31.390  0.00  0.00     0.188 C 
BRANCH  18  19
ATOM     19  N   UNL d   1      57.252  -0.000  32.130  0.00  0.00    -0.283 N 
ATOM     20  C   UNL d   1      57.993   0.313  32.295  0.00  0.00     0.108 A 
ATOM     21  C   UNL d   1      58.140   0.657  33.034  0.00  0.00     0.142 A 
ATOM     22  O   UNL d   1      57.536   0.681  33.602  0.00  0.00    -0.300 OA
ATOM     23  C   UNL d   1      56.793   0.366  33.433  0.00  0.00     0.142 A 
ATOM     24  C   UNL d   1      56.648   0.019  32.684  0.00  0.00     0.108 A 
ENDBRANCH  18  19
ENDBRANCH   1  18
TORSDOF 2
ENDMDL
