MODEL 1
REMARK VINA RESULT:      -0.2      0.000      0.000
REMARK  4 active torsions:
REMARK  status: ('A' for Active; 'I' for Inactive)
REMARK    1  A    between atoms: N_10  and  C_3 
REMARK    2  A    between atoms: C_11  and  C_5 
REMARK    3  A    between atoms: C_12  and  N_10 
REMARK    4  A    between atoms: O_18  and  C_15 
ROOT
ATOM      1  N   UNL d   1      30.578  17.796 -24.125  0.00  0.00    -0.184 N 
ATOM      2  C   UNL d   1      30.030  17.165 -24.052  0.00  0.00     0.168 A 
ATOM      3  C   UNL d   1      31.386  17.649 -24.027  0.00  0.00     0.217 A 
ATOM      4  N   UNL d   1      29.510  18.693 -24.388  0.00  0.00    -0.162 NA
ATOM      5  C   UNL d   1      29.241  17.307 -24.147  0.00  0.00     0.055 A 
ATOM      6  N   UNL d   1      30.309  16.409 -23.884  0.00  0.00    -0.227 NA
ATOM      7  C   UNL d   1      31.646  16.898 -23.861  0.00  0.00     0.066 A 
ATOM      8  C   UNL d   1      28.970  18.071 -24.316  0.00  0.00     0.104 A 
ATOM      9  C   UNL d   1      31.105  16.262 -23.787  0.00  0.00     0.087 A 
ATOM     10  C   UNL d   1      32.387  16.590 -23.738  0.00  0.00     0.006 A 
ATOM     11  C   UNL d   1      28.169  18.207 -24.412  0.00  0.00     0.023 C 
ATOM     12  C   UNL d   1      31.525  15.578 -23.620  0.00  0.00     0.019 A 
ATOM     13  C   UNL d   1      32.328  15.788 -23.590  0.00  0.00     0.002 A 
ENDROOT
BRANCH   3  14
ATOM     14  N   UNL d   1      31.942  18.284 -24.099  0.00  0.00    -0.383 NA
BRANCH  14  15
ATOM     15  C   UNL d   1      32.374  19.003 -24.187  0.00  0.00     0.135 A 
ATOM     16  C   UNL d   1      32.479  19.500 -23.521  0.00  0.00     0.056 A 
ATOM     17  C   UNL d   1      32.918  20.234 -23.604  0.00  0.00     0.097 A 
ATOM     18  C   UNL d   1      33.241  20.444 -24.364  0.00  0.00     0.024 A 
ATOM     19  C   UNL d   1      33.128  19.935 -25.026  0.00  0.00     0.005 A 
ATOM     20  C   UNL d   1      32.693  19.209 -24.942  0.00  0.00     0.032 A 
BRANCH  17  21
ATOM     21  O   UNL d   1      33.027  20.735 -22.946  0.00  0.00    -0.328 OA
ATOM     22  C   UNL d   1      33.122  21.569 -23.054  0.00  0.00     0.181 C 
ENDBRANCH  17  21
ENDBRANCH  14  15
ENDBRANCH   3  14
BRANCH   5  23
ATOM     23  C   UNL d   1      28.705  16.689 -24.076  0.00  0.00     0.004 A 
ATOM     24  C   UNL d   1      28.298  16.574 -23.377  0.00  0.00     0.000 A 
ATOM     25  C   UNL d   1      27.755  15.949 -23.305  0.00  0.00     0.000 A 
ATOM     26  C   UNL d   1      27.631  15.453 -23.933  0.00  0.00     0.000 A 
ATOM     27  C   UNL d   1      28.040  15.565 -24.641  0.00  0.00     0.000 A 
ATOM     28  C   UNL d   1      28.573  16.181 -24.708  0.00  0.00     0.000 A 
ENDBRANCH   5  23
TORSDOF 4
ENDMDL
MODEL 2
REMARK VINA RESULT:       0.3      2.575      4.005
REMARK  4 active torsions:
REMARK  status: ('A' for Active; 'I' for Inactive)
REMARK    1  A    between atoms: N_10  and  C_3 
REMARK    2  A    between atoms: C_11  and  C_5 
REMARK    3  A    between atoms: C_12  and  N_10 
REMARK    4  A    between atoms: O_18  and  C_15 
ROOT
ATOM      1  N   UNL d   1      32.835  19.908 -23.204  0.00  0.00    -0.184 N 
ATOM      2  C   UNL d   1      32.782  19.081 -23.076  0.00  0.00     0.168 A 
ATOM      3  C   UNL d   1      32.975  20.413 -22.565  0.00  0.00     0.217 A 
ATOM      4  N   UNL d   1      32.608  19.707 -24.591  0.00  0.00    -0.162 NA
ATOM      5  C   UNL d   1      32.645  18.587 -23.700  0.00  0.00     0.055 A 
ATOM      6  N   UNL d   1      32.872  18.788 -22.312  0.00  0.00    -0.227 NA
ATOM      7  C   UNL d   1      33.062  20.109 -21.817  0.00  0.00     0.066 A 
ATOM      8  C   UNL d   1      32.557  18.893 -24.464  0.00  0.00     0.104 A 
ATOM      9  C   UNL d   1      33.010  19.283 -21.680  0.00  0.00     0.087 A 
ATOM     10  C   UNL d   1      33.200  20.456 -21.097  0.00  0.00     0.006 A 
ATOM     11  C   UNL d   1      32.418  18.386 -25.091  0.00  0.00     0.023 C 
ATOM     12  C   UNL d   1      33.118  19.142 -20.880  0.00  0.00     0.019 A 
ATOM     13  C   UNL d   1      33.237  19.880 -20.518  0.00  0.00     0.002 A 
ENDROOT
BRANCH   3  14
ATOM     14  N   UNL d   1      33.029  21.249 -22.690  0.00  0.00    -0.383 NA
BRANCH  14  15
ATOM     15  C   UNL d   1      32.953  22.065 -22.890  0.00  0.00     0.135 A 
ATOM     16  C   UNL d   1      33.009  22.296 -23.694  0.00  0.00     0.056 A 
ATOM     17  C   UNL d   1      32.932  23.125 -23.903  0.00  0.00     0.097 A 
ATOM     18  C   UNL d   1      32.801  23.701 -23.289  0.00  0.00     0.024 A 
ATOM     19  C   UNL d   1      32.747  23.456 -22.485  0.00  0.00     0.005 A 
ATOM     20  C   UNL d   1      32.823  22.634 -22.279  0.00  0.00     0.032 A 
BRANCH  17  21
ATOM     21  O   UNL d   1      32.986  23.365 -24.701  0.00  0.00    -0.328 OA
ATOM     22  C   UNL d   1      32.315  23.698 -25.094  0.00  0.00     0.181 C 
ENDBRANCH  17  21
ENDBRANCH  14  15
ENDBRANCH   3  14
BRANCH   5  23
ATOM     23  C   UNL d   1      32.593  17.777 -23.574  0.00  0.00     0.004 A 
ATOM     24  C   UNL d   1      33.239  17.296 -23.713  0.00  0.00     0.000 A 
ATOM     25  C   UNL d   1      33.187  16.476 -23.586  0.00  0.00     0.000 A 
ATOM     26  C   UNL d   1      32.490  16.156 -23.323  0.00  0.00     0.000 A 
ATOM     27  C   UNL d   1      31.836  16.638 -23.181  0.00  0.00     0.000 A 
ATOM     28  C   UNL d   1      31.891  17.445 -23.308  0.00  0.00     0.000 A 
ENDBRANCH   5  23
TORSDOF 4
ENDMDL
MODEL 3
REMARK VINA RESULT:       0.7      2.714      5.871
REMARK  4 active torsions:
REMARK  status: ('A' for Active; 'I' for Inactive)
REMARK    1  A    between atoms: N_10  and  C_3 
REMARK    2  A    between atoms: C_11  and  C_5 
REMARK    3  A    between atoms: C_12  and  N_10 
REMARK    4  A    between atoms: O_18  and  C_15 
ROOT
ATOM      1  N   UNL d   1      32.789  21.168 -22.141  0.00  0.00    -0.184 N 
ATOM      2  C   UNL d   1      32.753  21.609 -21.429  0.00  0.00     0.168 A 
ATOM      3  C   UNL d   1      32.932  20.354 -22.111  0.00  0.00     0.217 A 
ATOM      4  N   UNL d   1      32.541  22.350 -22.886  0.00  0.00    -0.162 NA
ATOM      5  C   UNL d   1      32.614  22.404 -21.457  0.00  0.00     0.055 A 
ATOM      6  N   UNL d   1      32.862  21.221 -20.712  0.00  0.00    -0.227 NA
ATOM      7  C   UNL d   1      33.037  19.985 -21.396  0.00  0.00     0.066 A 
ATOM      8  C   UNL d   1      32.506  22.784 -22.185  0.00  0.00     0.104 A 
ATOM      9  C   UNL d   1      33.003  20.419 -20.679  0.00  0.00     0.087 A 
ATOM     10  C   UNL d   1      33.183  19.213 -21.194  0.00  0.00     0.006 A 
ATOM     11  C   UNL d   1      32.365  23.590 -22.205  0.00  0.00     0.023 C 
ATOM     12  C   UNL d   1      33.128  19.904 -20.054  0.00  0.00     0.019 A 
ATOM     13  C   UNL d   1      33.241  19.148 -20.381  0.00  0.00     0.002 A 
ENDROOT
BRANCH   3  14
ATOM     14  N   UNL d   1      32.969  19.905 -22.829  0.00  0.00    -0.383 NA
BRANCH  14  15
ATOM     15  C   UNL d   1      32.865  19.505 -23.564  0.00  0.00     0.135 A 
ATOM     16  C   UNL d   1      32.394  18.812 -23.590  0.00  0.00     0.056 A 
ATOM     17  C   UNL d   1      32.284  18.401 -24.336  0.00  0.00     0.097 A 
ATOM     18  C   UNL d   1      32.656  18.706 -25.039  0.00  0.00     0.024 A 
ATOM     19  C   UNL d   1      33.127  19.404 -25.000  0.00  0.00     0.005 A 
ATOM     20  C   UNL d   1      33.235  19.810 -24.261  0.00  0.00     0.032 A 
BRANCH  17  21
ATOM     21  O   UNL d   1      31.818  17.711 -24.371  0.00  0.00    -0.328 OA
ATOM     22  C   UNL d   1      30.974  17.761 -24.329  0.00  0.00     0.181 C 
ENDBRANCH  17  21
ENDBRANCH  14  15
ENDBRANCH   3  14
BRANCH   5  23
ATOM     23  C   UNL d   1      32.578  22.836 -20.760  0.00  0.00     0.004 A 
ATOM     24  C   UNL d   1      33.240  23.228 -20.483  0.00  0.00     0.000 A 
ATOM     25  C   UNL d   1      33.204  23.665 -19.778  0.00  0.00     0.000 A 
ATOM     26  C   UNL d   1      32.508  23.701 -19.364  0.00  0.00     0.000 A 
ATOM     27  C   UNL d   1      31.838  23.306 -19.639  0.00  0.00     0.000 A 
ATOM     28  C   UNL d   1      31.877  22.877 -20.334  0.00  0.00     0.000 A 
ENDBRANCH   5  23
TORSDOF 4
ENDMDL
