MODEL 1
REMARK VINA RESULT:      37.3      0.000      0.000
REMARK  5 active torsions:
REMARK  status: ('A' for Active; 'I' for Inactive)
REMARK    1  A    between atoms: C_3  and  C_1 
REMARK    2  A    between atoms: C_9  and  N_2 
REMARK    3  A    between atoms: C_7  and  C_3 
REMARK    4  A    between atoms: C_8  and  C_3 
REMARK    5  A    between atoms: C_20  and  C_6 
ROOT
ATOM      1  C   UNL d   1     -57.471 -98.970 -43.913  0.00  0.00     0.103 A 
ATOM      2  N   UNL d   1     -58.124 -98.921 -44.416  0.00  0.00    -0.269 N 
ATOM      3  S   UNL d   1     -57.736 -98.915 -43.129  0.00  0.00    -0.064 SA
ATOM      4  C   UNL d   1     -58.797 -98.835 -43.946  0.00  0.00     0.271 A 
ATOM      5  C   UNL d   1     -58.564 -98.831 -43.153  0.00  0.00     0.087 A 
ATOM      6  O   UNL d   1     -59.578 -98.764 -44.217  0.00  0.00    -0.266 OA
ENDROOT
BRANCH   2   7
ATOM      7  C   UNL d   1     -58.584 -98.898 -45.100  0.00  0.00     0.068 A 
ATOM      8  C   UNL d   1     -59.400 -98.988 -45.042  0.00  0.00     0.020 A 
ATOM      9  C   UNL d   1     -59.860 -98.965 -45.726  0.00  0.00     0.031 A 
ATOM     10  C   UNL d   1     -59.496 -98.853 -46.455  0.00  0.00     0.140 A 
ATOM     11  C   UNL d   1     -58.682 -98.764 -46.506  0.00  0.00     0.031 A 
ATOM     12  F   UNL d   1     -59.960 -98.830 -47.145  0.00  0.00    -0.204 F 
ATOM     13  C   UNL d   1     -58.220 -98.786 -45.825  0.00  0.00     0.020 A 
ENDBRANCH   2   7
BRANCH   1  14
ATOM     14  C   UNL d   1     -56.679 -99.060 -44.143  0.00  0.00     0.103 C 
BRANCH  14  15
ATOM     15  C   UNL d   1     -56.157 -99.459 -43.642  0.00  0.00     0.300 C 
ATOM     16  O   UNL d   1     -55.767-100.146 -43.900  0.00  0.00    -0.264 OA
ATOM     17  N   UNL d   1     -56.020 -99.172 -42.875  0.00  0.00    -0.102 N 
ENDBRANCH  14  15
BRANCH  14  18
ATOM     18  C   UNL d   1     -56.417 -98.758 -44.858  0.00  0.00     0.129 C 
ATOM     19  N   UNL d   1     -55.653 -98.932 -45.126  0.00  0.00    -0.146 N 
ENDBRANCH  14  18
ENDBRANCH   1  14
BRANCH   5  20
ATOM     20  C   UNL d   1     -59.061 -98.756 -42.499  0.00  0.00     0.011 C 
ATOM     21  C   UNL d   1     -59.853 -98.997 -42.556  0.00  0.00     0.001 C 
ENDBRANCH   5  20
TORSDOF 5
ENDMDL
MODEL 2
REMARK VINA RESULT:      39.1      1.463      2.600
REMARK  5 active torsions:
REMARK  status: ('A' for Active; 'I' for Inactive)
REMARK    1  A    between atoms: C_3  and  C_1 
REMARK    2  A    between atoms: C_9  and  N_2 
REMARK    3  A    between atoms: C_7  and  C_3 
REMARK    4  A    between atoms: C_8  and  C_3 
REMARK    5  A    between atoms: C_20  and  C_6 
ROOT
ATOM      1  C   UNL d   1     -57.167 -99.052 -44.756  0.00  0.00     0.103 A 
ATOM      2  N   UNL d   1     -57.864 -98.982 -44.320  0.00  0.00    -0.269 N 
ATOM      3  S   UNL d   1     -57.350 -98.978 -45.562  0.00  0.00    -0.064 SA
ATOM      4  C   UNL d   1     -58.483 -98.864 -44.853  0.00  0.00     0.271 A 
ATOM      5  C   UNL d   1     -58.172 -98.860 -45.619  0.00  0.00     0.087 A 
ATOM      6  O   UNL d   1     -59.284 -98.764 -44.658  0.00  0.00    -0.266 OA
ENDROOT
BRANCH   2   7
ATOM      7  C   UNL d   1     -58.388 -98.948 -43.684  0.00  0.00     0.068 A 
ATOM      8  C   UNL d   1     -59.191 -99.072 -43.815  0.00  0.00     0.020 A 
ATOM      9  C   UNL d   1     -59.716 -99.038 -43.179  0.00  0.00     0.031 A 
ATOM     10  C   UNL d   1     -59.428 -98.882 -42.425  0.00  0.00     0.140 A 
ATOM     11  C   UNL d   1     -58.625 -98.759 -42.301  0.00  0.00     0.031 A 
ATOM     12  F   UNL d   1     -59.957 -98.848 -41.784  0.00  0.00    -0.204 F 
ATOM     13  C   UNL d   1     -58.100 -98.793 -42.934  0.00  0.00     0.020 A 
ENDBRANCH   2   7
BRANCH   1  14
ATOM     14  C   UNL d   1     -56.406 -99.177 -44.450  0.00  0.00     0.103 C 
BRANCH  14  15
ATOM     15  C   UNL d   1     -55.794 -99.387 -44.965  0.00  0.00     0.300 C 
ATOM     16  O   UNL d   1     -55.222 -98.828 -45.189  0.00  0.00    -0.264 OA
ATOM     17  N   UNL d   1     -55.751-100.162 -45.261  0.00  0.00    -0.102 N 
ENDBRANCH  14  15
BRANCH  14  18
ATOM     18  C   UNL d   1     -56.261 -99.092 -43.649  0.00  0.00     0.129 C 
ATOM     19  N   UNL d   1     -55.482 -99.077 -43.368  0.00  0.00    -0.146 N 
ENDBRANCH  14  18
ENDBRANCH   1  14
BRANCH   5  20
ATOM     20  C   UNL d   1     -58.599 -98.758 -46.316  0.00  0.00     0.011 C 
ATOM     21  C   UNL d   1     -59.420 -98.874 -46.317  0.00  0.00     0.001 C 
ENDBRANCH   5  20
TORSDOF 5
ENDMDL
