MODEL 1
REMARK VINA RESULT:       3.0      0.000      0.000
REMARK  3 active torsions:
REMARK  status: ('A' for Active; 'I' for Inactive)
REMARK       I    between atoms: C_2  and  N_1 
REMARK    1  A    between atoms: C_4  and  N_1 
REMARK    2  A    between atoms: C_5  and  N_1 
REMARK    3  A    between atoms: C_6  and  C_2 
ROOT
ATOM      1  N   UNL d   1      24.192  12.802  -1.120  0.00  0.00    -0.274 N 
ATOM      2  C   UNL d   1      24.465  13.578  -0.948  0.00  0.00     0.276 C 
ATOM      3  O   UNL d   1      24.713  14.061  -1.553  0.00  0.00    -0.266 OA
ENDROOT
BRANCH   1   4
ATOM      4  C   UNL d   1      24.176  12.531  -1.898  0.00  0.00     0.067 A 
ATOM      5  C   UNL d   1      24.768  12.034  -2.185  0.00  0.00     0.018 A 
ATOM      6  C   UNL d   1      24.721  11.779  -2.974  0.00  0.00     0.002 A 
ATOM      7  C   UNL d   1      24.100  12.017  -3.460  0.00  0.00     0.000 A 
ATOM      8  C   UNL d   1      23.521  12.507  -3.167  0.00  0.00     0.002 A 
ATOM      9  C   UNL d   1      23.552  12.770  -2.382  0.00  0.00     0.018 A 
ENDBRANCH   1   4
BRANCH   1  10
ATOM     10  C   UNL d   1      23.945  12.328  -0.500  0.00  0.00     0.067 C 
ATOM     11  C   UNL d   1      23.137  12.372  -0.255  0.00  0.00     0.019 C 
ATOM     12  C   UNL d   1      24.449  11.811  -0.107  0.00  0.00     0.019 C 
ENDBRANCH   1  10
BRANCH   2  13
ATOM     13  C   UNL d   1      24.475  13.834  -0.169  0.00  0.00     0.129 C 
ATOM     14 CL   UNL d   1      24.662  14.626  -0.015  0.00  0.00    -0.076 Cl
ENDBRANCH   2  13
TORSDOF 3
ENDMDL
