MODEL 1
REMARK VINA RESULT:      22.3      0.000      0.000
REMARK  2 active torsions:
REMARK  status: ('A' for Active; 'I' for Inactive)
REMARK    1  A    between atoms: C_6  and  C_1 
REMARK    2  A    between atoms: C_7  and  C_5 
ROOT
ATOM      1  C   UNL d   1      57.295  49.535  50.293  0.00  0.00     0.169 A 
ATOM      2  C   UNL d   1      57.682  49.478  51.026  0.00  0.00     0.048 A 
ATOM      3  N   UNL d   1      58.545  49.634  49.638  0.00  0.00    -0.148 NA
ATOM      4  N   UNL d   1      57.726  49.613  49.597  0.00  0.00    -0.142 NA
ATOM      5  C   UNL d   1      58.934  49.578  50.365  0.00  0.00     0.105 A 
ENDROOT
BRANCH   5   6
ATOM      6  C   UNL d   1      59.720  49.578  50.610  0.00  0.00     0.019 A 
ATOM      7  C   UNL d   1      59.895  49.612  51.415  0.00  0.00     0.002 A 
ATOM      8  C   UNL d   1      60.681  49.612  51.661  0.00  0.00     0.000 A 
ATOM      9  C   UNL d   1      60.869  49.647  52.498  0.00  0.00     0.000 C 
ATOM     10  C   UNL d   1      61.292  49.580  51.100  0.00  0.00     0.000 A 
ATOM     11  C   UNL d   1      61.107  49.547  50.298  0.00  0.00     0.000 A 
ATOM     12  C   UNL d   1      62.079  49.581  51.349  0.00  0.00     0.000 C 
ATOM     13  C   UNL d   1      60.327  49.546  50.052  0.00  0.00     0.002 A 
ENDBRANCH   5   6
BRANCH   1  14
ATOM     14  C   UNL d   1      56.469  49.512  50.266  0.00  0.00     0.231 C 
ATOM     15  O   UNL d   1      56.035  49.577  50.961  0.00  0.00    -0.643 OA
ATOM     16  O   UNL d   1      56.083  49.426  49.548  0.00  0.00    -0.643 OA
ENDBRANCH   1  14
TORSDOF 2
ENDMDL
