MODEL 1
REMARK VINA RESULT:     -11.1      0.000      0.000
REMARK  2 active torsions:
REMARK  status: ('A' for Active; 'I' for Inactive)
REMARK    1  A    between atoms: N_9  and  C_2 
REMARK    2  A    between atoms: C_4  and  N_10 
ROOT
ATOM      1  C   UNL d   1      52.839  33.139  53.666  0.00  0.00     0.152 A 
ATOM      2  C   UNL d   1      52.265  32.829  53.160  0.00  0.00     0.174 A 
ATOM      3  C   UNL d   1      53.510  32.695  53.849  0.00  0.00     0.111 A 
ATOM      4  O   UNL d   1      52.893  33.858  54.065  0.00  0.00    -0.302 OA
ATOM      5  N   UNL d   1      52.362  32.077  52.837  0.00  0.00    -0.207 NA
ATOM      6  C   UNL d   1      53.979  33.139  54.359  0.00  0.00     0.043 A 
ATOM      7  N   UNL d   1      53.607  31.943  53.525  0.00  0.00    -0.225 NA
ATOM      8  C   UNL d   1      53.598  33.860  54.494  0.00  0.00     0.102 A 
ATOM      9  C   UNL d   1      53.032  31.635  53.019  0.00  0.00     0.164 A 
ATOM     10  C   UNL d   1      54.704  32.983  54.720  0.00  0.00     0.004 A 
ATOM     11  C   UNL d   1      53.942  34.423  54.990  0.00  0.00     0.025 A 
ATOM     12  C   UNL d   1      53.129  30.883  52.695  0.00  0.00     0.042 C 
ATOM     13  C   UNL d   1      55.048  33.548  55.216  0.00  0.00     0.000 A 
ATOM     14  C   UNL d   1      54.666  34.267  55.351  0.00  0.00     0.002 A 
ENDROOT
BRANCH   2  15
ATOM     15  N   UNL d   1      51.593  33.274  52.979  0.00  0.00    -0.285 N 
ATOM     16  C   UNL d   1      50.900  33.167  53.413  0.00  0.00     0.101 A 
ATOM     17  C   UNL d   1      50.228  33.612  53.232  0.00  0.00     0.117 A 
ATOM     18  N   UNL d   1      50.251  34.162  52.618  0.00  0.00    -0.135 N 
ATOM     19  C   UNL d   1      50.944  34.268  52.185  0.00  0.00     0.117 A 
ATOM     20  C   UNL d   1      51.616  33.824  52.365  0.00  0.00     0.101 A 
BRANCH  18  21
ATOM     21  C   UNL d   1      49.579  34.606  52.438  0.00  0.00     0.735 A 
ATOM     22  N   UNL d   1      49.215  34.523  51.703  0.00  0.00    -0.060 NA
ATOM     23  C   UNL d   1      48.544  34.966  51.522  0.00  0.00     0.101 A 
ATOM     24  C   UNL d   1      48.179  34.882  50.786  0.00  0.00     0.021 C 
ATOM     25  C   UNL d   1      48.235  35.494  52.077  0.00  0.00     0.040 A 
ATOM     26  C   UNL d   1      48.600  35.577  52.812  0.00  0.00     0.101 A 
ATOM     27  N   UNL d   1      49.272  35.133  52.993  0.00  0.00    -0.060 NA
ATOM     28  C   UNL d   1      48.293  36.104  53.367  0.00  0.00     0.021 C 
ENDBRANCH  18  21
ENDBRANCH   2  15
TORSDOF 2
ENDMDL
MODEL 2
REMARK VINA RESULT:     -10.7      0.798      2.261
REMARK  2 active torsions:
REMARK  status: ('A' for Active; 'I' for Inactive)
REMARK    1  A    between atoms: N_9  and  C_2 
REMARK    2  A    between atoms: C_4  and  N_10 
ROOT
ATOM      1  C   UNL d   1      52.681  32.579  53.461  0.00  0.00     0.152 A 
ATOM      2  C   UNL d   1      52.515  33.377  53.586  0.00  0.00     0.174 A 
ATOM      3  C   UNL d   1      53.385  32.255  53.745  0.00  0.00     0.111 A 
ATOM      4  O   UNL d   1      52.260  31.980  53.082  0.00  0.00    -0.302 OA
ATOM      5  N   UNL d   1      53.052  33.852  53.994  0.00  0.00    -0.207 NA
ATOM      6  C   UNL d   1      53.400  31.457  53.541  0.00  0.00     0.043 A 
ATOM      7  N   UNL d   1      53.922  32.729  54.152  0.00  0.00    -0.225 NA
ATOM      8  C   UNL d   1      52.704  31.286  53.130  0.00  0.00     0.102 A 
ATOM      9  C   UNL d   1      53.755  33.528  54.277  0.00  0.00     0.164 A 
ATOM     10  C   UNL d   1      53.956  30.863  53.675  0.00  0.00     0.004 A 
ATOM     11  C   UNL d   1      52.564  30.520  52.854  0.00  0.00     0.025 A 
ATOM     12  C   UNL d   1      54.292  34.003  54.684  0.00  0.00     0.042 C 
ATOM     13  C   UNL d   1      53.816  30.097  53.398  0.00  0.00     0.000 A 
ATOM     14  C   UNL d   1      53.120  29.927  52.987  0.00  0.00     0.002 A 
ENDROOT
BRANCH   2  15
ATOM     15  N   UNL d   1      51.810  33.700  53.302  0.00  0.00    -0.285 N 
ATOM     16  C   UNL d   1      51.108  33.586  53.721  0.00  0.00     0.101 A 
ATOM     17  C   UNL d   1      50.403  33.909  53.438  0.00  0.00     0.117 A 
ATOM     18  N   UNL d   1      50.401  34.344  52.737  0.00  0.00    -0.135 N 
ATOM     19  C   UNL d   1      51.102  34.457  52.319  0.00  0.00     0.117 A 
ATOM     20  C   UNL d   1      51.808  34.135  52.602  0.00  0.00     0.101 A 
BRANCH  18  21
ATOM     21  C   UNL d   1      49.695  34.666  52.454  0.00  0.00     0.735 A 
ATOM     22  N   UNL d   1      49.265  35.191  52.922  0.00  0.00    -0.060 NA
ATOM     23  C   UNL d   1      48.561  35.513  52.642  0.00  0.00     0.101 A 
ATOM     24  C   UNL d   1      48.130  36.039  53.110  0.00  0.00     0.021 C 
ATOM     25  C   UNL d   1      48.284  35.310  51.890  0.00  0.00     0.040 A 
ATOM     26  C   UNL d   1      48.715  34.785  51.422  0.00  0.00     0.101 A 
ATOM     27  N   UNL d   1      49.420  34.462  51.704  0.00  0.00    -0.060 NA
ATOM     28  C   UNL d   1      48.439  34.581  50.672  0.00  0.00     0.021 C 
ENDBRANCH  18  21
ENDBRANCH   2  15
TORSDOF 2
ENDMDL
MODEL 3
REMARK VINA RESULT:      -8.1      1.093      5.329
REMARK  2 active torsions:
REMARK  status: ('A' for Active; 'I' for Inactive)
REMARK    1  A    between atoms: N_9  and  C_2 
REMARK    2  A    between atoms: C_4  and  N_10 
ROOT
ATOM      1  C   UNL d   1      49.116  35.128  52.946  0.00  0.00     0.152 A 
ATOM      2  C   UNL d   1      49.581  34.649  52.460  0.00  0.00     0.174 A 
ATOM      3  C   UNL d   1      48.392  35.412  52.673  0.00  0.00     0.111 A 
ATOM      4  O   UNL d   1      49.228  35.410  53.712  0.00  0.00    -0.302 OA
ATOM      5  N   UNL d   1      49.321  34.454  51.702  0.00  0.00    -0.207 NA
ATOM      6  C   UNL d   1      48.055  35.870  53.269  0.00  0.00     0.043 A 
ATOM      7  N   UNL d   1      48.132  35.218  51.915  0.00  0.00    -0.225 NA
ATOM      8  C   UNL d   1      48.572  35.869  53.914  0.00  0.00     0.102 A 
ATOM      9  C   UNL d   1      48.597  34.738  51.430  0.00  0.00     0.164 A 
ATOM     10  C   UNL d   1      47.345  36.287  53.311  0.00  0.00     0.004 A 
ATOM     11  C   UNL d   1      48.378  36.286  54.599  0.00  0.00     0.025 A 
ATOM     12  C   UNL d   1      48.338  34.543  50.672  0.00  0.00     0.042 C 
ATOM     13  C   UNL d   1      47.152  36.704  53.998  0.00  0.00     0.000 A 
ATOM     14  C   UNL d   1      47.669  36.703  54.642  0.00  0.00     0.002 A 
ENDROOT
BRANCH   2  15
ATOM     15  N   UNL d   1      50.306  34.365  52.735  0.00  0.00    -0.285 N 
ATOM     16  C   UNL d   1      50.992  34.808  52.615  0.00  0.00     0.101 A 
ATOM     17  C   UNL d   1      51.717  34.525  52.889  0.00  0.00     0.117 A 
ATOM     18  N   UNL d   1      51.756  33.800  53.283  0.00  0.00    -0.135 N 
ATOM     19  C   UNL d   1      51.070  33.359  53.401  0.00  0.00     0.117 A 
ATOM     20  C   UNL d   1      50.344  33.641  53.127  0.00  0.00     0.101 A 
BRANCH  18  21
ATOM     21  C   UNL d   1      52.481  33.518  53.556  0.00  0.00     0.735 A 
ATOM     22  N   UNL d   1      52.925  33.968  54.086  0.00  0.00    -0.060 NA
ATOM     23  C   UNL d   1      53.649  33.688  54.361  0.00  0.00     0.101 A 
ATOM     24  C   UNL d   1      54.093  34.138  54.891  0.00  0.00     0.021 C 
ATOM     25  C   UNL d   1      53.932  32.955  54.105  0.00  0.00     0.040 A 
ATOM     26  C   UNL d   1      53.489  32.505  53.574  0.00  0.00     0.101 A 
ATOM     27  N   UNL d   1      52.763  32.787  53.300  0.00  0.00    -0.060 NA
ATOM     28  C   UNL d   1      53.770  31.774  53.318  0.00  0.00     0.021 C 
ENDBRANCH  18  21
ENDBRANCH   2  15
TORSDOF 2
ENDMDL
