MODEL 1
REMARK VINA RESULT:       0.3      0.000      0.000
REMARK  5 active torsions:
REMARK  status: ('A' for Active; 'I' for Inactive)
REMARK    1  A    between atoms: O_5  and  C_1 
REMARK    2  A    between atoms: C_10  and  C_2 
REMARK    3  A    between atoms: C_3  and  O_5 
REMARK    4  A    between atoms: C_6  and  C_3 
REMARK    5  A    between atoms: N_11  and  C_10 
ROOT
ATOM      1  C   UNL d   1      33.240  20.987 -22.718  0.00  0.00     0.122 A 
ATOM      2  C   UNL d   1      33.240  21.399 -22.003  0.00  0.00     0.043 A 
ATOM      3  C   UNL d   1      33.240  21.401 -23.431  0.00  0.00     0.105 A 
ATOM      4  C   UNL d   1      33.239  22.225 -23.430  0.00  0.00     0.030 A 
ATOM      5  C   UNL d   1      33.239  22.627 -22.716  0.00  0.00     0.059 A 
ATOM      6  C   UNL d   1      33.239  22.223 -22.002  0.00  0.00     0.015 A 
ATOM      7  N   UNL d   1      33.240  20.989 -24.138  0.00  0.00    -0.242 NA
ATOM      8 CL   UNL d   1      33.238  23.462 -22.740  0.00  0.00    -0.082 Cl
ATOM      9  C   UNL d   1      33.239  22.629 -24.136  0.00  0.00     0.004 A 
ATOM     10  C   UNL d   1      33.239  21.403 -24.851  0.00  0.00     0.099 A 
ATOM     11  C   UNL d   1      33.239  22.227 -24.850  0.00  0.00     0.021 A 
ENDROOT
BRANCH   1  12
ATOM     12  O   UNL d   1      33.241  20.240 -22.730  0.00  0.00    -0.271 OA
BRANCH  12  13
ATOM     13  C   UNL d   1      32.640  19.490 -22.650  0.00  0.00     0.302 C 
ATOM     14  O   UNL d   1      31.780  19.702 -22.178  0.00  0.00    -0.259 OA
BRANCH  13  15
ATOM     15  C   UNL d   1      32.837  18.750 -22.951  0.00  0.00     0.091 A 
ATOM     16  C   UNL d   1      32.924  18.103 -22.435  0.00  0.00     0.145 A 
ATOM     17  F   UNL d   1      32.819  18.148 -21.567  0.00  0.00    -0.204 F 
ATOM     18  C   UNL d   1      33.124  17.354 -22.744  0.00  0.00     0.030 A 
ATOM     19  C   UNL d   1      33.237  17.250 -23.565  0.00  0.00     0.002 A 
ATOM     20  C   UNL d   1      33.149  17.898 -24.076  0.00  0.00     0.000 A 
ATOM     21  C   UNL d   1      32.950  18.646 -23.767  0.00  0.00     0.008 A 
ENDBRANCH  13  15
ENDBRANCH  12  13
ENDBRANCH   1  12
BRANCH   2  22
ATOM     22  C   UNL d   1      33.240  21.124 -21.136  0.00  0.00     0.082 C 
BRANCH  22  23
ATOM     23  N   UNL d   1      32.828  21.558 -20.574  0.00  0.00    -0.299 N 
ATOM     24  C   UNL d   1      33.237  21.987 -20.013  0.00  0.00     0.107 A 
ATOM     25  C   UNL d   1      32.834  22.429 -19.441  0.00  0.00     0.142 A 
ATOM     26  O   UNL d   1      32.018  22.431 -19.445  0.00  0.00    -0.300 OA
ATOM     27  C   UNL d   1      31.600  21.997 -20.014  0.00  0.00     0.142 A 
ATOM     28  C   UNL d   1      32.014  21.564 -20.573  0.00  0.00     0.107 A 
ENDBRANCH  22  23
ENDBRANCH   2  22
TORSDOF 5
ENDMDL
MODEL 2
REMARK VINA RESULT:       2.4      1.881      4.389
REMARK  5 active torsions:
REMARK  status: ('A' for Active; 'I' for Inactive)
REMARK    1  A    between atoms: O_5  and  C_1 
REMARK    2  A    between atoms: C_10  and  C_2 
REMARK    3  A    between atoms: C_3  and  O_5 
REMARK    4  A    between atoms: C_6  and  C_3 
REMARK    5  A    between atoms: N_11  and  C_10 
ROOT
ATOM      1  C   UNL d   1      33.240  20.413 -22.301  0.00  0.00     0.122 A 
ATOM      2  C   UNL d   1      33.241  19.659 -22.635  0.00  0.00     0.043 A 
ATOM      3  C   UNL d   1      33.240  20.499 -21.480  0.00  0.00     0.105 A 
ATOM      4  C   UNL d   1      33.241  19.833 -20.995  0.00  0.00     0.030 A 
ATOM      5  C   UNL d   1      33.241  19.087 -21.335  0.00  0.00     0.059 A 
ATOM      6  C   UNL d   1      33.241  18.992 -22.150  0.00  0.00     0.015 A 
ATOM      7  N   UNL d   1      33.240  21.248 -21.153  0.00  0.00    -0.242 NA
ATOM      8 CL   UNL d   1      33.241  18.427 -20.824  0.00  0.00    -0.082 Cl
ATOM      9  C   UNL d   1      33.241  19.923 -20.187  0.00  0.00     0.004 A 
ATOM     10  C   UNL d   1      33.240  21.335 -20.332  0.00  0.00     0.099 A 
ATOM     11  C   UNL d   1      33.240  20.669 -19.847  0.00  0.00     0.021 A 
ENDROOT
BRANCH   1  12
ATOM     12  O   UNL d   1      33.240  21.023 -22.731  0.00  0.00    -0.271 OA
BRANCH  12  13
ATOM     13  C   UNL d   1      32.702  21.798 -22.931  0.00  0.00     0.302 C 
ATOM     14  O   UNL d   1      31.984  21.984 -22.255  0.00  0.00    -0.259 OA
BRANCH  13  15
ATOM     15  C   UNL d   1      32.838  22.252 -23.604  0.00  0.00     0.091 A 
ATOM     16  C   UNL d   1      32.939  23.075 -23.535  0.00  0.00     0.145 A 
ATOM     17  F   UNL d   1      32.911  23.512 -22.778  0.00  0.00    -0.204 F 
ATOM     18  C   UNL d   1      33.077  23.532 -24.219  0.00  0.00     0.030 A 
ATOM     19  C   UNL d   1      33.114  23.169 -24.971  0.00  0.00     0.002 A 
ATOM     20  C   UNL d   1      33.013  22.348 -25.035  0.00  0.00     0.000 A 
ATOM     21  C   UNL d   1      32.876  21.892 -24.351  0.00  0.00     0.008 A 
ENDBRANCH  13  15
ENDBRANCH  12  13
ENDBRANCH   1  12
BRANCH   2  22
ATOM     22  C   UNL d   1      33.241  19.369 -23.498  0.00  0.00     0.082 C 
BRANCH  22  23
ATOM     23  N   UNL d   1      32.715  18.782 -23.727  0.00  0.00    -0.299 N 
ATOM     24  C   UNL d   1      32.970  18.009 -23.784  0.00  0.00     0.107 A 
ATOM     25  C   UNL d   1      32.451  17.407 -24.014  0.00  0.00     0.142 A 
ATOM     26  O   UNL d   1      31.676  17.597 -24.183  0.00  0.00    -0.300 OA
ATOM     27  C   UNL d   1      31.413  18.381 -24.126  0.00  0.00     0.142 A 
ATOM     28  C   UNL d   1      31.941  18.965 -23.897  0.00  0.00     0.107 A 
ENDBRANCH  22  23
ENDBRANCH   2  22
TORSDOF 5
ENDMDL
