MODEL 1
REMARK VINA RESULT:      41.5      0.000      0.000
REMARK  1 active torsions:
REMARK  status: ('A' for Active; 'I' for Inactive)
REMARK    1  A    between atoms: C_8  and  C_1 
ROOT
ATOM      1  C   UNL d   1     -58.012 -98.766 -45.014  0.00  0.00     0.010 A 
ATOM      2  C   UNL d   1     -57.209 -98.765 -44.811  0.00  0.00     0.062 A 
ATOM      3  C   UNL d   1     -56.635 -98.763 -45.409  0.00  0.00     0.106 A 
ATOM      4  C   UNL d   1     -56.978 -98.767 -44.022  0.00  0.00     0.198 A 
ATOM      5  O   UNL d   1     -56.863 -98.761 -46.199  0.00  0.00    -0.273 OA
ATOM      6  C   UNL d   1     -58.243 -98.764 -45.803  0.00  0.00     0.069 A 
ATOM      7  C   UNL d   1     -57.672 -98.761 -46.398  0.00  0.00     0.300 A 
ATOM      8  C   UNL d   1     -55.835 -98.762 -45.213  0.00  0.00     0.025 A 
ATOM      9  C   UNL d   1     -56.178 -98.767 -43.821  0.00  0.00     0.042 A 
ATOM     10  O   UNL d   1     -57.901 -98.760 -47.195  0.00  0.00    -0.259 OA
ATOM     11  C   UNL d   1     -55.607 -98.764 -44.417  0.00  0.00     0.005 A 
ATOM     12  O   UNL d   1     -57.552 -98.770 -43.424  0.00  0.00    -0.286 OA
ATOM     13  C   UNL d   1     -54.807 -98.764 -44.226  0.00  0.00     0.000 C 
ENDROOT
BRANCH   1  14
ATOM     14  C   UNL d   1     -58.586 -98.768 -44.416  0.00  0.00     0.000 A 
ATOM     15  C   UNL d   1     -58.352 -98.756 -43.621  0.00  0.00     0.000 A 
ATOM     16  C   UNL d   1     -58.932 -98.758 -43.016  0.00  0.00     0.000 A 
ATOM     17  C   UNL d   1     -59.731 -98.773 -43.212  0.00  0.00     0.000 A 
ATOM     18  C   UNL d   1     -59.957 -98.786 -44.018  0.00  0.00     0.000 A 
ATOM     19  C   UNL d   1     -59.385 -98.783 -44.613  0.00  0.00     0.000 A 
ENDBRANCH   1  14
TORSDOF 1
ENDMDL
