MODEL 1
REMARK VINA RESULT:      -7.2      0.000      0.000
REMARK  11 active torsions:
REMARK  status: ('A' for Active; 'I' for Inactive)
REMARK    1  A    between atoms: C_2  and  C_1 
REMARK       I    between atoms: N_5  and  C_1 
REMARK    2  A    between atoms: C_4  and  C_2 
REMARK    3  A    between atoms: C_3  and  C_4 
REMARK    4  A    between atoms: O_10  and  C_3 
REMARK    5  A    between atoms: N_9  and  C_4 
REMARK    6  A    between atoms: C_8  and  N_5 
REMARK    7  A    between atoms: C_17  and  N_9 
REMARK    8  A    between atoms: O_16  and  C_11 
REMARK    9  A    between atoms: C_19  and  C_17 
REMARK   10  A    between atoms: C_21  and  C_19 
REMARK   11  A    between atoms: C_20  and  C_21 
ROOT
ATOM      1  C   UNK d   1      52.396  33.392  52.776  0.00  0.00     0.084 C 
ENDROOT
BRANCH   1   2
ATOM      2  C   UNK d   1      52.460  32.620  53.076  0.00  0.00     0.259 C 
ATOM      3  N   UNK d   1      53.050  32.119  52.797  0.00  0.00    -0.321 N 
ATOM      4  H   UNK d   1      53.580  32.379  52.220  0.00  0.00     0.169 HD
ATOM      5  O   UNK d   1      51.930  32.367  53.651  0.00  0.00    -0.267 OA
BRANCH   3   6
ATOM      6  C   UNK d   1      53.108  31.344  53.104  0.00  0.00     0.059 A 
ATOM      7  C   UNK d   1      52.626  30.749  52.805  0.00  0.00     0.019 A 
ATOM      8  C   UNK d   1      52.686  29.987  53.110  0.00  0.00     0.026 A 
ATOM      9  C   UNK d   1      53.225  29.817  53.712  0.00  0.00     0.094 A 
ATOM     10  C   UNK d   1      53.706  30.419  54.008  0.00  0.00     0.026 A 
ATOM     11  C   UNK d   1      53.643  31.185  53.698  0.00  0.00     0.019 A 
BRANCH   9  12
ATOM     12  O   UNK d   1      53.285  29.055  54.016  0.00  0.00    -0.328 OA
ATOM     13  C   UNK d   1      53.280  28.936  54.829  0.00  0.00     0.181 C 
ENDBRANCH   9  12
ENDBRANCH   3   6
ENDBRANCH   1   2
BRANCH   1  14
ATOM     14  C   UNK d   1      51.997  33.969  53.198  0.00  0.00     0.124 C 
BRANCH  14  15
ATOM     15  C   UNK d   1      52.417  34.512  53.653  0.00  0.00     0.194 C 
ATOM     16  O   UNK d   1      53.007  34.984  53.305  0.00  0.00    -0.645 OA
BRANCH  15  17
ATOM     17  O   UNK d   1      52.257  34.592  54.454  0.00  0.00    -0.772 OA
ATOM     18  H   UNK d   1      51.480  34.541  54.725  0.00  0.00     0.167 HD
ENDBRANCH  15  17
ENDBRANCH  14  15
BRANCH  14  19
ATOM     19  N   UNK d   1      51.167  34.006  53.165  0.00  0.00    -0.347 N 
ATOM     20  H   UNK d   1      50.721  33.684  53.780  0.00  0.00     0.166 HD
BRANCH  19  21
ATOM     21  C   UNK d   0      50.795  34.362  52.523  0.00  0.00     0.073 C 
BRANCH  21  22
ATOM     22  C   UNK d   0      49.973  34.426  52.510  0.00  0.00     0.018 C 
BRANCH  22  23
ATOM     23  C   UNK d   0      49.585  34.517  51.784  0.00  0.00     0.002 C 
BRANCH  23  24
ATOM     24  C   UNK d   0      48.817  34.812  51.751  0.00  0.00     0.000 C 
ATOM     25  C   UNK d   0      48.409  34.780  51.034  0.00  0.00     0.000 C 
ENDBRANCH  23  24
ENDBRANCH  22  23
ENDBRANCH  21  22
ENDBRANCH  19  21
ENDBRANCH  14  19
ENDBRANCH   1  14
TORSDOF 11
ENDMDL
MODEL 2
REMARK VINA RESULT:      -6.7      1.453      4.915
REMARK  11 active torsions:
REMARK  status: ('A' for Active; 'I' for Inactive)
REMARK    1  A    between atoms: C_2  and  C_1 
REMARK       I    between atoms: N_5  and  C_1 
REMARK    2  A    between atoms: C_4  and  C_2 
REMARK    3  A    between atoms: C_3  and  C_4 
REMARK    4  A    between atoms: O_10  and  C_3 
REMARK    5  A    between atoms: N_9  and  C_4 
REMARK    6  A    between atoms: C_8  and  N_5 
REMARK    7  A    between atoms: C_17  and  N_9 
REMARK    8  A    between atoms: O_16  and  C_11 
REMARK    9  A    between atoms: C_19  and  C_17 
REMARK   10  A    between atoms: C_21  and  C_19 
REMARK   11  A    between atoms: C_20  and  C_21 
ROOT
ATOM      1  C   UNK d   1      53.215  32.706  53.937  0.00  0.00     0.084 C 
ENDROOT
BRANCH   1   2
ATOM      2  C   UNK d   1      52.613  32.969  53.428  0.00  0.00     0.259 C 
ATOM      3  N   UNK d   1      52.067  33.524  53.693  0.00  0.00    -0.321 N 
ATOM      4  H   UNK d   1      52.112  33.822  54.462  0.00  0.00     0.169 HD
ATOM      5  O   UNK d   1      52.573  32.669  52.664  0.00  0.00    -0.267 OA
BRANCH   3   6
ATOM      6  C   UNK d   1      51.464  33.784  53.175  0.00  0.00     0.059 A 
ATOM      7  C   UNK d   1      51.650  34.282  52.549  0.00  0.00     0.019 A 
ATOM      8  C   UNK d   1      51.053  34.535  52.041  0.00  0.00     0.026 A 
ATOM      9  C   UNK d   1      50.273  34.293  52.157  0.00  0.00     0.094 A 
ATOM     10  C   UNK d   1      50.092  33.792  52.789  0.00  0.00     0.026 A 
ATOM     11  C   UNK d   1      50.696  33.539  53.297  0.00  0.00     0.019 A 
BRANCH   9  12
ATOM     12  O   UNK d   1      49.677  34.546  51.650  0.00  0.00    -0.328 OA
ATOM     13  C   UNK d   1      48.981  34.859  51.956  0.00  0.00     0.181 C 
ENDBRANCH   9  12
ENDBRANCH   3   6
ENDBRANCH   1   2
BRANCH   1  14
ATOM     14  C   UNK d   1      53.856  32.293  53.641  0.00  0.00     0.124 C 
BRANCH  14  15
ATOM     15  C   UNK d   1      54.594  32.656  53.592  0.00  0.00     0.194 C 
ATOM     16  O   UNK d   1      54.910  33.057  54.249  0.00  0.00    -0.645 OA
BRANCH  15  17
ATOM     17  O   UNK d   1      55.025  32.624  52.894  0.00  0.00    -0.772 OA
ATOM     18  H   UNK d   1      54.633  32.608  52.169  0.00  0.00     0.167 HD
ENDBRANCH  15  17
ENDBRANCH  14  15
BRANCH  14  19
ATOM     19  N   UNK d   1      53.762  31.506  53.391  0.00  0.00    -0.347 N 
ATOM     20  H   UNK d   1      53.750  31.333  52.585  0.00  0.00     0.166 HD
BRANCH  19  21
ATOM     21  C   UNK d   0      53.681  30.903  53.947  0.00  0.00     0.073 C 
BRANCH  21  22
ATOM     22  C   UNK d   0      53.635  30.119  53.696  0.00  0.00     0.018 C 
BRANCH  22  23
ATOM     23  C   UNK d   0      53.238  29.566  54.168  0.00  0.00     0.002 C 
BRANCH  23  24
ATOM     24  C   UNK d   0      53.593  28.850  54.366  0.00  0.00     0.000 C 
ATOM     25  C   UNK d   0      53.343  28.456  55.048  0.00  0.00     0.000 C 
ENDBRANCH  23  24
ENDBRANCH  22  23
ENDBRANCH  21  22
ENDBRANCH  19  21
ENDBRANCH  14  19
ENDBRANCH   1  14
TORSDOF 11
ENDMDL
MODEL 3
REMARK VINA RESULT:      -6.6      0.691      1.099
REMARK  11 active torsions:
REMARK  status: ('A' for Active; 'I' for Inactive)
REMARK    1  A    between atoms: C_2  and  C_1 
REMARK       I    between atoms: N_5  and  C_1 
REMARK    2  A    between atoms: C_4  and  C_2 
REMARK    3  A    between atoms: C_3  and  C_4 
REMARK    4  A    between atoms: O_10  and  C_3 
REMARK    5  A    between atoms: N_9  and  C_4 
REMARK    6  A    between atoms: C_8  and  N_5 
REMARK    7  A    between atoms: C_17  and  N_9 
REMARK    8  A    between atoms: O_16  and  C_11 
REMARK    9  A    between atoms: C_19  and  C_17 
REMARK   10  A    between atoms: C_21  and  C_19 
REMARK   11  A    between atoms: C_20  and  C_21 
ROOT
ATOM      1  C   UNK d   1      53.219  33.678  53.434  0.00  0.00     0.084 C 
ENDROOT
BRANCH   1   2
ATOM      2  C   UNK d   1      53.191  32.870  53.629  0.00  0.00     0.259 C 
ATOM      3  N   UNK d   1      53.294  32.303  53.043  0.00  0.00    -0.321 N 
ATOM      4  H   UNK d   1      53.424  32.530  52.260  0.00  0.00     0.169 HD
ATOM      5  O   UNK d   1      53.061  32.651  54.411  0.00  0.00    -0.267 OA
BRANCH   3   6
ATOM      6  C   UNK d   1      53.264  31.493  53.248  0.00  0.00     0.059 A 
ATOM      7  C   UNK d   1      53.843  31.174  53.738  0.00  0.00     0.019 A 
ATOM      8  C   UNK d   1      53.810  30.376  53.937  0.00  0.00     0.026 A 
ATOM      9  C   UNK d   1      53.203  29.897  53.650  0.00  0.00     0.094 A 
ATOM     10  C   UNK d   1      52.625  30.223  53.158  0.00  0.00     0.026 A 
ATOM     11  C   UNK d   1      52.661  31.026  52.960  0.00  0.00     0.019 A 
BRANCH   9  12
ATOM     12  O   UNK d   1      53.171  29.099  53.850  0.00  0.00    -0.328 OA
ATOM     13  C   UNK d   1      53.319  28.862  54.622  0.00  0.00     0.181 C 
ENDBRANCH   9  12
ENDBRANCH   3   6
ENDBRANCH   1   2
BRANCH   1  14
ATOM     14  C   UNK d   1      52.771  34.221  53.850  0.00  0.00     0.124 C 
BRANCH  14  15
ATOM     15  C   UNK d   1      53.140  34.791  54.314  0.00  0.00     0.194 C 
ATOM     16  O   UNK d   1      52.969  34.847  55.127  0.00  0.00    -0.645 OA
BRANCH  15  17
ATOM     17  O   UNK d   1      53.681  35.310  53.980  0.00  0.00    -0.772 OA
ATOM     18  H   UNK d   1      54.020  35.904  54.440  0.00  0.00     0.167 HD
ENDBRANCH  15  17
ENDBRANCH  14  15
BRANCH  14  19
ATOM     19  N   UNK d   1      51.941  34.196  53.802  0.00  0.00    -0.347 N 
ATOM     20  H   UNK d   1      51.510  33.819  54.396  0.00  0.00     0.166 HD
BRANCH  19  21
ATOM     21  C   UNK d   0      51.554  34.546  53.165  0.00  0.00     0.073 C 
BRANCH  21  22
ATOM     22  C   UNK d   0      50.730  34.546  53.137  0.00  0.00     0.018 C 
BRANCH  22  23
ATOM     23  C   UNK d   0      50.349  34.484  52.404  0.00  0.00     0.002 C 
BRANCH  23  24
ATOM     24  C   UNK d   0      49.533  34.572  52.344  0.00  0.00     0.000 C 
ATOM     25  C   UNK d   0      49.189  34.593  51.594  0.00  0.00     0.000 C 
ENDBRANCH  23  24
ENDBRANCH  22  23
ENDBRANCH  21  22
ENDBRANCH  19  21
ENDBRANCH  14  19
ENDBRANCH   1  14
TORSDOF 11
ENDMDL
MODEL 4
REMARK VINA RESULT:      -6.5      1.753      5.057
REMARK  11 active torsions:
REMARK  status: ('A' for Active; 'I' for Inactive)
REMARK    1  A    between atoms: C_2  and  C_1 
REMARK       I    between atoms: N_5  and  C_1 
REMARK    2  A    between atoms: C_4  and  C_2 
REMARK    3  A    between atoms: C_3  and  C_4 
REMARK    4  A    between atoms: O_10  and  C_3 
REMARK    5  A    between atoms: N_9  and  C_4 
REMARK    6  A    between atoms: C_8  and  N_5 
REMARK    7  A    between atoms: C_17  and  N_9 
REMARK    8  A    between atoms: O_16  and  C_11 
REMARK    9  A    between atoms: C_19  and  C_17 
REMARK   10  A    between atoms: C_21  and  C_19 
REMARK   11  A    between atoms: C_20  and  C_21 
ROOT
ATOM      1  C   UNK d   1      52.479  32.700  52.677  0.00  0.00     0.084 C 
ENDROOT
BRANCH   1   2
ATOM      2  C   UNK d   1      51.741  33.073  52.762  0.00  0.00     0.259 C 
ATOM      3  N   UNK d   1      51.601  33.794  52.390  0.00  0.00    -0.321 N 
ATOM      4  H   UNK d   1      52.190  34.149  51.933  0.00  0.00     0.169 HD
ATOM      5  O   UNK d   1      51.160  32.714  53.218  0.00  0.00    -0.267 OA
BRANCH   3   6
ATOM      6  C   UNK d   1      50.856  34.163  52.480  0.00  0.00     0.059 A 
ATOM      7  C   UNK d   1      50.682  34.568  53.174  0.00  0.00     0.019 A 
ATOM      8  C   UNK d   1      49.948  34.930  53.258  0.00  0.00     0.026 A 
ATOM      9  C   UNK d   1      49.388  34.888  52.653  0.00  0.00     0.094 A 
ATOM     10  C   UNK d   1      49.569  34.478  51.959  0.00  0.00     0.026 A 
ATOM     11  C   UNK d   1      50.309  34.116  51.878  0.00  0.00     0.019 A 
BRANCH   9  12
ATOM     12  O   UNK d   1      48.653  35.249  52.738  0.00  0.00    -0.328 OA
ATOM     13  C   UNK d   1      48.517  35.760  53.367  0.00  0.00     0.181 C 
ENDBRANCH   9  12
ENDBRANCH   3   6
ENDBRANCH   1   2
BRANCH   1  14
ATOM     14  C   UNK d   1      52.676  32.059  53.146  0.00  0.00     0.124 C 
BRANCH  14  15
ATOM     15  C   UNK d   1      52.620  31.295  52.844  0.00  0.00     0.194 C 
ATOM     16  O   UNK d   1      52.159  30.722  53.234  0.00  0.00    -0.645 OA
BRANCH  15  17
ATOM     17  O   UNK d   1      53.018  31.091  52.156  0.00  0.00    -0.772 OA
ATOM     18  H   UNK d   1      52.676  31.243  51.422  0.00  0.00     0.167 HD
ENDBRANCH  15  17
ENDBRANCH  14  15
BRANCH  14  19
ATOM     19  N   UNK d   1      52.932  32.181  53.927  0.00  0.00    -0.347 N 
ATOM     20  H   UNK d   1      52.391  32.127  54.547  0.00  0.00     0.166 HD
BRANCH  19  21
ATOM     21  C   UNK d   0      53.723  32.354  54.079  0.00  0.00     0.073 C 
BRANCH  21  22
ATOM     22  C   UNK d   0      53.944  32.641  54.820  0.00  0.00     0.018 C 
BRANCH  22  23
ATOM     23  C   UNK d   0      54.689  32.990  54.913  0.00  0.00     0.002 C 
BRANCH  23  24
ATOM     24  C   UNK d   0      54.791  33.639  55.408  0.00  0.00     0.000 C 
ATOM     25  C   UNK d   0      55.483  34.086  55.343  0.00  0.00     0.000 C 
ENDBRANCH  23  24
ENDBRANCH  22  23
ENDBRANCH  21  22
ENDBRANCH  19  21
ENDBRANCH  14  19
ENDBRANCH   1  14
TORSDOF 11
ENDMDL
MODEL 5
REMARK VINA RESULT:      -6.4      1.320      2.808
REMARK  11 active torsions:
REMARK  status: ('A' for Active; 'I' for Inactive)
REMARK    1  A    between atoms: C_2  and  C_1 
REMARK       I    between atoms: N_5  and  C_1 
REMARK    2  A    between atoms: C_4  and  C_2 
REMARK    3  A    between atoms: C_3  and  C_4 
REMARK    4  A    between atoms: O_10  and  C_3 
REMARK    5  A    between atoms: N_9  and  C_4 
REMARK    6  A    between atoms: C_8  and  N_5 
REMARK    7  A    between atoms: C_17  and  N_9 
REMARK    8  A    between atoms: O_16  and  C_11 
REMARK    9  A    between atoms: C_19  and  C_17 
REMARK   10  A    between atoms: C_21  and  C_19 
REMARK   11  A    between atoms: C_20  and  C_21 
ROOT
ATOM      1  C   UNK d   1      52.278  33.081  52.685  0.00  0.00     0.084 C 
ENDROOT
BRANCH   1   2
ATOM      2  C   UNK d   1      52.338  32.312  52.996  0.00  0.00     0.259 C 
ATOM      3  N   UNK d   1      52.979  31.837  52.795  0.00  0.00    -0.321 N 
ATOM      4  H   UNK d   1      53.565  32.120  52.287  0.00  0.00     0.169 HD
ATOM      5  O   UNK d   1      51.751  32.037  53.501  0.00  0.00    -0.267 OA
BRANCH   3   6
ATOM      6  C   UNK d   1      53.031  31.066  53.112  0.00  0.00     0.059 A 
ATOM      7  C   UNK d   1      52.529  30.476  52.836  0.00  0.00     0.019 A 
ATOM      8  C   UNK d   1      52.584  29.718  53.151  0.00  0.00     0.026 A 
ATOM      9  C   UNK d   1      53.138  29.546  53.739  0.00  0.00     0.094 A 
ATOM     10  C   UNK d   1      53.640  30.143  54.011  0.00  0.00     0.026 A 
ATOM     11  C   UNK d   1      53.581  30.905  53.692  0.00  0.00     0.019 A 
BRANCH   9  12
ATOM     12  O   UNK d   1      53.192  28.787  54.053  0.00  0.00    -0.328 OA
ATOM     13  C   UNK d   1      53.342  28.684  54.854  0.00  0.00     0.181 C 
ENDBRANCH   9  12
ENDBRANCH   3   6
ENDBRANCH   1   2
BRANCH   1  14
ATOM     14  C   UNK d   1      51.922  33.677  53.118  0.00  0.00     0.124 C 
BRANCH  14  15
ATOM     15  C   UNK d   1      51.267  34.072  52.814  0.00  0.00     0.194 C 
ATOM     16  O   UNK d   1      51.264  34.337  52.025  0.00  0.00    -0.645 OA
BRANCH  15  17
ATOM     17  O   UNK d   1      50.610  34.208  53.286  0.00  0.00    -0.772 OA
ATOM     18  H   UNK d   1      50.318  33.606  53.768  0.00  0.00     0.167 HD
ENDBRANCH  15  17
ENDBRANCH  14  15
BRANCH  14  19
ATOM     19  N   UNK d   1      52.223  33.882  53.865  0.00  0.00    -0.347 N 
ATOM     20  H   UNK d   1      51.877  33.568  54.544  0.00  0.00     0.166 HD
BRANCH  19  21
ATOM     21  C   UNK d   0      52.863  34.398  53.924  0.00  0.00     0.073 C 
BRANCH  21  22
ATOM     22  C   UNK d   0      53.223  34.521  54.655  0.00  0.00     0.018 C 
BRANCH  22  23
ATOM     23  C   UNK d   0      54.050  34.529  54.704  0.00  0.00     0.002 C 
BRANCH  23  24
ATOM     24  C   UNK d   0      54.439  34.172  55.334  0.00  0.00     0.000 C 
ATOM     25  C   UNK d   0      55.195  33.862  55.213  0.00  0.00     0.000 C 
ENDBRANCH  23  24
ENDBRANCH  22  23
ENDBRANCH  21  22
ENDBRANCH  19  21
ENDBRANCH  14  19
ENDBRANCH   1  14
TORSDOF 11
ENDMDL
MODEL 6
REMARK VINA RESULT:      -5.8      1.593      5.281
REMARK  11 active torsions:
REMARK  status: ('A' for Active; 'I' for Inactive)
REMARK    1  A    between atoms: C_2  and  C_1 
REMARK       I    between atoms: N_5  and  C_1 
REMARK    2  A    between atoms: C_4  and  C_2 
REMARK    3  A    between atoms: C_3  and  C_4 
REMARK    4  A    between atoms: O_10  and  C_3 
REMARK    5  A    between atoms: N_9  and  C_4 
REMARK    6  A    between atoms: C_8  and  N_5 
REMARK    7  A    between atoms: C_17  and  N_9 
REMARK    8  A    between atoms: O_16  and  C_11 
REMARK    9  A    between atoms: C_19  and  C_17 
REMARK   10  A    between atoms: C_21  and  C_19 
REMARK   11  A    between atoms: C_20  and  C_21 
ROOT
ATOM      1  C   UNK d   1      51.173  33.954  53.460  0.00  0.00     0.084 C 
ENDROOT
BRANCH   1   2
ATOM      2  C   UNK d   1      50.593  34.279  52.962  0.00  0.00     0.259 C 
ATOM      3  N   UNK d   1      49.853  34.470  53.264  0.00  0.00    -0.321 N 
ATOM      4  H   UNK d   1      49.681  34.341  54.062  0.00  0.00     0.169 HD
ATOM      5  O   UNK d   1      50.770  34.405  52.169  0.00  0.00    -0.267 OA
BRANCH   3   6
ATOM      6  C   UNK d   1      49.275  34.796  52.756  0.00  0.00     0.059 A 
ATOM      7  C   UNK d   1      49.112  34.435  52.036  0.00  0.00     0.019 A 
ATOM      8  C   UNK d   1      48.542  34.760  51.539  0.00  0.00     0.026 A 
ATOM      9  C   UNK d   1      48.135  35.443  51.758  0.00  0.00     0.094 A 
ATOM     10  C   UNK d   1      48.303  35.802  52.483  0.00  0.00     0.026 A 
ATOM     11  C   UNK d   1      48.877  35.472  52.980  0.00  0.00     0.019 A 
BRANCH   9  12
ATOM     12  O   UNK d   1      47.565  35.767  51.260  0.00  0.00    -0.328 OA
ATOM     13  C   UNK d   1      46.768  35.687  51.441  0.00  0.00     0.181 C 
ENDBRANCH   9  12
ENDBRANCH   3   6
ENDBRANCH   1   2
BRANCH   1  14
ATOM     14  C   UNK d   1      51.962  33.969  53.244  0.00  0.00     0.124 C 
BRANCH  14  15
ATOM     15  C   UNK d   1      52.429  34.621  53.430  0.00  0.00     0.194 C 
ATOM     16  O   UNK d   1      52.877  34.999  52.839  0.00  0.00    -0.645 OA
BRANCH  15  17
ATOM     17  O   UNK d   1      52.457  34.904  54.199  0.00  0.00    -0.772 OA
ATOM     18  H   UNK d   1      51.877  34.681  54.741  0.00  0.00     0.167 HD
ENDBRANCH  15  17
ENDBRANCH  14  15
BRANCH  14  19
ATOM     19  N   UNK d   1      52.291  33.324  52.836  0.00  0.00    -0.347 N 
ATOM     20  H   UNK d   1      52.327  33.338  52.012  0.00  0.00     0.166 HD
BRANCH  19  21
ATOM     21  C   UNK d   0      52.578  32.675  53.253  0.00  0.00     0.073 C 
BRANCH  21  22
ATOM     22  C   UNK d   0      52.781  31.985  52.849  0.00  0.00     0.018 C 
BRANCH  22  23
ATOM     23  C   UNK d   0      53.086  31.342  53.273  0.00  0.00     0.002 C 
BRANCH  23  24
ATOM     24  C   UNK d   0      52.953  30.570  53.022  0.00  0.00     0.000 C 
ATOM     25  C   UNK d   0      53.325  29.950  53.421  0.00  0.00     0.000 C 
ENDBRANCH  23  24
ENDBRANCH  22  23
ENDBRANCH  21  22
ENDBRANCH  19  21
ENDBRANCH  14  19
ENDBRANCH   1  14
TORSDOF 11
ENDMDL
MODEL 7
REMARK VINA RESULT:      -4.5      9.251     10.230
REMARK  11 active torsions:
REMARK  status: ('A' for Active; 'I' for Inactive)
REMARK    1  A    between atoms: C_2  and  C_1 
REMARK       I    between atoms: N_5  and  C_1 
REMARK    2  A    between atoms: C_4  and  C_2 
REMARK    3  A    between atoms: C_3  and  C_4 
REMARK    4  A    between atoms: O_10  and  C_3 
REMARK    5  A    between atoms: N_9  and  C_4 
REMARK    6  A    between atoms: C_8  and  N_5 
REMARK    7  A    between atoms: C_17  and  N_9 
REMARK    8  A    between atoms: O_16  and  C_11 
REMARK    9  A    between atoms: C_19  and  C_17 
REMARK   10  A    between atoms: C_21  and  C_19 
REMARK   11  A    between atoms: C_20  and  C_21 
ROOT
ATOM      1  C   UNK d   1      44.646  26.598  57.098  0.00  0.00     0.084 C 
ENDROOT
BRANCH   1   2
ATOM      2  C   UNK d   1      44.793  26.019  56.520  0.00  0.00     0.259 C 
ATOM      3  N   UNK d   1      44.381  25.308  56.537  0.00  0.00    -0.321 N 
ATOM      4  H   UNK d   1      43.821  25.163  57.127  0.00  0.00     0.169 HD
ATOM      5  O   UNK d   1      45.351  26.169  55.936  0.00  0.00    -0.267 OA
BRANCH   3   6
ATOM      6  C   UNK d   1      44.535  24.731  55.952  0.00  0.00     0.059 A 
ATOM      7  C   UNK d   1      44.908  24.028  56.158  0.00  0.00     0.019 A 
ATOM      8  C   UNK d   1      45.058  23.464  55.579  0.00  0.00     0.026 A 
ATOM      9  C   UNK d   1      44.837  23.598  54.795  0.00  0.00     0.094 A 
ATOM     10  C   UNK d   1      44.463  24.307  54.594  0.00  0.00     0.026 A 
ATOM     11  C   UNK d   1      44.314  24.872  55.180  0.00  0.00     0.019 A 
BRANCH   9  12
ATOM     12  O   UNK d   1      44.987  23.033  54.216  0.00  0.00    -0.328 OA
ATOM     13  C   UNK d   1      44.957  23.241  53.422  0.00  0.00     0.181 C 
ENDBRANCH   9  12
ENDBRANCH   3   6
ENDBRANCH   1   2
BRANCH   1  14
ATOM     14  C   UNK d   1      45.230  27.128  57.313  0.00  0.00     0.124 C 
BRANCH  14  15
ATOM     15  C   UNK d   1      45.726  26.961  57.949  0.00  0.00     0.194 C 
ATOM     16  O   UNK d   1      45.407  26.815  58.703  0.00  0.00    -0.645 OA
BRANCH  15  17
ATOM     17  O   UNK d   1      46.539  26.936  57.843  0.00  0.00    -0.772 OA
ATOM     18  H   UNK d   1      46.889  27.369  57.235  0.00  0.00     0.167 HD
ENDBRANCH  15  17
ENDBRANCH  14  15
BRANCH  14  19
ATOM     19  N   UNK d   1      45.322  27.837  56.888  0.00  0.00    -0.347 N 
ATOM     20  H   UNK d   1      45.874  27.877  56.277  0.00  0.00     0.166 HD
BRANCH  19  21
ATOM     21  C   UNK d   0      44.863  28.494  57.078  0.00  0.00     0.073 C 
BRANCH  21  22
ATOM     22  C   UNK d   0      44.832  29.135  56.560  0.00  0.00     0.018 C 
BRANCH  22  23
ATOM     23  C   UNK d   0      44.758  29.900  56.866  0.00  0.00     0.002 C 
BRANCH  23  24
ATOM     24  C   UNK d   0      44.408  30.499  56.423  0.00  0.00     0.000 C 
ATOM     25  C   UNK d   0      44.609  31.284  56.585  0.00  0.00     0.000 C 
ENDBRANCH  23  24
ENDBRANCH  22  23
ENDBRANCH  21  22
ENDBRANCH  19  21
ENDBRANCH  14  19
ENDBRANCH   1  14
TORSDOF 11
ENDMDL
