MODEL 1
REMARK VINA RESULT:      -7.2      0.000      0.000
REMARK  7 active torsions:
REMARK  status: ('A' for Active; 'I' for Inactive)
REMARK    1  A    between atoms: C_2  and  C_8 
REMARK    2  A    between atoms: O_17  and  C_2 
REMARK    3  A    between atoms: C_15  and  C_3 
REMARK    4  A    between atoms: C_5  and  C_16 
REMARK       I    between atoms: N_9  and  C_5 
REMARK    5  A    between atoms: C_14  and  N_9 
REMARK    6  A    between atoms: C_16  and  C_15 
REMARK    7  A    between atoms: C_21  and  O_17 
ROOT
ATOM      1  C   UNL d   1     -46.180  12.310  23.146  0.00  0.00     0.064 A 
ATOM      2  C   UNL d   1     -46.631  12.747  23.696  0.00  0.00     0.007 A 
ATOM      3  C   UNL d   1     -45.955  12.668  22.431  0.00  0.00     0.007 A 
ATOM      4  C   UNL d   1     -46.619  13.864  22.813  0.00  0.00     0.085 A 
ATOM      5  C   UNL d   1     -46.845  13.519  23.524  0.00  0.00     0.019 A 
ATOM      6  C   UNL d   1     -46.178  13.441  22.275  0.00  0.00     0.019 A 
ENDROOT
BRANCH   4   7
ATOM      7  N   UNL d   1     -46.839  14.648  22.645  0.00  0.00    -0.208 NA
ATOM      8  C   UNL d   1     -47.609  14.812  22.401  0.00  0.00     0.279 C 
ATOM      9  O   UNL d   1     -47.832  15.585  22.234  0.00  0.00    -0.265 OA
BRANCH   8  10
ATOM     10  C   UNL d   1     -48.162  14.205  22.323  0.00  0.00     0.065 C 
BRANCH  10  11
ATOM     11  C   UNL d   1     -48.935  14.375  22.107  0.00  0.00     0.030 C 
BRANCH  11  12
ATOM     12  C   UNL d   1     -49.502  13.774  22.080  0.00  0.00     0.100 A 
ATOM     13  O   UNL d   1     -50.017  13.546  22.686  0.00  0.00    -0.307 OA
ATOM     14  C   UNL d   1     -50.482  12.930  22.419  0.00  0.00     0.100 A 
ATOM     15  C   UNL d   1     -50.259  12.766  21.637  0.00  0.00     0.027 A 
ATOM     16  C   UNL d   1     -51.064  12.541  22.844  0.00  0.00     0.027 C 
ATOM     17  C   UNL d   1     -49.654  13.287  21.428  0.00  0.00     0.027 A 
ENDBRANCH  11  12
ENDBRANCH  10  11
ENDBRANCH   8  10
ENDBRANCH   4   7
BRANCH   1  18
ATOM     18  C   UNL d   1     -45.964  11.539  23.315  0.00  0.00     0.300 C 
ATOM     19  O   UNL d   1     -46.555  10.964  23.452  0.00  0.00    -0.259 OA
BRANCH  18  20
ATOM     20  O   UNL d   1     -45.164  11.319  23.351  0.00  0.00    -0.271 OA
BRANCH  20  21
ATOM     21  C   UNL d   1     -44.968  10.553  23.608  0.00  0.00     0.126 C 
ATOM     22  C   UNL d   1     -44.171  10.319  23.605  0.00  0.00     0.029 C 
ENDBRANCH  20  21
ENDBRANCH  18  20
ENDBRANCH   1  18
TORSDOF 7
ENDMDL
MODEL 2
REMARK VINA RESULT:      -6.7      1.706      4.740
REMARK  7 active torsions:
REMARK  status: ('A' for Active; 'I' for Inactive)
REMARK    1  A    between atoms: C_2  and  C_8 
REMARK    2  A    between atoms: O_17  and  C_2 
REMARK    3  A    between atoms: C_15  and  C_3 
REMARK    4  A    between atoms: C_5  and  C_16 
REMARK       I    between atoms: N_9  and  C_5 
REMARK    5  A    between atoms: C_14  and  N_9 
REMARK    6  A    between atoms: C_16  and  C_15 
REMARK    7  A    between atoms: C_21  and  O_17 
ROOT
ATOM      1  C   UNL d   1     -50.235  12.883  22.529  0.00  0.00     0.064 A 
ATOM      2  C   UNL d   1     -50.135  12.721  23.341  0.00  0.00     0.007 A 
ATOM      3  C   UNL d   1     -49.823  12.427  21.971  0.00  0.00     0.007 A 
ATOM      4  C   UNL d   1     -49.231  11.670  23.017  0.00  0.00     0.085 A 
ATOM      5  C   UNL d   1     -49.635  12.116  23.577  0.00  0.00     0.019 A 
ATOM      6  C   UNL d   1     -49.326  11.825  22.224  0.00  0.00     0.019 A 
ENDROOT
BRANCH   4   7
ATOM      7  N   UNL d   1     -48.725  11.057  23.263  0.00  0.00    -0.208 NA
ATOM      8  C   UNL d   1     -47.935  11.222  23.430  0.00  0.00     0.279 C 
ATOM      9  O   UNL d   1     -47.431  10.621  23.673  0.00  0.00    -0.265 OA
BRANCH   8  10
ATOM     10  C   UNL d   1     -47.643  11.991  23.355  0.00  0.00     0.065 C 
BRANCH  10  11
ATOM     11  C   UNL d   1     -46.854  12.149  23.511  0.00  0.00     0.030 C 
BRANCH  11  12
ATOM     12  C   UNL d   1     -46.483  12.801  23.162  0.00  0.00     0.100 A 
ATOM     13  O   UNL d   1     -46.707  13.595  23.226  0.00  0.00    -0.307 OA
ATOM     14  C   UNL d   1     -46.186  14.051  22.792  0.00  0.00     0.100 A 
ATOM     15  C   UNL d   1     -45.628  13.541  22.451  0.00  0.00     0.027 A 
ATOM     16  C   UNL d   1     -46.207  14.865  22.707  0.00  0.00     0.027 C 
ATOM     17  C   UNL d   1     -45.811  12.770  22.679  0.00  0.00     0.027 A 
ENDBRANCH  11  12
ENDBRANCH  10  11
ENDBRANCH   8  10
ENDBRANCH   4   7
BRANCH   1  18
ATOM     18  C   UNL d   1     -50.734  13.487  22.290  0.00  0.00     0.300 C 
ATOM     19  O   UNL d   1     -51.063  13.471  21.522  0.00  0.00    -0.259 OA
BRANCH  18  20
ATOM     20  O   UNL d   1     -50.917  14.114  22.801  0.00  0.00    -0.271 OA
BRANCH  20  21
ATOM     21  C   UNL d   1     -51.064  14.867  22.477  0.00  0.00     0.126 C 
ATOM     22  C   UNL d   1     -50.938  15.538  22.949  0.00  0.00     0.029 C 
ENDBRANCH  20  21
ENDBRANCH  18  20
ENDBRANCH   1  18
TORSDOF 7
ENDMDL
MODEL 3
REMARK VINA RESULT:      -5.8      1.914      2.643
REMARK  7 active torsions:
REMARK  status: ('A' for Active; 'I' for Inactive)
REMARK    1  A    between atoms: C_2  and  C_8 
REMARK    2  A    between atoms: O_17  and  C_2 
REMARK    3  A    between atoms: C_15  and  C_3 
REMARK    4  A    between atoms: C_5  and  C_16 
REMARK       I    between atoms: N_9  and  C_5 
REMARK    5  A    between atoms: C_14  and  N_9 
REMARK    6  A    between atoms: C_16  and  C_15 
REMARK    7  A    between atoms: C_21  and  O_17 
ROOT
ATOM      1  C   UNL d   1     -46.897  12.694  22.649  0.00  0.00     0.064 A 
ATOM      2  C   UNL d   1     -47.084  12.600  23.456  0.00  0.00     0.007 A 
ATOM      3  C   UNL d   1     -47.380  12.336  22.076  0.00  0.00     0.007 A 
ATOM      4  C   UNL d   1     -48.211  11.807  23.100  0.00  0.00     0.085 A 
ATOM      5  C   UNL d   1     -47.739  12.158  23.673  0.00  0.00     0.019 A 
ATOM      6  C   UNL d   1     -48.032  11.896  22.311  0.00  0.00     0.019 A 
ENDROOT
BRANCH   4   7
ATOM      7  N   UNL d   1     -48.874  11.359  23.327  0.00  0.00    -0.208 NA
ATOM      8  C   UNL d   1     -49.592  11.736  23.471  0.00  0.00     0.279 C 
ATOM      9  O   UNL d   1     -50.250  11.299  23.695  0.00  0.00    -0.265 OA
BRANCH   8  10
ATOM     10  C   UNL d   1     -49.658  12.555  23.391  0.00  0.00     0.065 C 
BRANCH  10  11
ATOM     11  C   UNL d   1     -50.343  12.939  23.628  0.00  0.00     0.030 C 
BRANCH  11  12
ATOM     12  C   UNL d   1     -50.563  13.654  23.276  0.00  0.00     0.100 A 
ATOM     13  O   UNL d   1     -50.634  13.810  22.466  0.00  0.00    -0.307 OA
ATOM     14  C   UNL d   1     -50.864  14.588  22.367  0.00  0.00     0.100 A 
ATOM     15  C   UNL d   1     -50.939  14.927  23.120  0.00  0.00     0.027 A 
ATOM     16  C   UNL d   1     -50.997  14.968  21.654  0.00  0.00     0.027 C 
ATOM     17  C   UNL d   1     -50.753  14.351  23.681  0.00  0.00     0.027 A 
ENDBRANCH  11  12
ENDBRANCH  10  11
ENDBRANCH   8  10
ENDBRANCH   4   7
BRANCH   1  18
ATOM     18  C   UNL d   1     -46.243  13.135  22.428  0.00  0.00     0.300 C 
ATOM     19  O   UNL d   1     -46.323  13.958  22.302  0.00  0.00    -0.259 OA
BRANCH  18  20
ATOM     20  O   UNL d   1     -45.502  12.776  22.327  0.00  0.00    -0.271 OA
BRANCH  20  21
ATOM     21  C   UNL d   1     -44.885  13.216  21.982  0.00  0.00     0.126 C 
ATOM     22  C   UNL d   1     -44.399  12.851  21.417  0.00  0.00     0.029 C 
ENDBRANCH  20  21
ENDBRANCH  18  20
ENDBRANCH   1  18
TORSDOF 7
ENDMDL
MODEL 4
REMARK VINA RESULT:      -5.1      7.781      9.571
REMARK  7 active torsions:
REMARK  status: ('A' for Active; 'I' for Inactive)
REMARK    1  A    between atoms: C_2  and  C_8 
REMARK    2  A    between atoms: O_17  and  C_2 
REMARK    3  A    between atoms: C_15  and  C_3 
REMARK    4  A    between atoms: C_5  and  C_16 
REMARK       I    between atoms: N_9  and  C_5 
REMARK    5  A    between atoms: C_14  and  N_9 
REMARK    6  A    between atoms: C_16  and  C_15 
REMARK    7  A    between atoms: C_21  and  O_17 
ROOT
ATOM      1  C   UNL d   1     -39.275  14.857  17.974  0.00  0.00     0.064 A 
ATOM      2  C   UNL d   1     -39.239  15.641  18.255  0.00  0.00     0.007 A 
ATOM      3  C   UNL d   1     -39.903  14.368  18.213  0.00  0.00     0.007 A 
ATOM      4  C   UNL d   1     -40.439  15.428  18.993  0.00  0.00     0.085 A 
ATOM      5  C   UNL d   1     -39.821  15.919  18.761  0.00  0.00     0.019 A 
ATOM      6  C   UNL d   1     -40.477  14.662  18.720  0.00  0.00     0.019 A 
ENDROOT
BRANCH   4   7
ATOM      7  N   UNL d   1     -41.026  15.716  19.507  0.00  0.00    -0.208 NA
ATOM      8  C   UNL d   1     -40.930  15.637  20.321  0.00  0.00     0.279 C 
ATOM      9  O   UNL d   1     -41.507  15.919  20.833  0.00  0.00    -0.265 OA
BRANCH   8  10
ATOM     10  C   UNL d   1     -40.256  15.275  20.631  0.00  0.00     0.065 C 
BRANCH  10  11
ATOM     11  C   UNL d   1     -40.185  15.157  21.439  0.00  0.00     0.030 C 
BRANCH  11  12
ATOM     12  C   UNL d   1     -39.518  14.778  21.748  0.00  0.00     0.100 A 
ATOM     13  O   UNL d   1     -39.396  13.963  21.820  0.00  0.00    -0.307 OA
ATOM     14  C   UNL d   1     -38.661  13.836  22.154  0.00  0.00     0.100 A 
ATOM     15  C   UNL d   1     -38.316  14.577  22.294  0.00  0.00     0.027 A 
ATOM     16  C   UNL d   1     -38.323  13.109  22.321  0.00  0.00     0.027 C 
ATOM     17  C   UNL d   1     -38.845  15.158  22.044  0.00  0.00     0.027 A 
ENDBRANCH  11  12
ENDBRANCH  10  11
ENDBRANCH   8  10
ENDBRANCH   4   7
BRANCH   1  18
ATOM     18  C   UNL d   1     -38.696  14.576  17.468  0.00  0.00     0.300 C 
ATOM     19  O   UNL d   1     -37.943  14.375  17.772  0.00  0.00    -0.259 OA
BRANCH  18  20
ATOM     20  O   UNL d   1     -38.846  14.487  16.657  0.00  0.00    -0.271 OA
BRANCH  20  21
ATOM     21  C   UNL d   1     -38.233  14.222  16.160  0.00  0.00     0.126 C 
ATOM     22  C   UNL d   1     -38.398  14.081  15.359  0.00  0.00     0.029 C 
ENDBRANCH  20  21
ENDBRANCH  18  20
ENDBRANCH   1  18
TORSDOF 7
ENDMDL
MODEL 5
REMARK VINA RESULT:      -4.6      8.712      9.656
REMARK  7 active torsions:
REMARK  status: ('A' for Active; 'I' for Inactive)
REMARK    1  A    between atoms: C_2  and  C_8 
REMARK    2  A    between atoms: O_17  and  C_2 
REMARK    3  A    between atoms: C_15  and  C_3 
REMARK    4  A    between atoms: C_5  and  C_16 
REMARK       I    between atoms: N_9  and  C_5 
REMARK    5  A    between atoms: C_14  and  N_9 
REMARK    6  A    between atoms: C_16  and  C_15 
REMARK    7  A    between atoms: C_21  and  O_17 
ROOT
ATOM      1  C   UNL d   1     -38.749  14.776  20.643  0.00  0.00     0.064 A 
ATOM      2  C   UNL d   1     -38.060  14.783  20.174  0.00  0.00     0.007 A 
ATOM      3  C   UNL d   1     -39.327  14.196  20.505  0.00  0.00     0.007 A 
ATOM      4  C   UNL d   1     -38.539  13.651  19.456  0.00  0.00     0.085 A 
ATOM      5  C   UNL d   1     -37.961  14.221  19.586  0.00  0.00     0.019 A 
ATOM      6  C   UNL d   1     -39.214  13.640  19.912  0.00  0.00     0.019 A 
ENDROOT
BRANCH   4   7
ATOM      7  N   UNL d   1     -38.433  13.083  18.857  0.00  0.00    -0.208 NA
ATOM      8  C   UNL d   1     -38.759  13.210  18.112  0.00  0.00     0.279 C 
ATOM      9  O   UNL d   1     -38.657  12.653  17.517  0.00  0.00    -0.265 OA
BRANCH   8  10
ATOM     10  C   UNL d   1     -39.189  13.898  17.954  0.00  0.00     0.065 C 
BRANCH  10  11
ATOM     11  C   UNL d   1     -39.497  14.029  17.206  0.00  0.00     0.030 C 
BRANCH  11  12
ATOM     12  C   UNL d   1     -39.951  14.703  17.055  0.00  0.00     0.100 A 
ATOM     13  O   UNL d   1     -40.747  14.822  17.249  0.00  0.00    -0.307 OA
ATOM     14  C   UNL d   1     -40.970  15.567  16.996  0.00  0.00     0.100 A 
ATOM     15  C   UNL d   1     -40.310  15.922  16.640  0.00  0.00     0.027 A 
ATOM     16  C   UNL d   1     -41.711  15.905  17.079  0.00  0.00     0.027 C 
ATOM     17  C   UNL d   1     -39.682  15.389  16.676  0.00  0.00     0.027 A 
ENDBRANCH  11  12
ENDBRANCH  10  11
ENDBRANCH   8  10
ENDBRANCH   4   7
BRANCH   1  18
ATOM     18  C   UNL d   1     -38.851  15.336  21.232  0.00  0.00     0.300 C 
ATOM     19  O   UNL d   1     -39.459  15.904  21.161  0.00  0.00    -0.259 OA
BRANCH  18  20
ATOM     20  O   UNL d   1     -38.357  15.346  21.898  0.00  0.00    -0.271 OA
BRANCH  20  21
ATOM     21  C   UNL d   1     -38.551  15.844  22.536  0.00  0.00     0.126 C 
ATOM     22  C   UNL d   1     -38.168  15.733  23.264  0.00  0.00     0.029 C 
ENDBRANCH  20  21
ENDBRANCH  18  20
ENDBRANCH   1  18
TORSDOF 7
ENDMDL
