MODEL 1
REMARK VINA RESULT:     169.4      0.000      0.000
REMARK  7 active torsions:
REMARK  status: ('A' for Active; 'I' for Inactive)
REMARK    1  A    between atoms: N_8  and  C_1 
REMARK    2  A    between atoms: C_14  and  C_2 
REMARK    3  A    between atoms: S_3  and  C_16 
REMARK    4  A    between atoms: N_7  and  S_3 
REMARK       I    between atoms: C_12  and  N_8 
REMARK       I    between atoms: C_13  and  N_11 
REMARK    5  A    between atoms: C_22  and  C_12 
REMARK    6  A    between atoms: O_33  and  C_13 
REMARK    7  A    between atoms: C_38  and  O_33 
ROOT
ATOM      1  C   UNL d   1      62.328  42.776  49.794  0.00  0.00     0.104 A 
ATOM      2  C   UNL d   1      62.039  44.388  49.906  0.00  0.00     0.056 A 
ATOM      3  C   UNL d   1      62.213  43.123  50.535  0.00  0.00     0.013 A 
ATOM      4  C   UNL d   1      62.300  43.232  49.108  0.00  0.00     0.013 A 
ATOM      5  C   UNL d   1      62.068  43.931  50.592  0.00  0.00     0.005 A 
ATOM      6  C   UNL d   1      62.153  44.045  49.168  0.00  0.00     0.005 A 
ENDROOT
BRANCH   2   7
ATOM      7  C   UNL d   1      61.894  45.200  49.958  0.00  0.00     0.258 C 
ATOM      8  N   UNL d   1      61.394  45.497  50.554  0.00  0.00    -0.316 N 
ATOM      9  H   UNL d   1      61.367  44.863  50.694  0.00  0.00     0.169 HD
ATOM     10  O   UNL d   1      62.240  45.728  49.423  0.00  0.00    -0.267 OA
BRANCH   8  11
ATOM     11  C   UNL d   1      61.248  46.308  50.607  0.00  0.00     0.094 A 
ATOM     12  C   UNL d   1      60.900  46.693  51.242  0.00  0.00     0.081 A 
ATOM     13  C   UNL d   1      60.856  47.502  51.072  0.00  0.00     0.008 A 
ATOM     14  C   UNL d   1      60.565  48.140  51.500  0.00  0.00    -0.004 A 
ATOM     15  C   UNL d   1      61.179  47.619  50.327  0.00  0.00     0.028 A 
ATOM     16  C   UNL d   1      60.598  48.896  51.179  0.00  0.00     0.099 A 
ATOM     17  C   UNL d   1      60.242  49.240  51.846  0.00  0.00     0.029 C 
ATOM     18  C   UNL d   1      60.549  49.707  51.019  0.00  0.00     0.029 C 
ATOM     19  N   UNL d   1      60.919  49.026  50.434  0.00  0.00    -0.294 NA
ATOM     20  C   UNL d   1      61.212  48.378  50.004  0.00  0.00     0.104 A 
ATOM     21  C   UNL d   1      61.569  48.038  49.335  0.00  0.00     0.029 C 
ATOM     22  C   UNL d   1      61.261  49.135  49.648  0.00  0.00     0.029 C 
ATOM     23  S   UNL d   1      61.425  46.881  50.030  0.00  0.00    -0.072 SA
BRANCH  12  24
ATOM     24  C   UNL d   1      60.635  46.342  51.937  0.00  0.00     0.299 C 
ATOM     25  O   UNL d   1      60.950  46.574  52.651  0.00  0.00    -0.264 OA
ATOM     26  N   UNL d   1      60.063  45.769  51.905  0.00  0.00    -0.102 N 
ENDBRANCH  12  24
ENDBRANCH   8  11
ENDBRANCH   2   7
BRANCH   1  27
ATOM     27  S   UNL d   1      62.476  41.955  49.739  0.00  0.00     0.271 S 
ATOM     28  O   UNL d   1      62.383  42.027  48.916  0.00  0.00    -0.200 OA
ATOM     29  O   UNL d   1      62.565  41.893  50.556  0.00  0.00    -0.200 OA
BRANCH  27  30
ATOM     30  N   UNL d   1      62.620  41.152  49.686  0.00  0.00    -0.226 N 
ATOM     31  C   UNL d   1      62.663  40.781  48.952  0.00  0.00     0.111 A 
ATOM     32  C   UNL d   1      62.809  39.971  48.915  0.00  0.00     0.105 A 
ATOM     33  N   UNL d   1      62.911  39.530  49.605  0.00  0.00    -0.248 N 
ATOM     34  C   UNL d   1      62.867  39.906  50.336  0.00  0.00     0.105 A 
ATOM     35  C   UNL d   1      63.056  38.727  49.562  0.00  0.00     0.378 C 
ATOM     36  C   UNL d   1      62.722  40.711  50.372  0.00  0.00     0.111 A 
ATOM     37  O   UNL d   1      63.099  38.357  48.828  0.00  0.00    -0.237 OA
BRANCH  35  38
ATOM     38  O   UNL d   1      63.157  38.293  50.245  0.00  0.00    -0.257 OA
BRANCH  38  39
ATOM     39  C   UNL d   1      62.687  37.638  50.381  0.00  0.00     0.128 C 
ATOM     40  C   UNL d   1      63.015  36.964  50.734  0.00  0.00     0.029 C 
ENDBRANCH  38  39
ENDBRANCH  35  38
ENDBRANCH  27  30
ENDBRANCH   1  27
TORSDOF 7
ENDMDL
