MODEL 1
REMARK VINA RESULT:      66.7      0.000      0.000
REMARK  6 active torsions:
REMARK  status: ('A' for Active; 'I' for Inactive)
REMARK    1  A    between atoms: N_3  and  C_1 
REMARK       I    between atoms: C_4  and  N_3 
REMARK       I    between atoms: N_10  and  C_4 
REMARK    2  A    between atoms: C_7  and  C_5 
REMARK    3  A    between atoms: C_9  and  C_7 
REMARK       I    between atoms: N_12  and  C_9 
REMARK    4  A    between atoms: C_14  and  N_10 
REMARK    5  A    between atoms: C_19  and  N_12 
REMARK    6  A    between atoms: C_17  and  C_19 
ROOT
ATOM      1  C   UNL d   1      60.085  49.415  51.386  0.00  0.00     0.199 A 
ATOM      2  N   UNL d   1      60.327  48.790  50.902  0.00  0.00    -0.220 NA
ATOM      3  C   UNL d   1      61.137  48.694  51.005  0.00  0.00     0.095 A 
ATOM      4  S   UNL d   1      60.731  49.703  51.781  0.00  0.00    -0.046 SA
ATOM      5  C   UNL d   1      61.388  49.262  51.551  0.00  0.00     0.058 A 
ENDROOT
BRANCH   1   6
ATOM      6  N   UNL d   1      59.304  49.708  51.459  0.00  0.00    -0.166 NA
ATOM      7  C   UNL d   1      58.687  49.363  51.014  0.00  0.00     0.370 C 
ATOM      8  N   UNL d   1      57.912  49.645  51.079  0.00  0.00    -0.191 NA
ATOM      9  O   UNL d   1      58.848  48.731  50.498  0.00  0.00    -0.242 OA
BRANCH   8  10
ATOM     10  C   UNL d   1      57.302  49.311  50.645  0.00  0.00     0.087 A 
ATOM     11  C   UNL d   1      57.030  49.670  49.955  0.00  0.00     0.031 A 
ATOM     12  C   UNL d   1      56.426  49.342  49.522  0.00  0.00     0.059 A 
ATOM     13 CL   UNL d   1      56.157  49.708  48.829  0.00  0.00    -0.082 Cl
ATOM     14  C   UNL d   1      56.075  48.630  49.781  0.00  0.00     0.011 A 
ATOM     15  C   UNL d   1      56.347  48.272  50.471  0.00  0.00     0.002 A 
ATOM     16  C   UNL d   1      56.962  48.612  50.904  0.00  0.00     0.019 A 
ENDBRANCH   8  10
ENDBRANCH   1   6
BRANCH   3  17
ATOM     17  C   UNL d   1      61.613  48.129  50.627  0.00  0.00     0.082 C 
BRANCH  17  18
ATOM     18  C   UNL d   1      61.269  47.515  50.168  0.00  0.00     0.281 C 
ATOM     19  N   UNL d   1      61.732  47.054  49.664  0.00  0.00    -0.205 NA
ATOM     20  O   UNL d   1      60.457  47.385  50.233  0.00  0.00    -0.265 OA
BRANCH  19  21
ATOM     21  C   UNL d   1      61.386  46.457  49.220  0.00  0.00     0.121 C 
BRANCH  21  22
ATOM     22  C   UNL d   1      61.696  45.710  49.217  0.00  0.00     0.101 A 
ATOM     23  N   UNL d   1      62.468  45.576  48.920  0.00  0.00    -0.242 NA
ATOM     24  C   UNL d   1      62.775  44.811  48.920  0.00  0.00     0.099 A 
ATOM     25  C   UNL d   1      62.334  44.180  49.209  0.00  0.00     0.021 A 
ATOM     26  C   UNL d   1      61.572  44.312  49.502  0.00  0.00     0.003 A 
ATOM     27  C   UNL d   1      61.262  45.082  49.502  0.00  0.00     0.021 A 
ENDBRANCH  21  22
ENDBRANCH  19  21
ENDBRANCH  17  18
ENDBRANCH   3  17
TORSDOF 6
ENDMDL
