MODEL 1
REMARK VINA RESULT:      78.3      0.000      0.000
REMARK  2 active torsions:
REMARK  status: ('A' for Active; 'I' for Inactive)
REMARK    1  A    between atoms: C_8  and  C_1 
REMARK    2  A    between atoms: C_7  and  C_2 
ROOT
ATOM      1  C   UNL d   1     -55.062-101.169 -43.616  0.00  0.00     0.066 A 
ATOM      2  C   UNL d   1     -55.206-100.495 -43.164  0.00  0.00     0.174 A 
ATOM      3  C   UNL d   1     -54.902-101.899 -43.254  0.00  0.00     0.199 A 
ATOM      4  O   UNL d   1     -55.191-100.545 -42.335  0.00  0.00    -0.303 OA
ATOM      5  C   UNL d   1     -54.890-101.930 -42.424  0.00  0.00     0.062 A 
ATOM      6  C   UNL d   1     -55.032-101.268 -41.976  0.00  0.00     0.106 A 
ATOM      7  C   UNL d   1     -55.020-101.302 -41.146  0.00  0.00     0.067 A 
ATOM      8  C   UNL d   1     -54.730-102.661 -42.047  0.00  0.00     0.009 A 
ATOM      9  O   UNL d   1     -54.757-102.575 -43.725  0.00  0.00    -0.286 OA
ATOM     10  C   UNL d   1     -54.860-102.029 -40.781  0.00  0.00     0.198 A 
ATOM     11  C   UNL d   1     -54.715-102.710 -41.236  0.00  0.00     0.042 A 
ATOM     12  O   UNL d   1     -54.849-102.062 -39.974  0.00  0.00    -0.286 OA
ENDROOT
BRANCH   1  13
ATOM     13  C   UNL d   1     -55.072-101.143 -44.424  0.00  0.00     0.005 A 
ATOM     14  C   UNL d   1     -55.415-101.728 -44.870  0.00  0.00     0.000 A 
ATOM     15  C   UNL d   1     -55.775-102.385 -44.538  0.00  0.00     0.000 C 
ATOM     16  C   UNL d   1     -55.421-101.694 -45.700  0.00  0.00     0.000 A 
ATOM     17  C   UNL d   1     -55.069-101.049 -46.067  0.00  0.00     0.000 A 
ATOM     18  C   UNL d   1     -54.717-100.447 -45.628  0.00  0.00     0.000 A 
ATOM     19  C   UNL d   1     -54.718-100.494 -44.814  0.00  0.00     0.000 A 
ENDBRANCH   1  13
BRANCH   2  20
ATOM     20  C   UNL d   1     -55.365 -99.773 -43.534  0.00  0.00     0.440 C 
ATOM     21  F   UNL d   1     -56.100 -99.534 -43.524  0.00  0.00    -0.164 F 
ATOM     22  F   UNL d   1     -55.580 -99.062 -43.888  0.00  0.00    -0.164 F 
ATOM     23  F   UNL d   1     -54.711 -99.311 -43.919  0.00  0.00    -0.164 F 
ENDBRANCH   2  20
TORSDOF 2
ENDMDL
