MODEL 1
REMARK VINA RESULT:      -4.6      0.000      0.000
REMARK  5 active torsions:
REMARK  status: ('A' for Active; 'I' for Inactive)
REMARK    1  A    between atoms: C_2  and  S_1 
REMARK    2  A    between atoms: C_3  and  S_1 
REMARK    3  A    between atoms: C_5  and  C_3 
REMARK    4  A    between atoms: O_13  and  C_8 
REMARK    5  A    between atoms: O_14  and  C_10 
ROOT
ATOM      1  C   UNL d   1     -41.567-123.200 -50.961  0.00  0.00     0.048 A 
ATOM      2  C   UNL d   1     -41.525-122.399 -51.137  0.00  0.00     0.030 A 
ATOM      3  C   UNL d   1     -41.376-122.159 -51.915  0.00  0.00     0.116 A 
ATOM      4  C   UNL d   1     -41.270-122.720 -52.510  0.00  0.00     0.116 A 
ATOM      5  C   UNL d   1     -41.462-123.767 -51.550  0.00  0.00     0.006 A 
ATOM      6  C   UNL d   1     -41.314-123.528 -52.322  0.00  0.00     0.026 A 
ENDROOT
BRANCH   1   7
ATOM      7  C   UNL d   1     -41.716-123.440 -50.182  0.00  0.00     0.227 C 
ATOM      8  O   UNL d   1     -41.123-123.817 -49.751  0.00  0.00    -0.279 OA
BRANCH   7   9
ATOM      9  S   UNL d   1     -42.455-123.300 -49.845  0.00  0.00    -0.020 SA
BRANCH   9  10
ATOM     10  C   UNL d   1     -42.545-123.347 -49.027  0.00  0.00     0.143 A 
ATOM     11  N   UNL d   1     -42.076-122.953 -48.465  0.00  0.00    -0.230 NA
ATOM     12  C   UNL d   1     -42.363-123.161 -47.717  0.00  0.00     0.107 A 
ATOM     13  C   UNL d   1     -42.998-123.675 -47.813  0.00  0.00     0.058 A 
ATOM     14  S   UNL d   1     -43.106-123.786 -48.619  0.00  0.00    -0.059 SA
ENDBRANCH   9  10
ENDBRANCH   7   9
ENDBRANCH   1   7
BRANCH   3  15
ATOM     15  O   UNL d   1     -41.338-121.350 -52.066  0.00  0.00    -0.326 OA
ATOM     16  C   UNL d   1     -41.344-120.817 -51.435  0.00  0.00     0.181 C 
ENDBRANCH   3  15
BRANCH   4  17
ATOM     17  O   UNL d   1     -41.123-122.484 -53.280  0.00  0.00    -0.326 OA
ATOM     18  C   UNL d   1     -41.166-123.029 -53.898  0.00  0.00     0.181 C 
ENDBRANCH   4  17
TORSDOF 5
ENDMDL
MODEL 2
REMARK VINA RESULT:      -4.5      1.878      4.073
REMARK  5 active torsions:
REMARK  status: ('A' for Active; 'I' for Inactive)
REMARK    1  A    between atoms: C_2  and  S_1 
REMARK    2  A    between atoms: C_3  and  S_1 
REMARK    3  A    between atoms: C_5  and  C_3 
REMARK    4  A    between atoms: O_13  and  C_8 
REMARK    5  A    between atoms: O_14  and  C_10 
ROOT
ATOM      1  C   UNL d   1     -41.848-122.701 -50.437  0.00  0.00     0.048 A 
ATOM      2  C   UNL d   1     -42.553-122.885 -50.059  0.00  0.00     0.030 A 
ATOM      3  C   UNL d   1     -42.544-123.100 -49.259  0.00  0.00     0.116 A 
ATOM      4  C   UNL d   1     -41.831-123.129 -48.844  0.00  0.00     0.116 A 
ATOM      5  C   UNL d   1     -41.131-122.727 -50.029  0.00  0.00     0.006 A 
ATOM      6  C   UNL d   1     -41.123-122.940 -49.236  0.00  0.00     0.026 A 
ENDROOT
BRANCH   1   7
ATOM      7  C   UNL d   1     -41.857-122.486 -51.237  0.00  0.00     0.227 C 
ATOM      8  O   UNL d   1     -42.452-121.990 -51.519  0.00  0.00    -0.279 OA
BRANCH   7   9
ATOM      9  S   UNL d   1     -41.271-122.769 -51.744  0.00  0.00    -0.020 SA
BRANCH   9  10
ATOM     10  C   UNL d   1     -41.334-122.635 -52.554  0.00  0.00     0.143 A 
ATOM     11  N   UNL d   1     -41.407-121.890 -52.917  0.00  0.00    -0.230 NA
ATOM     12  C   UNL d   1     -41.454-122.018 -53.733  0.00  0.00     0.107 A 
ATOM     13  C   UNL d   1     -41.410-122.827 -53.874  0.00  0.00     0.058 A 
ATOM     14  S   UNL d   1     -41.336-123.201 -53.148  0.00  0.00    -0.059 SA
ENDBRANCH   9  10
ENDBRANCH   7   9
ENDBRANCH   1   7
BRANCH   3  15
ATOM     15  O   UNL d   1     -43.264-123.281 -48.904  0.00  0.00    -0.326 OA
ATOM     16  C   UNL d   1     -43.840-123.690 -49.332  0.00  0.00     0.181 C 
ENDBRANCH   3  15
BRANCH   4  17
ATOM     17  O   UNL d   1     -41.822-123.341 -48.054  0.00  0.00    -0.326 OA
ATOM     18  C   UNL d   1     -41.249-123.031 -47.547  0.00  0.00     0.181 C 
ENDBRANCH   4  17
TORSDOF 5
ENDMDL
MODEL 3
REMARK VINA RESULT:      -4.2      0.910      1.132
REMARK  5 active torsions:
REMARK  status: ('A' for Active; 'I' for Inactive)
REMARK    1  A    between atoms: C_2  and  S_1 
REMARK    2  A    between atoms: C_3  and  S_1 
REMARK    3  A    between atoms: C_5  and  C_3 
REMARK    4  A    between atoms: O_13  and  C_8 
REMARK    5  A    between atoms: O_14  and  C_10 
ROOT
ATOM      1  C   UNL d   1     -41.391-123.020 -51.723  0.00  0.00     0.048 A 
ATOM      2  C   UNL d   1     -41.490-122.356 -52.195  0.00  0.00     0.030 A 
ATOM      3  C   UNL d   1     -41.406-122.421 -53.016  0.00  0.00     0.116 A 
ATOM      4  C   UNL d   1     -41.224-123.149 -53.358  0.00  0.00     0.116 A 
ATOM      5  C   UNL d   1     -41.208-123.752 -52.057  0.00  0.00     0.006 A 
ATOM      6  C   UNL d   1     -41.125-123.816 -52.872  0.00  0.00     0.026 A 
ENDROOT
BRANCH   1   7
ATOM      7  C   UNL d   1     -41.475-122.955 -50.902  0.00  0.00     0.227 C 
ATOM      8  O   UNL d   1     -41.167-122.296 -50.511  0.00  0.00    -0.279 OA
BRANCH   7   9
ATOM      9  S   UNL d   1     -41.865-123.547 -50.481  0.00  0.00    -0.020 SA
BRANCH   9  10
ATOM     10  C   UNL d   1     -42.139-123.393 -49.719  0.00  0.00     0.143 A 
ATOM     11  N   UNL d   1     -41.667-123.343 -49.036  0.00  0.00    -0.230 NA
ATOM     12  C   UNL d   1     -42.171-123.180 -48.401  0.00  0.00     0.107 A 
ATOM     13  C   UNL d   1     -42.942-123.130 -48.684  0.00  0.00     0.058 A 
ATOM     14  S   UNL d   1     -42.917-123.261 -49.494  0.00  0.00    -0.059 SA
ENDBRANCH   9  10
ENDBRANCH   7   9
ENDBRANCH   1   7
BRANCH   3  15
ATOM     15  O   UNL d   1     -41.510-121.741 -53.467  0.00  0.00    -0.326 OA
ATOM     16  C   UNL d   1     -42.243-121.360 -53.468  0.00  0.00     0.181 C 
ENDBRANCH   3  15
BRANCH   4  17
ATOM     17  O   UNL d   1     -41.140-123.215 -54.170  0.00  0.00    -0.326 OA
ATOM     18  C   UNL d   1     -41.593-123.761 -54.592  0.00  0.00     0.181 C 
ENDBRANCH   4  17
TORSDOF 5
ENDMDL
MODEL 4
REMARK VINA RESULT:      -3.1      1.013      1.713
REMARK  5 active torsions:
REMARK  status: ('A' for Active; 'I' for Inactive)
REMARK    1  A    between atoms: C_2  and  S_1 
REMARK    2  A    between atoms: C_3  and  S_1 
REMARK    3  A    between atoms: C_5  and  C_3 
REMARK    4  A    between atoms: O_13  and  C_8 
REMARK    5  A    between atoms: O_14  and  C_10 
ROOT
ATOM      1  C   UNL d   1     -41.573-122.779 -51.711  0.00  0.00     0.048 A 
ATOM      2  C   UNL d   1     -41.378-123.298 -52.316  0.00  0.00     0.030 A 
ATOM      3  C   UNL d   1     -41.320-123.017 -53.092  0.00  0.00     0.116 A 
ATOM      4  C   UNL d   1     -41.457-122.221 -53.258  0.00  0.00     0.116 A 
ATOM      5  C   UNL d   1     -41.712-121.981 -51.867  0.00  0.00     0.006 A 
ATOM      6  C   UNL d   1     -41.654-121.703 -52.638  0.00  0.00     0.026 A 
ENDROOT
BRANCH   1   7
ATOM      7  C   UNL d   1     -41.631-123.060 -50.934  0.00  0.00     0.227 C 
ATOM      8  O   UNL d   1     -41.360-123.817 -50.752  0.00  0.00    -0.279 OA
BRANCH   7   9
ATOM      9  S   UNL d   1     -41.960-122.581 -50.348  0.00  0.00    -0.020 SA
BRANCH   9  10
ATOM     10  C   UNL d   1     -42.352-122.927 -49.712  0.00  0.00     0.143 A 
ATOM     11  N   UNL d   1     -43.087-123.315 -49.748  0.00  0.00    -0.230 NA
ATOM     12  C   UNL d   1     -43.266-123.573 -48.983  0.00  0.00     0.107 A 
ATOM     13  C   UNL d   1     -42.655-123.351 -48.481  0.00  0.00     0.058 A 
ATOM     14  S   UNL d   1     -42.096-122.954 -48.932  0.00  0.00    -0.059 SA
ENDBRANCH   9  10
ENDBRANCH   7   9
ENDBRANCH   1   7
BRANCH   3  15
ATOM     15  O   UNL d   1     -41.123-123.558 -53.681  0.00  0.00    -0.326 OA
ATOM     16  C   UNL d   1     -41.704-123.817 -54.208  0.00  0.00     0.181 C 
ENDBRANCH   3  15
BRANCH   4  17
ATOM     17  O   UNL d   1     -41.399-121.942 -54.025  0.00  0.00    -0.326 OA
ATOM     18  C   UNL d   1     -41.980-121.442 -54.331  0.00  0.00     0.181 C 
ENDBRANCH   4  17
TORSDOF 5
ENDMDL
