MODEL 1
REMARK VINA RESULT:      -1.4      0.000      0.000
REMARK  4 active torsions:
REMARK  status: ('A' for Active; 'I' for Inactive)
REMARK    1  A    between atoms: C_4  and  N_1 
REMARK    2  A    between atoms: C_8  and  C_2 
REMARK    3  A    between atoms: C_13  and  C_6 
REMARK    4  A    between atoms: C_7  and  C_8 
ROOT
ATOM      1  N   UNL d   1      58.776  -1.710  29.744  0.00  0.00    -0.255 N 
ATOM      2  C   UNL d   1      58.066  -0.701  30.248  0.00  0.00     0.101 A 
ATOM      3  C   UNL d   1      58.056  -2.020  30.028  0.00  0.00     0.305 A 
ATOM      4  C   UNL d   1      57.614  -1.392  30.341  0.00  0.00     0.256 A 
ATOM      5  C   UNL d   1      58.770  -0.902  29.885  0.00  0.00     0.075 A 
ATOM      6  O   UNL d   1      57.823  -2.811  30.002  0.00  0.00    -0.263 OA
ATOM      7  O   UNL d   1      56.869  -1.456  30.678  0.00  0.00    -0.281 OA
ENDROOT
BRANCH   2   8
ATOM      8  C   UNL d   1      57.827   0.053  30.488  0.00  0.00     0.223 C 
ATOM      9  O   UNL d   1      57.844   0.677  29.948  0.00  0.00    -0.284 OA
BRANCH   8  10
ATOM     10  C   UNL d   1      57.573   0.190  31.252  0.00  0.00     0.139 A 
ATOM     11  O   UNL d   1      58.053   0.247  31.921  0.00  0.00    -0.304 OA
ATOM     12  C   UNL d   1      57.568   0.387  32.573  0.00  0.00     0.100 A 
ATOM     13  C   UNL d   1      57.730   0.492  33.371  0.00  0.00     0.025 A 
ATOM     14  C   UNL d   1      56.787   0.417  32.305  0.00  0.00     0.025 A 
ATOM     15  C   UNL d   1      57.127   0.625  33.899  0.00  0.00     0.002 A 
ATOM     16  C   UNL d   1      56.345   0.655  33.636  0.00  0.00     0.000 A 
ATOM     17  C   UNL d   1      56.176   0.551  32.837  0.00  0.00     0.002 A 
ATOM     18  C   UNL d   1      56.791   0.295  31.491  0.00  0.00     0.030 A 
ENDBRANCH   8  10
ENDBRANCH   2   8
BRANCH   5  19
ATOM     19  C   UNL d   1      59.377  -0.371  29.692  0.00  0.00     0.017 A 
ATOM     20  C   UNL d   1      59.938  -0.180  30.249  0.00  0.00     0.013 A 
ATOM     21  C   UNL d   1      60.547   0.350  30.060  0.00  0.00     0.058 A 
ATOM     22 CL   UNL d   1      61.118   0.547  30.624  0.00  0.00    -0.082 Cl
ATOM     23  C   UNL d   1      60.580   0.682  29.306  0.00  0.00     0.011 A 
ATOM     24  C   UNL d   1      60.010   0.486  28.742  0.00  0.00     0.001 A 
ATOM     25  C   UNL d   1      59.408  -0.043  28.942  0.00  0.00     0.002 A 
ENDBRANCH   5  19
BRANCH   1  26
ATOM     26  C   UNL d   1      59.373  -2.143  29.392  0.00  0.00     0.179 A 
ATOM     27  N   UNL d   1      59.644  -2.046  28.614  0.00  0.00    -0.108 NA
ATOM     28  O   UNL d   1      60.245  -2.590  28.486  0.00  0.00    -0.210 OA
ATOM     29  C   UNL d   1      60.348  -3.026  29.184  0.00  0.00     0.128 A 
ATOM     30  C   UNL d   1      59.807  -2.746  29.741  0.00  0.00     0.067 A 
ATOM     31  C   UNL d   1      60.896  -3.632  29.301  0.00  0.00     0.029 C 
ENDBRANCH   1  26
TORSDOF 4
ENDMDL
