MODEL 1
REMARK VINA RESULT:      -5.2      0.000      0.000
REMARK  4 active torsions:
REMARK  status: ('A' for Active; 'I' for Inactive)
REMARK    1  A    between atoms: C_2  and  S_1 
REMARK    2  A    between atoms: N_7  and  S_1 
REMARK    3  A    between atoms: C_3  and  C_12 
REMARK    4  A    between atoms: C_15  and  N_7 
ROOT
ATOM      1  C   UNL d   1      57.000   0.679  32.106  0.00  0.00     0.024 A 
ATOM      2  C   UNL d   1      57.955   0.677  30.749  0.00  0.00     0.094 A 
ATOM      3  C   UNL d   1      57.822   0.680  32.165  0.00  0.00     0.004 A 
ATOM      4  C   UNL d   1      56.648   0.676  31.357  0.00  0.00     0.004 A 
ATOM      5  C   UNL d   1      58.292   0.679  31.497  0.00  0.00     0.020 A 
ATOM      6  C   UNL d   1      57.117   0.676  30.683  0.00  0.00     0.020 A 
ENDROOT
BRANCH   2   7
ATOM      7  N   UNL d   1      58.421   0.676  30.080  0.00  0.00    -0.158 NA
BRANCH   7   8
ATOM      8  S   UNL d   1      58.687  -0.043  29.762  0.00  0.00     0.287 S 
ATOM      9  O   UNL d   1      57.966  -0.142  29.374  0.00  0.00    -0.198 OA
ATOM     10  O   UNL d   1      59.407   0.055  30.149  0.00  0.00    -0.198 OA
BRANCH   8  11
ATOM     11  C   UNL d   1      58.944  -0.757  29.444  0.00  0.00     0.135 A 
ATOM     12  C   UNL d   1      58.591  -1.466  29.655  0.00  0.00     0.045 A 
ATOM     13  C   UNL d   1      58.849  -2.175  29.337  0.00  0.00     0.141 A 
ATOM     14  F   UNL d   1      58.489  -2.884  29.553  0.00  0.00    -0.204 F 
ATOM     15  C   UNL d   1      59.473  -2.177  28.798  0.00  0.00     0.032 A 
ATOM     16  C   UNL d   1      59.840  -1.469  28.576  0.00  0.00     0.033 A 
ATOM     17  C   UNL d   1      59.569  -0.759  28.905  0.00  0.00     0.152 A 
ATOM     18  F   UNL d   1      59.936  -0.046  28.684  0.00  0.00    -0.203 F 
ENDBRANCH   8  11
ENDBRANCH   7   8
ENDBRANCH   2   7
BRANCH   1  19
ATOM     19  C   UNL d   1      56.525   0.679  32.780  0.00  0.00     0.112 A 
ATOM     20  S   UNL d   1      56.798   0.680  33.554  0.00  0.00    -0.047 SA
ATOM     21  C   UNL d   1      56.132   0.680  34.065  0.00  0.00     0.130 A 
ATOM     22  N   UNL d   1      56.064   0.681  34.886  0.00  0.00    -0.236 NA
ATOM     23  C   UNL d   1      55.451   0.681  33.585  0.00  0.00     0.106 A 
ATOM     24  C   UNL d   1      55.311   0.682  35.230  0.00  0.00     0.100 A 
ATOM     25  C   UNL d   1      54.630   0.682  34.756  0.00  0.00     0.022 A 
ATOM     26  C   UNL d   1      54.703   0.681  33.937  0.00  0.00     0.023 A 
ATOM     27  N   UNL d   1      55.697   0.680  32.787  0.00  0.00    -0.237 NA
ENDBRANCH   1  19
TORSDOF 4
ENDMDL
