MODEL 1
REMARK VINA RESULT:      -0.6      0.000      0.000
REMARK  8 active torsions:
REMARK  status: ('A' for Active; 'I' for Inactive)
REMARK    1  A    between atoms: C_7  and  C_1 
REMARK    2  A    between atoms: C_2  and  O_5 
REMARK    3  A    between atoms: C_4  and  C_2 
REMARK    4  A    between atoms: O_5  and  C_3 
REMARK    5  A    between atoms: C_6  and  C_7 
REMARK    6  A    between atoms: C_8  and  C_6 
REMARK    7  A    between atoms: C_11  and  C_8 
REMARK    8  A    between atoms: O_22  and  C_18 
ROOT
ATOM      1  C   UNL d   1      58.905  -0.049  30.809  0.00  0.00     0.062 A 
ATOM      2  C   UNL d   1      59.260  -0.503  30.205  0.00  0.00     0.106 A 
ATOM      3  C   UNL d   1      59.383   0.343  31.355  0.00  0.00     0.012 A 
ATOM      4  C   UNL d   1      60.078  -0.552  30.162  0.00  0.00     0.025 A 
ATOM      5  C   UNL d   1      60.201   0.288  31.306  0.00  0.00     0.035 A 
ATOM      6  C   UNL d   1      60.553  -0.161  30.707  0.00  0.00     0.009 A 
ATOM      7 BR   UNL d   1      60.677   0.682  31.854  0.00  0.00    -0.049 Br
ENDROOT
BRANCH   1   8
ATOM      8  C   UNL d   1      58.084   0.004  30.857  0.00  0.00     0.198 C 
ATOM      9  O   UNL d   1      57.642   0.162  30.176  0.00  0.00    -0.286 OA
BRANCH   8  10
ATOM     10  C   UNL d   1      57.704  -0.099  31.580  0.00  0.00     0.042 C 
BRANCH  10  11
ATOM     11  C   UNL d   1      56.930  -0.381  31.605  0.00  0.00     0.005 C 
BRANCH  11  12
ATOM     12  C   UNL d   1      56.451  -0.231  32.269  0.00  0.00     0.022 A 
ATOM     13  C   UNL d   1      56.030  -0.876  32.598  0.00  0.00     0.094 A 
ATOM     14  C   UNL d   1      55.550  -0.703  33.271  0.00  0.00     0.024 A 
ATOM     15  C   UNL d   1      55.502   0.061  33.584  0.00  0.00     0.002 A 
ATOM     16  C   UNL d   1      55.939   0.682  33.228  0.00  0.00     0.000 A 
ATOM     17  C   UNL d   1      56.412   0.529  32.570  0.00  0.00     0.002 A 
BRANCH  13  18
ATOM     18  O   UNL d   1      56.074  -1.638  32.290  0.00  0.00    -0.328 OA
ATOM     19  C   UNL d   1      55.751  -2.275  32.706  0.00  0.00     0.181 C 
ENDBRANCH  13  18
ENDBRANCH  11  12
ENDBRANCH  10  11
ENDBRANCH   8  10
ENDBRANCH   1   8
BRANCH   2  20
ATOM     20  O   UNL d   1      58.786  -0.893  29.660  0.00  0.00    -0.271 OA
BRANCH  20  21
ATOM     21  C   UNL d   1      59.137  -1.326  29.049  0.00  0.00     0.323 C 
ATOM     22  O   UNL d   1      59.718  -0.981  28.568  0.00  0.00    -0.257 OA
BRANCH  21  23
ATOM     23  C   UNL d   1      58.912  -2.108  28.914  0.00  0.00     0.163 A 
ATOM     24  O   UNL d   1      59.410  -2.718  28.673  0.00  0.00    -0.300 OA
ATOM     25  C   UNL d   1      58.949  -3.412  28.605  0.00  0.00     0.123 A 
ATOM     26  C   UNL d   1      58.171  -3.222  28.805  0.00  0.00     0.029 A 
ATOM     27  C   UNL d   1      58.148  -2.416  28.996  0.00  0.00     0.032 A 
ENDBRANCH  21  23
ENDBRANCH  20  21
ENDBRANCH   2  20
TORSDOF 8
ENDMDL
MODEL 2
REMARK VINA RESULT:       0.9      1.008      4.538
REMARK  8 active torsions:
REMARK  status: ('A' for Active; 'I' for Inactive)
REMARK    1  A    between atoms: C_7  and  C_1 
REMARK    2  A    between atoms: C_2  and  O_5 
REMARK    3  A    between atoms: C_4  and  C_2 
REMARK    4  A    between atoms: O_5  and  C_3 
REMARK    5  A    between atoms: C_6  and  C_7 
REMARK    6  A    between atoms: C_8  and  C_6 
REMARK    7  A    between atoms: C_11  and  C_8 
REMARK    8  A    between atoms: O_22  and  C_18 
ROOT
ATOM      1  C   UNL d   1      58.100   0.050  31.300  0.00  0.00     0.062 A 
ATOM      2  C   UNL d   1      57.776   0.210  32.053  0.00  0.00     0.106 A 
ATOM      3  C   UNL d   1      58.896   0.208  31.160  0.00  0.00     0.012 A 
ATOM      4  C   UNL d   1      58.255   0.521  32.642  0.00  0.00     0.025 A 
ATOM      5  C   UNL d   1      59.369   0.520  31.755  0.00  0.00     0.035 A 
ATOM      6  C   UNL d   1      59.049   0.678  32.501  0.00  0.00     0.009 A 
ATOM      7 BR   UNL d   1      60.168   0.676  31.611  0.00  0.00    -0.049 Br
ENDROOT
BRANCH   1   8
ATOM      8  C   UNL d   1      57.623  -0.262  30.703  0.00  0.00     0.198 C 
ATOM      9  O   UNL d   1      56.940   0.141  30.469  0.00  0.00    -0.286 OA
BRANCH   8  10
ATOM     10  C   UNL d   1      57.827  -0.973  30.342  0.00  0.00     0.042 C 
BRANCH  10  11
ATOM     11  C   UNL d   1      58.260  -0.972  29.641  0.00  0.00     0.005 C 
BRANCH  11  12
ATOM     12  C   UNL d   1      58.536  -1.688  29.318  0.00  0.00     0.022 A 
ATOM     13  C   UNL d   1      59.207  -1.656  28.818  0.00  0.00     0.094 A 
ATOM     14  C   UNL d   1      59.471  -2.393  28.502  0.00  0.00     0.024 A 
ATOM     15  C   UNL d   1      59.086  -3.103  28.678  0.00  0.00     0.002 A 
ATOM     16  C   UNL d   1      58.416  -3.096  29.183  0.00  0.00     0.000 A 
ATOM     17  C   UNL d   1      58.146  -2.384  29.500  0.00  0.00     0.002 A 
BRANCH  13  18
ATOM     18  O   UNL d   1      59.594  -0.952  28.640  0.00  0.00    -0.328 OA
ATOM     19  C   UNL d   1      60.401  -0.954  28.457  0.00  0.00     0.181 C 
ENDBRANCH  13  18
ENDBRANCH  11  12
ENDBRANCH  10  11
ENDBRANCH   8  10
ENDBRANCH   1   8
BRANCH   2  20
ATOM     20  O   UNL d   1      56.982   0.054  32.194  0.00  0.00    -0.271 OA
BRANCH  20  21
ATOM     21  C   UNL d   1      56.697   0.063  32.970  0.00  0.00     0.323 C 
ATOM     22  O   UNL d   1      57.219   0.128  33.611  0.00  0.00    -0.257 OA
BRANCH  21  23
ATOM     23  C   UNL d   1      55.886   0.006  33.112  0.00  0.00     0.163 A 
ATOM     24  O   UNL d   1      55.419  -0.661  32.982  0.00  0.00    -0.300 OA
ATOM     25  C   UNL d   1      54.635  -0.470  33.202  0.00  0.00     0.123 A 
ATOM     26  C   UNL d   1      54.627   0.312  33.464  0.00  0.00     0.029 A 
ATOM     27  C   UNL d   1      55.400   0.606  33.409  0.00  0.00     0.032 A 
ENDBRANCH  21  23
ENDBRANCH  20  21
ENDBRANCH   2  20
TORSDOF 8
ENDMDL
