MODEL 1
REMARK VINA RESULT:      -2.4      0.000      0.000
REMARK  5 active torsions:
REMARK  status: ('A' for Active; 'I' for Inactive)
REMARK    1  A    between atoms: N_2  and  S_1 
REMARK    2  A    between atoms: C_10  and  S_1 
REMARK    3  A    between atoms: S_6  and  C_3 
REMARK    4  A    between atoms: C_4  and  C_7 
REMARK    5  A    between atoms: C_7  and  S_6 
ROOT
ATOM      1  N   UNL d   1      31.930  17.147 -24.566  0.00  0.00    -0.208 N 
ATOM      2  C   UNL d   1      32.551  17.545 -24.181  0.00  0.00     0.189 A 
ATOM      3  N   UNL d   1      33.238  17.079 -24.243  0.00  0.00    -0.219 NA
ATOM      4  C   UNL d   1      32.236  16.435 -24.866  0.00  0.00     0.114 A 
ATOM      5  C   UNL d   1      33.038  16.396 -24.666  0.00  0.00     0.121 A 
ENDROOT
BRANCH   2   6
ATOM      6  S   UNL d   1      32.489  18.280 -23.801  0.00  0.00    -0.049 SA
BRANCH   6   7
ATOM      7  C   UNL d   1      33.177  18.676 -23.570  0.00  0.00     0.041 C 
BRANCH   7   8
ATOM      8  C   UNL d   1      33.198  19.399 -23.182  0.00  0.00     0.045 A 
ATOM      9  C   UNL d   1      33.213  20.102 -23.610  0.00  0.00     0.141 A 
ATOM     10  F   UNL d   1      33.207  20.087 -24.443  0.00  0.00    -0.204 F 
ATOM     11  C   UNL d   1      33.235  20.832 -23.216  0.00  0.00     0.030 A 
ATOM     12  C   UNL d   1      33.241  20.847 -22.384  0.00  0.00     0.003 A 
ATOM     13  C   UNL d   1      33.226  20.144 -21.956  0.00  0.00     0.012 A 
ATOM     14  C   UNL d   1      33.204  19.415 -22.354  0.00  0.00     0.060 A 
ATOM     15 CL   UNL d   1      33.189  18.718 -21.916  0.00  0.00    -0.082 Cl
ENDBRANCH   7   8
ENDBRANCH   6   7
ENDBRANCH   2   6
BRANCH   1  16
ATOM     16  S   UNL d   1      31.149  17.409 -24.640  0.00  0.00     0.273 S 
ATOM     17  O   UNL d   1      31.454  18.073 -25.026  0.00  0.00    -0.200 OA
ATOM     18  O   UNL d   1      30.488  17.871 -24.832  0.00  0.00    -0.200 OA
BRANCH  16  19
ATOM     19  C   UNL d   1      30.826  16.756 -24.258  0.00  0.00     0.104 A 
ATOM     20  C   UNL d   1      30.781  16.749 -23.439  0.00  0.00     0.013 A 
ATOM     21  C   UNL d   1      30.457  16.094 -23.060  0.00  0.00     0.001 A 
ATOM     22  C   UNL d   1      30.181  15.453 -23.493  0.00  0.00     0.000 A 
ATOM     23  C   UNL d   1      30.231  15.468 -24.321  0.00  0.00     0.001 A 
ATOM     24  C   UNL d   1      30.554  16.123 -24.700  0.00  0.00     0.013 A 
ENDBRANCH  16  19
ENDBRANCH   1  16
TORSDOF 5
ENDMDL
MODEL 2
REMARK VINA RESULT:      -1.2      2.084      4.330
REMARK  5 active torsions:
REMARK  status: ('A' for Active; 'I' for Inactive)
REMARK    1  A    between atoms: N_2  and  S_1 
REMARK    2  A    between atoms: C_10  and  S_1 
REMARK    3  A    between atoms: S_6  and  C_3 
REMARK    4  A    between atoms: C_4  and  C_7 
REMARK    5  A    between atoms: C_7  and  S_6 
ROOT
ATOM      1  N   UNL d   1      31.352  17.076 -24.729  0.00  0.00    -0.208 N 
ATOM      2  C   UNL d   1      30.927  16.394 -24.511  0.00  0.00     0.189 A 
ATOM      3  N   UNL d   1      31.367  15.726 -24.739  0.00  0.00    -0.219 NA
ATOM      4  C   UNL d   1      32.057  16.825 -25.091  0.00  0.00     0.114 A 
ATOM      5  C   UNL d   1      32.064  15.998 -25.097  0.00  0.00     0.121 A 
ENDROOT
BRANCH   2   6
ATOM      6  S   UNL d   1      30.189  16.389 -24.132  0.00  0.00    -0.049 SA
BRANCH   6   7
ATOM      7  C   UNL d   1      29.739  15.695 -24.130  0.00  0.00     0.041 C 
BRANCH   7   8
ATOM      8  C   UNL d   1      28.996  15.615 -23.790  0.00  0.00     0.045 A 
ATOM      9  C   UNL d   1      28.326  15.553 -24.264  0.00  0.00     0.141 A 
ATOM     10  F   UNL d   1      28.394  15.571 -25.093  0.00  0.00    -0.204 F 
ATOM     11  C   UNL d   1      27.575  15.472 -23.919  0.00  0.00     0.030 A 
ATOM     12  C   UNL d   1      27.507  15.454 -23.090  0.00  0.00     0.003 A 
ATOM     13  C   UNL d   1      28.177  15.516 -22.616  0.00  0.00     0.012 A 
ATOM     14  C   UNL d   1      28.926  15.597 -22.966  0.00  0.00     0.060 A 
ATOM     15 CL   UNL d   1      29.591  15.658 -22.482  0.00  0.00    -0.082 Cl
ENDBRANCH   7   8
ENDBRANCH   6   7
ENDBRANCH   2   6
BRANCH   1  16
ATOM     16  S   UNL d   1      31.120  17.860 -24.607  0.00  0.00     0.273 S 
ATOM     17  O   UNL d   1      30.431  17.675 -25.025  0.00  0.00    -0.200 OA
ATOM     18  O   UNL d   1      30.680  18.562 -24.621  0.00  0.00    -0.200 OA
BRANCH  16  19
ATOM     19  C   UNL d   1      31.799  18.064 -24.190  0.00  0.00     0.104 A 
ATOM     20  C   UNL d   1      31.812  17.975 -23.375  0.00  0.00     0.013 A 
ATOM     21  C   UNL d   1      32.493  18.180 -22.960  0.00  0.00     0.001 A 
ATOM     22  C   UNL d   1      33.153  18.470 -23.353  0.00  0.00     0.000 A 
ATOM     23  C   UNL d   1      33.131  18.556 -24.178  0.00  0.00     0.001 A 
ATOM     24  C   UNL d   1      32.450  18.352 -24.593  0.00  0.00     0.013 A 
ENDBRANCH  16  19
ENDBRANCH   1  16
TORSDOF 5
ENDMDL
MODEL 3
REMARK VINA RESULT:      -0.5      1.652      2.115
REMARK  5 active torsions:
REMARK  status: ('A' for Active; 'I' for Inactive)
REMARK    1  A    between atoms: N_2  and  S_1 
REMARK    2  A    between atoms: C_10  and  S_1 
REMARK    3  A    between atoms: S_6  and  C_3 
REMARK    4  A    between atoms: C_4  and  C_7 
REMARK    5  A    between atoms: C_7  and  S_6 
ROOT
ATOM      1  N   UNL d   1      32.675  18.328 -24.061  0.00  0.00    -0.208 N 
ATOM      2  C   UNL d   1      32.881  19.078 -23.764  0.00  0.00     0.189 A 
ATOM      3  N   UNL d   1      33.094  19.564 -24.405  0.00  0.00    -0.219 NA
ATOM      4  C   UNL d   1      32.763  18.354 -24.888  0.00  0.00     0.114 A 
ATOM      5  C   UNL d   1      33.019  19.112 -25.095  0.00  0.00     0.121 A 
ENDROOT
BRANCH   2   6
ATOM      6  S   UNL d   1      32.872  19.296 -22.964  0.00  0.00    -0.049 SA
BRANCH   6   7
ATOM      7  C   UNL d   1      33.227  20.006 -22.733  0.00  0.00     0.041 C 
BRANCH   7   8
ATOM      8  C   UNL d   1      32.978  20.479 -22.111  0.00  0.00     0.045 A 
ATOM      9  C   UNL d   1      32.854  20.156 -21.365  0.00  0.00     0.141 A 
ATOM     10  F   UNL d   1      32.980  19.344 -21.233  0.00  0.00    -0.204 F 
ATOM     11  C   UNL d   1      32.601  20.636 -20.736  0.00  0.00     0.030 A 
ATOM     12  C   UNL d   1      32.475  21.448 -20.869  0.00  0.00     0.003 A 
ATOM     13  C   UNL d   1      32.600  21.772 -21.615  0.00  0.00     0.012 A 
ATOM     14  C   UNL d   1      32.852  21.288 -22.241  0.00  0.00     0.060 A 
ATOM     15 CL   UNL d   1      32.974  21.622 -22.985  0.00  0.00    -0.082 Cl
ENDBRANCH   7   8
ENDBRANCH   6   7
ENDBRANCH   2   6
BRANCH   1  16
ATOM     16  S   UNL d   1      32.429  17.674 -23.619  0.00  0.00     0.273 S 
ATOM     17  O   UNL d   1      33.138  17.745 -23.200  0.00  0.00    -0.200 OA
ATOM     18  O   UNL d   1      32.412  17.063 -23.060  0.00  0.00    -0.200 OA
BRANCH  16  19
ATOM     19  C   UNL d   1      31.719  17.586 -24.024  0.00  0.00     0.104 A 
ATOM     20  C   UNL d   1      31.056  17.996 -23.770  0.00  0.00     0.013 A 
ATOM     21  C   UNL d   1      30.347  17.906 -24.178  0.00  0.00     0.001 A 
ATOM     22  C   UNL d   1      30.299  17.413 -24.832  0.00  0.00     0.000 A 
ATOM     23  C   UNL d   1      30.974  17.001 -25.083  0.00  0.00     0.001 A 
ATOM     24  C   UNL d   1      31.683  17.091 -24.675  0.00  0.00     0.013 A 
ENDBRANCH  16  19
ENDBRANCH   1  16
TORSDOF 5
ENDMDL
MODEL 4
REMARK VINA RESULT:       0.4      1.831      4.140
REMARK  5 active torsions:
REMARK  status: ('A' for Active; 'I' for Inactive)
REMARK    1  A    between atoms: N_2  and  S_1 
REMARK    2  A    between atoms: C_10  and  S_1 
REMARK    3  A    between atoms: S_6  and  C_3 
REMARK    4  A    between atoms: C_4  and  C_7 
REMARK    5  A    between atoms: C_7  and  S_6 
ROOT
ATOM      1  N   UNL d   1      32.496  18.161 -24.087  0.00  0.00    -0.208 N 
ATOM      2  C   UNL d   1      31.776  17.920 -24.429  0.00  0.00     0.189 A 
ATOM      3  N   UNL d   1      31.597  18.439 -25.054  0.00  0.00    -0.219 NA
ATOM      4  C   UNL d   1      32.759  18.831 -24.504  0.00  0.00     0.114 A 
ATOM      5  C   UNL d   1      32.206  18.999 -25.096  0.00  0.00     0.121 A 
ENDROOT
BRANCH   2   6
ATOM      6  S   UNL d   1      31.320  17.272 -24.183  0.00  0.00    -0.049 SA
BRANCH   6   7
ATOM      7  C   UNL d   1      30.581  17.141 -24.530  0.00  0.00     0.041 C 
BRANCH   7   8
ATOM      8  C   UNL d   1      29.982  16.685 -24.206  0.00  0.00     0.045 A 
ATOM      9  C   UNL d   1      29.510  16.985 -23.601  0.00  0.00     0.141 A 
ATOM     10  F   UNL d   1      29.637  17.755 -23.312  0.00  0.00    -0.204 F 
ATOM     11  C   UNL d   1      28.903  16.522 -23.274  0.00  0.00     0.030 A 
ATOM     12  C   UNL d   1      28.776  15.752 -23.563  0.00  0.00     0.003 A 
ATOM     13  C   UNL d   1      29.248  15.453 -24.167  0.00  0.00     0.012 A 
ATOM     14  C   UNL d   1      29.854  15.919 -24.492  0.00  0.00     0.060 A 
ATOM     15 CL   UNL d   1      30.320  15.609 -25.097  0.00  0.00    -0.082 Cl
ENDBRANCH   7   8
ENDBRANCH   6   7
ENDBRANCH   2   6
BRANCH   1  16
ATOM     16  S   UNL d   1      32.882  17.803 -23.449  0.00  0.00     0.273 S 
ATOM     17  O   UNL d   1      32.836  17.096 -23.875  0.00  0.00    -0.200 OA
ATOM     18  O   UNL d   1      33.241  17.235 -22.965  0.00  0.00    -0.200 OA
BRANCH  16  19
ATOM     19  C   UNL d   1      32.937  18.496 -23.010  0.00  0.00     0.104 A 
ATOM     20  C   UNL d   1      32.766  18.480 -22.209  0.00  0.00     0.013 A 
ATOM     21  C   UNL d   1      32.822  19.177 -21.772  0.00  0.00     0.001 A 
ATOM     22  C   UNL d   1      33.046  19.880 -22.131  0.00  0.00     0.000 A 
ATOM     23  C   UNL d   1      33.217  19.887 -22.943  0.00  0.00     0.001 A 
ATOM     24  C   UNL d   1      33.161  19.191 -23.379  0.00  0.00     0.013 A 
ENDBRANCH  16  19
ENDBRANCH   1  16
TORSDOF 5
ENDMDL
