MODEL 1
REMARK VINA RESULT:      -0.3      0.000      0.000
REMARK  4 active torsions:
REMARK  status: ('A' for Active; 'I' for Inactive)
REMARK    1  A    between atoms: S_6  and  C_1 
REMARK    2  A    between atoms: C_9  and  N_2 
REMARK    3  A    between atoms: C_15  and  S_6 
REMARK    4  A    between atoms: C_14  and  C_9 
ROOT
ATOM      1  C   UNL d   1      57.810  -0.789  30.596  0.00  0.00     0.145 A 
ATOM      2  N   UNL d   1      58.606  -0.224  29.699  0.00  0.00    -0.270 N 
ATOM      3  C   UNL d   1      58.121  -1.392  30.122  0.00  0.00     0.130 A 
ATOM      4  C   UNL d   1      58.109  -0.067  30.336  0.00  0.00     0.183 A 
ATOM      5  C   UNL d   1      58.617  -1.040  29.563  0.00  0.00     0.168 A 
ATOM      6  N   UNL d   1      58.018  -2.210  30.125  0.00  0.00    -0.240 NA
ATOM      7  N   UNL d   1      59.009  -1.505  29.008  0.00  0.00    -0.225 NA
ATOM      8  C   UNL d   1      58.410  -2.675  29.570  0.00  0.00     0.099 A 
ATOM      9  C   UNL d   1      58.906  -2.323  29.011  0.00  0.00     0.101 A 
ATOM     10  N   UNL d   1      57.949   0.680  30.646  0.00  0.00    -0.128 N 
ATOM     11  C   UNL d   1      58.307  -3.492  29.574  0.00  0.00     0.021 A 
ATOM     12  C   UNL d   1      59.299  -2.788  28.456  0.00  0.00     0.021 A 
ATOM     13  C   UNL d   1      59.196  -3.605  28.460  0.00  0.00     0.002 A 
ATOM     14  C   UNL d   1      58.700  -3.958  29.019  0.00  0.00     0.002 A 
ENDROOT
BRANCH   1  15
ATOM     15  S   UNL d   1      57.286  -0.900  31.226  0.00  0.00     0.214 S 
ATOM     16  O   UNL d   1      56.831  -0.601  30.610  0.00  0.00    -0.217 OA
ATOM     17  O   UNL d   1      57.746  -1.201  31.844  0.00  0.00    -0.217 OA
BRANCH  15  18
ATOM     18  C   UNL d   1      56.754  -1.006  31.844  0.00  0.00     0.088 A 
ATOM     19  C   UNL d   1      56.329  -0.321  32.035  0.00  0.00     0.011 A 
ATOM     20  C   UNL d   1      55.770  -0.344  32.649  0.00  0.00     0.001 A 
ATOM     21  C   UNL d   1      55.639  -1.045  33.067  0.00  0.00     0.000 A 
ATOM     22  C   UNL d   1      56.065  -1.725  32.874  0.00  0.00     0.001 A 
ATOM     23  C   UNL d   1      56.623  -1.707  32.262  0.00  0.00     0.011 A 
ENDBRANCH  15  18
ENDBRANCH   1  15
BRANCH   2  24
ATOM     24  C   UNL d   1      59.029   0.337  29.262  0.00  0.00     0.108 C 
BRANCH  24  25
ATOM     25  C   UNL d   1      59.823   0.465  29.419  0.00  0.00     0.118 A 
ATOM     26  O   UNL d   1      60.156   0.558  30.160  0.00  0.00    -0.304 OA
ATOM     27  C   UNL d   1      60.971   0.675  30.066  0.00  0.00     0.123 A 
ATOM     28  C   UNL d   1      61.133   0.653  29.264  0.00  0.00     0.029 A 
ATOM     29  C   UNL d   1      60.422   0.523  28.868  0.00  0.00     0.028 A 
ENDBRANCH  24  25
ENDBRANCH   2  24
TORSDOF 4
ENDMDL
MODEL 2
REMARK VINA RESULT:       0.5      1.012      3.405
REMARK  4 active torsions:
REMARK  status: ('A' for Active; 'I' for Inactive)
REMARK    1  A    between atoms: S_6  and  C_1 
REMARK    2  A    between atoms: C_9  and  N_2 
REMARK    3  A    between atoms: C_15  and  S_6 
REMARK    4  A    between atoms: C_14  and  C_9 
ROOT
ATOM      1  C   UNL d   1      58.400  -1.514  29.777  0.00  0.00     0.145 A 
ATOM      2  N   UNL d   1      58.702  -0.246  30.023  0.00  0.00    -0.270 N 
ATOM      3  C   UNL d   1      57.917  -1.258  30.399  0.00  0.00     0.130 A 
ATOM      4  C   UNL d   1      58.884  -0.890  29.544  0.00  0.00     0.183 A 
ATOM      5  C   UNL d   1      58.105  -0.468  30.552  0.00  0.00     0.168 A 
ATOM      6  N   UNL d   1      57.336  -1.638  30.842  0.00  0.00    -0.240 NA
ATOM      7  N   UNL d   1      57.712  -0.058  31.149  0.00  0.00    -0.225 NA
ATOM      8  C   UNL d   1      56.943  -1.228  31.439  0.00  0.00     0.099 A 
ATOM      9  C   UNL d   1      57.131  -0.438  31.592  0.00  0.00     0.101 A 
ATOM     10  N   UNL d   1      59.451  -0.895  28.944  0.00  0.00    -0.128 N 
ATOM     11  C   UNL d   1      56.361  -1.607  31.883  0.00  0.00     0.021 A 
ATOM     12  C   UNL d   1      56.737  -0.028  32.189  0.00  0.00     0.021 A 
ATOM     13  C   UNL d   1      56.156  -0.408  32.633  0.00  0.00     0.002 A 
ATOM     14  C   UNL d   1      55.968  -1.197  32.479  0.00  0.00     0.002 A 
ENDROOT
BRANCH   1  15
ATOM     15  S   UNL d   1      58.391  -2.272  29.448  0.00  0.00     0.214 S 
ATOM     16  O   UNL d   1      57.991  -1.795  28.912  0.00  0.00    -0.217 OA
ATOM     17  O   UNL d   1      58.795  -2.751  29.989  0.00  0.00    -0.217 OA
BRANCH  15  18
ATOM     18  C   UNL d   1      58.375  -3.022  29.110  0.00  0.00     0.088 A 
ATOM     19  C   UNL d   1      59.120  -3.383  29.070  0.00  0.00     0.011 A 
ATOM     20  C   UNL d   1      59.189  -4.143  28.741  0.00  0.00     0.001 A 
ATOM     21  C   UNL d   1      58.521  -4.536  28.455  0.00  0.00     0.000 A 
ATOM     22  C   UNL d   1      57.781  -4.173  28.497  0.00  0.00     0.001 A 
ATOM     23  C   UNL d   1      57.706  -3.415  28.824  0.00  0.00     0.011 A 
ENDBRANCH  15  18
ENDBRANCH   1  15
BRANCH   2  24
ATOM     24  C   UNL d   1      59.052   0.502  29.986  0.00  0.00     0.108 C 
BRANCH  24  25
ATOM     25  C   UNL d   1      59.869   0.572  29.986  0.00  0.00     0.118 A 
ATOM     26  O   UNL d   1      60.346   0.613  30.649  0.00  0.00    -0.304 OA
ATOM     27  C   UNL d   1      61.133   0.682  30.398  0.00  0.00     0.123 A 
ATOM     28  C   UNL d   1      61.133   0.682  29.580  0.00  0.00     0.029 A 
ATOM     29  C   UNL d   1      60.351   0.614  29.329  0.00  0.00     0.028 A 
ENDBRANCH  24  25
ENDBRANCH   2  24
TORSDOF 4
ENDMDL
