MODEL 1
REMARK VINA RESULT:      85.0      0.000      0.000
REMARK  5 active torsions:
REMARK  status: ('A' for Active; 'I' for Inactive)
REMARK    1  A    between atoms: C_13  and  C_2 
REMARK       I    between atoms: N_7  and  C_10 
REMARK    2  A    between atoms: S_14  and  C_8 
REMARK    3  A    between atoms: C_20  and  N_9 
REMARK    4  A    between atoms: C_10  and  C_19 
REMARK    5  A    between atoms: C_19  and  S_14 
ROOT
ATOM      1  S   UNL d   1     -55.517-101.198 -39.828  0.00  0.00    -0.061 SA
ENDROOT
BRANCH   1   2
ATOM      2  C   UNL d   1     -55.358-101.623 -39.137  0.00  0.00     0.131 A 
ATOM      3  N   UNL d   1     -55.204-101.223 -38.432  0.00  0.00    -0.156 NA
ATOM      4  N   UNL d   1     -55.042-101.655 -37.731  0.00  0.00    -0.191 N 
ATOM      5  C   UNL d   1     -54.873-101.408 -36.967  0.00  0.00     0.187 A 
ATOM      6  C   UNL d   1     -55.040-102.473 -37.755  0.00  0.00     0.187 A 
ATOM      7  N   UNL d   1     -54.763-102.077 -36.506  0.00  0.00    -0.127 NA
ATOM      8  N   UNL d   1     -54.864-102.741 -36.986  0.00  0.00    -0.127 NA
ATOM      9  C   UNL d   1     -55.194-102.873 -38.461  0.00  0.00     0.043 A 
ATOM     10  C   UNL d   1     -55.353-102.448 -39.151  0.00  0.00     0.031 A 
BRANCH   5  11
ATOM     11  C   UNL d   1     -54.822-100.633 -36.704  0.00  0.00     0.038 A 
ATOM     12  C   UNL d   1     -54.771-100.015 -37.239  0.00  0.00     0.003 A 
ATOM     13  C   UNL d   1     -54.719 -99.233 -36.976  0.00  0.00     0.000 A 
ATOM     14  C   UNL d   1     -54.718 -99.080 -36.162  0.00  0.00     0.000 A 
ATOM     15  C   UNL d   1     -54.769 -99.699 -35.619  0.00  0.00     0.000 A 
ATOM     16  C   UNL d   1     -54.821-100.480 -35.891  0.00  0.00     0.003 A 
ENDBRANCH   5  11
ENDBRANCH   1   2
BRANCH   1  17
ATOM     17  C   UNL d   1     -55.786-101.592 -40.499  0.00  0.00     0.098 C 
BRANCH  17  18
ATOM     18  C   UNL d   1     -55.255-101.811 -41.080  0.00  0.00     0.272 C 
ATOM     19  N   UNL d   1     -55.250-101.406 -41.799  0.00  0.00    -0.269 N 
ATOM     20  C   UNL d   1     -54.720-101.625 -42.378  0.00  0.00     0.102 A 
ATOM     21  C   UNL d   1     -55.779-100.784 -41.924  0.00  0.00     0.102 A 
ATOM     22  C   UNL d   1     -54.712-101.228 -43.087  0.00  0.00     0.100 A 
ATOM     23  N   UNL d   1     -55.236-100.604 -43.228  0.00  0.00    -0.301 N 
ATOM     24  C   UNL d   1     -55.770-100.386 -42.638  0.00  0.00     0.100 A 
ATOM     25  O   UNL d   1     -54.729-102.430 -40.952  0.00  0.00    -0.266 OA
BRANCH  23  26
ATOM     26  C   UNL d   1     -55.223-100.208 -43.945  0.00  0.00     0.064 A 
ATOM     27  C   UNL d   1     -55.248 -99.387 -43.968  0.00  0.00     0.018 A 
ATOM     28  C   UNL d   1     -55.234 -98.993 -44.695  0.00  0.00     0.002 A 
ATOM     29  C   UNL d   1     -55.195 -99.423 -45.389  0.00  0.00     0.000 A 
ATOM     30  C   UNL d   1     -55.169-100.258 -45.372  0.00  0.00     0.002 A 
ATOM     31  C   UNL d   1     -55.183-100.643 -44.647  0.00  0.00     0.018 A 
ENDBRANCH  23  26
ENDBRANCH  17  18
ENDBRANCH   1  17
TORSDOF 5
ENDMDL
MODEL 2
REMARK VINA RESULT:      87.5      1.726      6.395
REMARK  5 active torsions:
REMARK  status: ('A' for Active; 'I' for Inactive)
REMARK    1  A    between atoms: C_13  and  C_2 
REMARK       I    between atoms: N_7  and  C_10 
REMARK    2  A    between atoms: S_14  and  C_8 
REMARK    3  A    between atoms: C_20  and  N_9 
REMARK    4  A    between atoms: C_10  and  C_19 
REMARK    5  A    between atoms: C_19  and  S_14 
ROOT
ATOM      1  S   UNL d   1     -56.083-101.937 -42.441  0.00  0.00    -0.061 SA
ENDROOT
BRANCH   1   2
ATOM      2  C   UNL d   1     -55.814-101.230 -42.772  0.00  0.00     0.131 A 
ATOM      3  N   UNL d   1     -56.339-100.733 -43.170  0.00  0.00    -0.156 NA
ATOM      4  N   UNL d   1     -56.065-100.015 -43.507  0.00  0.00    -0.191 N 
ATOM      5  C   UNL d   1     -56.456 -99.427 -43.924  0.00  0.00     0.187 A 
ATOM      6  C   UNL d   1     -55.274 -99.814 -43.436  0.00  0.00     0.187 A 
ATOM      7  N   UNL d   1     -55.906 -98.850 -44.118  0.00  0.00    -0.127 NA
ATOM      8  N   UNL d   1     -55.172 -99.082 -43.820  0.00  0.00    -0.127 NA
ATOM      9  C   UNL d   1     -54.749-100.311 -43.038  0.00  0.00     0.043 A 
ATOM     10  C   UNL d   1     -55.019-101.018 -42.707  0.00  0.00     0.031 A 
BRANCH   5  11
ATOM     11  C   UNL d   1     -57.252 -99.410 -44.117  0.00  0.00     0.038 A 
ATOM     12  C   UNL d   1     -57.499 -99.594 -44.875  0.00  0.00     0.003 A 
ATOM     13  C   UNL d   1     -58.303 -99.578 -45.072  0.00  0.00     0.000 A 
ATOM     14  C   UNL d   1     -58.857 -99.374 -44.493  0.00  0.00     0.000 A 
ATOM     15  C   UNL d   1     -58.613 -99.188 -43.727  0.00  0.00     0.000 A 
ATOM     16  C   UNL d   1     -57.806 -99.206 -43.537  0.00  0.00     0.003 A 
ENDBRANCH   5  11
ENDBRANCH   1   2
BRANCH   1  17
ATOM     17  C   UNL d   1     -55.779-102.194 -41.720  0.00  0.00     0.098 C 
BRANCH  17  18
ATOM     18  C   UNL d   1     -56.282-102.508 -41.157  0.00  0.00     0.272 C 
ATOM     19  N   UNL d   1     -56.073-102.468 -40.359  0.00  0.00    -0.269 N 
ATOM     20  C   UNL d   1     -56.576-102.781 -39.799  0.00  0.00     0.102 A 
ATOM     21  C   UNL d   1     -55.361-102.112 -40.138  0.00  0.00     0.102 A 
ATOM     22  C   UNL d   1     -56.373-102.743 -39.012  0.00  0.00     0.100 A 
ATOM     23  N   UNL d   1     -55.664-102.390 -38.774  0.00  0.00    -0.301 N 
ATOM     24  C   UNL d   1     -55.160-102.075 -39.346  0.00  0.00     0.100 A 
ATOM     25  O   UNL d   1     -56.989-102.860 -41.381  0.00  0.00    -0.266 OA
BRANCH  23  26
ATOM     26  C   UNL d   1     -55.467-102.356 -37.980  0.00  0.00     0.064 A 
ATOM     27  C   UNL d   1     -55.805-102.880 -37.444  0.00  0.00     0.018 A 
ATOM     28  C   UNL d   1     -55.602-102.840 -36.644  0.00  0.00     0.002 A 
ATOM     29  C   UNL d   1     -55.065-102.279 -36.388  0.00  0.00     0.000 A 
ATOM     30  C   UNL d   1     -54.718-101.744 -36.928  0.00  0.00     0.002 A 
ATOM     31  C   UNL d   1     -54.924-101.788 -37.722  0.00  0.00     0.018 A 
ENDBRANCH  23  26
ENDBRANCH  17  18
ENDBRANCH   1  17
TORSDOF 5
ENDMDL
