MODEL 1
REMARK VINA RESULT:      -2.7      0.000      0.000
REMARK  6 active torsions:
REMARK  status: ('A' for Active; 'I' for Inactive)
REMARK    1  A    between atoms: N_14  and  C_6 
REMARK    2  A    between atoms: C_20  and  N_14 
REMARK    3  A    between atoms: O_19  and  C_22 
REMARK    4  A    between atoms: C_23  and  O_19 
REMARK    5  A    between atoms: C_22  and  C_20 
REMARK    6  A    between atoms: C_21  and  C_23 
ROOT
ATOM      1  N   UNL d   1     -41.536-122.896 -52.012  0.00  0.00    -0.193 N 
ATOM      2  C   UNL d   1     -41.580-122.253 -52.536  0.00  0.00     0.168 A 
ATOM      3  C   UNL d   1     -41.757-122.371 -53.326  0.00  0.00     0.073 A 
ATOM      4  C   UNL d   1     -41.889-123.133 -53.590  0.00  0.00     0.185 A 
ATOM      5  N   UNL d   1     -41.844-123.776 -53.066  0.00  0.00    -0.143 NA
ATOM      6  C   UNL d   1     -41.359-122.759 -51.227  0.00  0.00     0.167 A 
ATOM      7  N   UNL d   1     -41.446-121.492 -52.259  0.00  0.00    -0.227 NA
ATOM      8  C   UNL d   1     -41.801-121.735 -53.844  0.00  0.00     0.007 A 
ATOM      9  N   UNL d   1     -42.068-123.269 -54.387  0.00  0.00    -0.225 NA
ATOM     10  C   UNL d   1     -41.225-122.007 -50.948  0.00  0.00     0.058 A 
ATOM     11  C   UNL d   1     -41.977-121.852 -54.634  0.00  0.00     0.019 A 
ATOM     12  C   UNL d   1     -41.269-121.365 -51.472  0.00  0.00     0.086 A 
ATOM     13  C   UNL d   1     -42.113-122.626 -54.910  0.00  0.00     0.083 A 
ATOM     14  C   UNL d   1     -41.666-120.970 -53.565  0.00  0.00     0.000 C 
ATOM     15  C   UNL d   1     -41.129-120.574 -51.181  0.00  0.00     0.021 C 
ATOM     16  C   UNL d   1     -42.289-122.750 -55.696  0.00  0.00     0.021 C 
ENDROOT
BRANCH   6  17
ATOM     17  N   UNL d   1     -41.315-123.427 -50.693  0.00  0.00    -0.223 NA
BRANCH  17  18
ATOM     18  C   UNL d   1     -41.137-123.810 -49.962  0.00  0.00     0.127 C 
BRANCH  18  19
ATOM     19  C   UNL d   1     -41.713-123.809 -49.332  0.00  0.00     0.143 C 
BRANCH  19  20
ATOM     20  O   UNL d   1     -41.465-123.771 -48.521  0.00  0.00    -0.298 OA
BRANCH  20  21
ATOM     21  C   UNL d   1     -42.039-123.817 -47.891  0.00  0.00     0.168 C 
BRANCH  21  22
ATOM     22  C   UNL d   1     -41.803-123.646 -47.089  0.00  0.00     0.261 C 
ATOM     23  O   UNL d   1     -41.983-122.881 -46.749  0.00  0.00    -0.281 OA
ENDBRANCH  21  22
ENDBRANCH  20  21
ENDBRANCH  19  20
ENDBRANCH  18  19
ENDBRANCH  17  18
ENDBRANCH   6  17
TORSDOF 6
ENDMDL
MODEL 2
REMARK VINA RESULT:      -0.5      2.370      4.851
REMARK  6 active torsions:
REMARK  status: ('A' for Active; 'I' for Inactive)
REMARK    1  A    between atoms: N_14  and  C_6 
REMARK    2  A    between atoms: C_20  and  N_14 
REMARK    3  A    between atoms: O_19  and  C_22 
REMARK    4  A    between atoms: C_23  and  O_19 
REMARK    5  A    between atoms: C_22  and  C_20 
REMARK    6  A    between atoms: C_21  and  C_23 
ROOT
ATOM      1  N   UNL d   1     -41.556-122.624 -51.473  0.00  0.00    -0.193 N 
ATOM      2  C   UNL d   1     -41.702-122.211 -50.769  0.00  0.00     0.168 A 
ATOM      3  C   UNL d   1     -41.987-122.600 -50.108  0.00  0.00     0.073 A 
ATOM      4  C   UNL d   1     -42.126-123.404 -50.156  0.00  0.00     0.185 A 
ATOM      5  N   UNL d   1     -41.981-123.817 -50.861  0.00  0.00    -0.143 NA
ATOM      6  C   UNL d   1     -41.271-122.218 -52.122  0.00  0.00     0.167 A 
ATOM      7  N   UNL d   1     -41.558-121.402 -50.733  0.00  0.00    -0.227 NA
ATOM      8  C   UNL d   1     -42.132-122.191 -49.411  0.00  0.00     0.007 A 
ATOM      9  N   UNL d   1     -42.416-123.812 -49.496  0.00  0.00    -0.225 NA
ATOM     10  C   UNL d   1     -41.127-121.419 -52.092  0.00  0.00     0.058 A 
ATOM     11  C   UNL d   1     -42.417-122.579 -48.751  0.00  0.00     0.019 A 
ATOM     12  C   UNL d   1     -41.273-121.005 -51.387  0.00  0.00     0.086 A 
ATOM     13  C   UNL d   1     -42.561-123.399 -48.791  0.00  0.00     0.083 A 
ATOM     14  C   UNL d   1     -41.987-121.379 -49.376  0.00  0.00     0.000 C 
ATOM     15  C   UNL d   1     -41.123-120.165 -51.353  0.00  0.00     0.021 C 
ATOM     16  C   UNL d   1     -42.846-123.792 -48.138  0.00  0.00     0.021 C 
ENDROOT
BRANCH   6  17
ATOM     17  N   UNL d   1     -41.123-122.652 -52.845  0.00  0.00    -0.223 NA
BRANCH  17  18
ATOM     18  C   UNL d   1     -41.302-123.218 -53.446  0.00  0.00     0.127 C 
BRANCH  18  19
ATOM     19  C   UNL d   1     -41.128-123.038 -54.262  0.00  0.00     0.143 C 
BRANCH  19  20
ATOM     20  O   UNL d   1     -41.755-122.975 -54.832  0.00  0.00    -0.298 OA
BRANCH  20  21
ATOM     21  C   UNL d   1     -41.703-122.413 -55.472  0.00  0.00     0.168 C 
BRANCH  21  22
ATOM     22  C   UNL d   1     -42.413-122.146 -55.863  0.00  0.00     0.261 C 
ATOM     23  O   UNL d   1     -42.544-121.308 -55.978  0.00  0.00    -0.281 OA
ENDBRANCH  21  22
ENDBRANCH  20  21
ENDBRANCH  19  20
ENDBRANCH  18  19
ENDBRANCH  17  18
ENDBRANCH   6  17
TORSDOF 6
ENDMDL
