MODEL 1
REMARK VINA RESULT:      -3.1      0.000      0.000
REMARK  1 active torsions:
REMARK  status: ('A' for Active; 'I' for Inactive)
REMARK    1  A    between atoms: C_2  and  N_1 
ROOT
ATOM      1  C   UNL d   1      56.282   0.177  32.636  0.00  0.00     0.129 A 
ATOM      2  C   UNL d   1      56.800   0.345  33.256  0.00  0.00     0.043 A 
ATOM      3  C   UNL d   1      56.502   0.491  34.015  0.00  0.00     0.123 A 
ATOM      4  C   UNL d   1      55.688   0.467  34.147  0.00  0.00     0.224 A 
ATOM      5  C   UNL d   1      55.476   0.155  32.772  0.00  0.00     0.038 A 
ATOM      6  C   UNL d   1      55.177   0.301  33.531  0.00  0.00     0.100 A 
ATOM      7  N   UNL d   1      57.016   0.658  34.633  0.00  0.00    -0.241 NA
ATOM      8  O   UNL d   1      55.392   0.611  34.900  0.00  0.00    -0.284 OA
ATOM      9 CL   UNL d   1      54.368   0.278  33.665  0.00  0.00    -0.079 Cl
ATOM     10  C   UNL d   1      57.610   0.368  33.121  0.00  0.00     0.005 A 
ATOM     11  C   UNL d   1      57.834   0.682  34.502  0.00  0.00     0.099 A 
ATOM     12  C   UNL d   1      58.132   0.536  33.742  0.00  0.00     0.021 A 
ENDROOT
BRANCH   1  13
ATOM     13  N   UNL d   1      56.577   0.033  31.884  0.00  0.00    -0.114 N 
ATOM     14  O   UNL d   1      56.758   0.660  31.382  0.00  0.00    -0.532 OA
ATOM     15  O   UNL d   1      56.694  -0.739  31.629  0.00  0.00    -0.532 OA
ENDBRANCH   1  13
TORSDOF 1
ENDMDL
MODEL 2
REMARK VINA RESULT:      -3.0      1.284      2.086
REMARK  1 active torsions:
REMARK  status: ('A' for Active; 'I' for Inactive)
REMARK    1  A    between atoms: C_2  and  N_1 
ROOT
ATOM      1  C   UNL d   1      56.834   0.215  32.624  0.00  0.00     0.129 A 
ATOM      2  C   UNL d   1      56.198   0.214  33.151  0.00  0.00     0.043 A 
ATOM      3  C   UNL d   1      56.328   0.370  33.955  0.00  0.00     0.123 A 
ATOM      4  C   UNL d   1      57.092   0.526  34.224  0.00  0.00     0.224 A 
ATOM      5  C   UNL d   1      57.589   0.370  32.896  0.00  0.00     0.038 A 
ATOM      6  C   UNL d   1      57.719   0.526  33.699  0.00  0.00     0.100 A 
ATOM      7  N   UNL d   1      55.697   0.370  34.480  0.00  0.00    -0.241 NA
ATOM      8  O   UNL d   1      57.221   0.681  35.020  0.00  0.00    -0.284 OA
ATOM      9 CL   UNL d   1      58.479   0.681  33.969  0.00  0.00    -0.079 Cl
ATOM     10  C   UNL d   1      55.439   0.059  32.880  0.00  0.00     0.005 A 
ATOM     11  C   UNL d   1      54.929   0.214  34.211  0.00  0.00     0.099 A 
ATOM     12  C   UNL d   1      54.799   0.058  33.408  0.00  0.00     0.021 A 
ENDROOT
BRANCH   1  13
ATOM     13  N   UNL d   1      56.705   0.061  31.829  0.00  0.00    -0.114 N 
ATOM     14  O   UNL d   1      56.729  -0.712  31.547  0.00  0.00    -0.532 OA
ATOM     15  O   UNL d   1      56.551   0.679  31.310  0.00  0.00    -0.532 OA
ENDBRANCH   1  13
TORSDOF 1
ENDMDL
MODEL 3
REMARK VINA RESULT:      -2.9      1.595      2.267
REMARK  1 active torsions:
REMARK  status: ('A' for Active; 'I' for Inactive)
REMARK    1  A    between atoms: C_2  and  N_1 
ROOT
ATOM      1  C   UNL d   1      56.225  -0.403  32.729  0.00  0.00     0.129 A 
ATOM      2  C   UNL d   1      56.717  -0.042  33.285  0.00  0.00     0.043 A 
ATOM      3  C   UNL d   1      57.420   0.322  33.039  0.00  0.00     0.123 A 
ATOM      4  C   UNL d   1      57.624   0.322  32.239  0.00  0.00     0.224 A 
ATOM      5  C   UNL d   1      56.431  -0.400  31.938  0.00  0.00     0.038 A 
ATOM      6  C   UNL d   1      57.134  -0.036  31.692  0.00  0.00     0.100 A 
ATOM      7  N   UNL d   1      57.911   0.681  33.590  0.00  0.00    -0.241 NA
ATOM      8  O   UNL d   1      58.320   0.682  31.995  0.00  0.00    -0.284 OA
ATOM      9 CL   UNL d   1      57.338  -0.035  30.897  0.00  0.00    -0.079 Cl
ATOM     10  C   UNL d   1      56.512  -0.044  34.080  0.00  0.00     0.005 A 
ATOM     11  C   UNL d   1      57.708   0.682  34.393  0.00  0.00     0.099 A 
ATOM     12  C   UNL d   1      57.005   0.318  34.639  0.00  0.00     0.021 A 
ENDROOT
BRANCH   1  13
ATOM     13  N   UNL d   1      55.529  -0.763  32.973  0.00  0.00    -0.114 N 
ATOM     14  O   UNL d   1      55.493  -1.581  33.057  0.00  0.00    -0.532 OA
ATOM     15  O   UNL d   1      54.865  -0.307  33.134  0.00  0.00    -0.532 OA
ENDBRANCH   1  13
TORSDOF 1
ENDMDL
MODEL 4
REMARK VINA RESULT:      -2.8      3.983      4.848
REMARK  1 active torsions:
REMARK  status: ('A' for Active; 'I' for Inactive)
REMARK    1  A    between atoms: C_2  and  N_1 
ROOT
ATOM      1  C   UNL d   1      59.119  -0.115  29.564  0.00  0.00     0.129 A 
ATOM      2  C   UNL d   1      59.045  -0.919  29.392  0.00  0.00     0.043 A 
ATOM      3  C   UNL d   1      58.463  -1.371  29.772  0.00  0.00     0.123 A 
ATOM      4  C   UNL d   1      57.960  -1.014  30.320  0.00  0.00     0.224 A 
ATOM      5  C   UNL d   1      58.618   0.234  30.108  0.00  0.00     0.038 A 
ATOM      6  C   UNL d   1      58.036  -0.218  30.488  0.00  0.00     0.100 A 
ATOM      7  N   UNL d   1      58.388  -2.170  29.602  0.00  0.00    -0.241 NA
ATOM      8  O   UNL d   1      57.383  -1.461  30.696  0.00  0.00    -0.284 OA
ATOM      9 CL   UNL d   1      57.535   0.135  31.034  0.00  0.00    -0.079 Cl
ATOM     10  C   UNL d   1      59.547  -1.272  28.846  0.00  0.00     0.005 A 
ATOM     11  C   UNL d   1      58.892  -2.530  29.052  0.00  0.00     0.099 A 
ATOM     12  C   UNL d   1      59.475  -2.079  28.672  0.00  0.00     0.021 A 
ENDROOT
BRANCH   1  13
ATOM     13  N   UNL d   1      59.695   0.331  29.189  0.00  0.00    -0.114 N 
ATOM     14  O   UNL d   1      59.544   0.672  28.455  0.00  0.00    -0.532 OA
ATOM     15  O   UNL d   1      60.428   0.440  29.544  0.00  0.00    -0.532 OA
ENDBRANCH   1  13
TORSDOF 1
ENDMDL
MODEL 5
REMARK VINA RESULT:      -2.8      4.837      5.606
REMARK  1 active torsions:
REMARK  status: ('A' for Active; 'I' for Inactive)
REMARK    1  A    between atoms: C_2  and  N_1 
ROOT
ATOM      1  C   UNL d   1      58.763  -0.817  29.334  0.00  0.00     0.129 A 
ATOM      2  C   UNL d   1      59.552  -0.572  29.339  0.00  0.00     0.043 A 
ATOM      3  C   UNL d   1      60.155  -1.124  29.202  0.00  0.00     0.123 A 
ATOM      4  C   UNL d   1      59.965  -1.914  29.060  0.00  0.00     0.224 A 
ATOM      5  C   UNL d   1      58.579  -1.601  29.194  0.00  0.00     0.038 A 
ATOM      6  C   UNL d   1      59.183  -2.152  29.056  0.00  0.00     0.100 A 
ATOM      7  N   UNL d   1      60.940  -0.882  29.207  0.00  0.00    -0.241 NA
ATOM      8  O   UNL d   1      60.563  -2.460  28.924  0.00  0.00    -0.284 OA
ATOM      9 CL   UNL d   1      58.996  -2.939  28.915  0.00  0.00    -0.079 Cl
ATOM     10  C   UNL d   1      59.738   0.215  29.480  0.00  0.00     0.005 A 
ATOM     11  C   UNL d   1      61.133  -0.089  29.348  0.00  0.00     0.099 A 
ATOM     12  C   UNL d   1      60.529   0.462  29.486  0.00  0.00     0.021 A 
ENDROOT
BRANCH   1  13
ATOM     13  N   UNL d   1      58.166  -0.272  29.470  0.00  0.00    -0.114 N 
ATOM     14  O   UNL d   1      57.875   0.188  28.853  0.00  0.00    -0.532 OA
ATOM     15  O   UNL d   1      57.855  -0.182  30.225  0.00  0.00    -0.532 OA
ENDBRANCH   1  13
TORSDOF 1
ENDMDL
MODEL 6
REMARK VINA RESULT:      -2.7      1.393      2.502
REMARK  1 active torsions:
REMARK  status: ('A' for Active; 'I' for Inactive)
REMARK    1  A    between atoms: C_2  and  N_1 
ROOT
ATOM      1  C   UNL d   1      56.598  -0.201  33.468  0.00  0.00     0.129 A 
ATOM      2  C   UNL d   1      56.976  -0.080  32.744  0.00  0.00     0.043 A 
ATOM      3  C   UNL d   1      56.843  -0.603  32.116  0.00  0.00     0.123 A 
ATOM      4  C   UNL d   1      56.332  -1.244  32.217  0.00  0.00     0.224 A 
ATOM      5  C   UNL d   1      56.092  -0.837  33.563  0.00  0.00     0.038 A 
ATOM      6  C   UNL d   1      55.959  -1.361  32.934  0.00  0.00     0.100 A 
ATOM      7  N   UNL d   1      57.218  -0.484  31.396  0.00  0.00    -0.241 NA
ATOM      8  O   UNL d   1      56.200  -1.762  31.594  0.00  0.00    -0.284 OA
ATOM      9 CL   UNL d   1      55.451  -1.998  33.032  0.00  0.00    -0.079 Cl
ATOM     10  C   UNL d   1      57.484   0.558  32.647  0.00  0.00     0.005 A 
ATOM     11  C   UNL d   1      57.732   0.158  31.292  0.00  0.00     0.099 A 
ATOM     12  C   UNL d   1      57.865   0.682  31.921  0.00  0.00     0.021 A 
ENDROOT
BRANCH   1  13
ATOM     13  N   UNL d   1      56.730   0.317  34.090  0.00  0.00    -0.114 N 
ATOM     14  O   UNL d   1      57.497   0.475  34.342  0.00  0.00    -0.532 OA
ATOM     15  O   UNL d   1      56.095   0.681  34.463  0.00  0.00    -0.532 OA
ENDBRANCH   1  13
TORSDOF 1
ENDMDL
MODEL 7
REMARK VINA RESULT:      -2.6      4.810      5.840
REMARK  1 active torsions:
REMARK  status: ('A' for Active; 'I' for Inactive)
REMARK    1  A    between atoms: C_2  and  N_1 
ROOT
ATOM      1  C   UNL d   1      59.006  -0.187  29.472  0.00  0.00     0.129 A 
ATOM      2  C   UNL d   1      59.112  -0.981  29.273  0.00  0.00     0.043 A 
ATOM      3  C   UNL d   1      59.826  -1.229  28.932  0.00  0.00     0.123 A 
ATOM      4  C   UNL d   1      60.427  -0.681  28.794  0.00  0.00     0.224 A 
ATOM      5  C   UNL d   1      59.605   0.353  29.333  0.00  0.00     0.038 A 
ATOM      6  C   UNL d   1      60.318   0.105  28.992  0.00  0.00     0.100 A 
ATOM      7  N   UNL d   1      59.933  -2.018  28.733  0.00  0.00    -0.241 NA
ATOM      8  O   UNL d   1      61.133  -0.927  28.456  0.00  0.00    -0.284 OA
ATOM      9 CL   UNL d   1      60.917   0.648  28.854  0.00  0.00    -0.079 Cl
ATOM     10  C   UNL d   1      58.512  -1.524  29.412  0.00  0.00     0.005 A 
ATOM     11  C   UNL d   1      59.331  -2.570  28.871  0.00  0.00     0.099 A 
ATOM     12  C   UNL d   1      58.617  -2.322  29.212  0.00  0.00     0.021 A 
ENDROOT
BRANCH   1  13
ATOM     13  N   UNL d   1      58.300   0.059  29.809  0.00  0.00    -0.114 N 
ATOM     14  O   UNL d   1      58.195   0.023  30.625  0.00  0.00    -0.532 OA
ATOM     15  O   UNL d   1      57.693   0.341  29.333  0.00  0.00    -0.532 OA
ENDBRANCH   1  13
TORSDOF 1
ENDMDL
MODEL 8
REMARK VINA RESULT:      -2.6      1.652      2.367
REMARK  1 active torsions:
REMARK  status: ('A' for Active; 'I' for Inactive)
REMARK    1  A    between atoms: C_2  and  N_1 
ROOT
ATOM      1  C   UNL d   1      56.139   0.093  33.337  0.00  0.00     0.129 A 
ATOM      2  C   UNL d   1      56.628   0.093  32.672  0.00  0.00     0.043 A 
ATOM      3  C   UNL d   1      57.429   0.290  32.748  0.00  0.00     0.123 A 
ATOM      4  C   UNL d   1      57.735   0.486  33.489  0.00  0.00     0.224 A 
ATOM      5  C   UNL d   1      56.447   0.287  34.070  0.00  0.00     0.038 A 
ATOM      6  C   UNL d   1      57.248   0.485  34.146  0.00  0.00     0.100 A 
ATOM      7  N   UNL d   1      57.916   0.291  32.087  0.00  0.00    -0.241 NA
ATOM      8  O   UNL d   1      58.528   0.682  33.565  0.00  0.00    -0.284 OA
ATOM      9 CL   UNL d   1      57.554   0.680  34.882  0.00  0.00    -0.079 Cl
ATOM     10  C   UNL d   1      56.321  -0.102  31.935  0.00  0.00     0.005 A 
ATOM     11  C   UNL d   1      57.611   0.095  31.342  0.00  0.00     0.099 A 
ATOM     12  C   UNL d   1      56.810  -0.103  31.266  0.00  0.00     0.021 A 
ENDROOT
BRANCH   1  13
ATOM     13  N   UNL d   1      55.347  -0.103  33.262  0.00  0.00    -0.114 N 
ATOM     14  O   UNL d   1      54.778   0.489  33.193  0.00  0.00    -0.532 OA
ATOM     15  O   UNL d   1      55.116  -0.891  33.254  0.00  0.00    -0.532 OA
ENDBRANCH   1  13
TORSDOF 1
ENDMDL
MODEL 9
REMARK VINA RESULT:      -2.3     10.016     10.493
REMARK  1 active torsions:
REMARK  status: ('A' for Active; 'I' for Inactive)
REMARK    1  A    between atoms: C_2  and  N_1 
ROOT
ATOM      1  C   UNL d   1      59.054  -9.345  33.572  0.00  0.00     0.129 A 
ATOM      2  C   UNL d   1      59.714  -9.464  33.090  0.00  0.00     0.043 A 
ATOM      3  C   UNL d   1      59.611  -9.623  32.283  0.00  0.00     0.123 A 
ATOM      4  C   UNL d   1      58.851  -9.661  31.966  0.00  0.00     0.224 A 
ATOM      5  C   UNL d   1      58.302  -9.383  33.253  0.00  0.00     0.038 A 
ATOM      6  C   UNL d   1      58.200  -9.542  32.446  0.00  0.00     0.100 A 
ATOM      7  N   UNL d   1      60.266  -9.741  31.802  0.00  0.00    -0.241 NA
ATOM      8  O   UNL d   1      58.749  -9.818  31.166  0.00  0.00    -0.284 OA
ATOM      9 CL   UNL d   1      57.444  -9.581  32.128  0.00  0.00    -0.079 Cl
ATOM     10  C   UNL d   1      60.470  -9.425  33.409  0.00  0.00     0.005 A 
ATOM     11  C   UNL d   1      61.031  -9.703  32.119  0.00  0.00     0.099 A 
ATOM     12  C   UNL d   1      61.133  -9.545  32.926  0.00  0.00     0.021 A 
ENDROOT
BRANCH   1  13
ATOM     13  N   UNL d   1      59.156  -9.188  34.371  0.00  0.00    -0.114 N 
ATOM     14  O   UNL d   1      59.180  -9.805  34.915  0.00  0.00    -0.532 OA
ATOM     15  O   UNL d   1      59.233  -8.412  34.630  0.00  0.00    -0.532 OA
ENDBRANCH   1  13
TORSDOF 1
ENDMDL
