MODEL 1
REMARK VINA RESULT:      54.6      0.000      0.000
REMARK  3 active torsions:
REMARK  status: ('A' for Active; 'I' for Inactive)
REMARK    1  A    between atoms: C_15  and  C_4 
REMARK    2  A    between atoms: C_8  and  S_16 
REMARK    3  A    between atoms: S_16  and  C_15 
ROOT
ATOM      1  N   UNL d   1     -51.131  24.486  33.310  0.00  0.00    -0.133 N 
ATOM      2  C   UNL d   1     -51.800  24.959  33.310  0.00  0.00     0.736 A 
ATOM      3  C   UNL d   1     -50.470  24.978  33.311  0.00  0.00     0.135 A 
ATOM      4  C   UNL d   1     -50.730  25.760  33.313  0.00  0.00     0.129 A 
ATOM      5  N   UNL d   1     -51.557  25.746  33.312  0.00  0.00    -0.058 NA
ATOM      6  C   UNL d   1     -51.202  23.673  33.308  0.00  0.00     0.084 A 
ATOM      7  N   UNL d   1     -52.547  24.624  33.309  0.00  0.00    -0.060 NA
ATOM      8  C   UNL d   1     -51.954  23.321  33.306  0.00  0.00     0.038 A 
ATOM      9  C   UNL d   1     -52.623  23.795  33.307  0.00  0.00     0.101 A 
ATOM     10 BR   UNL d   1     -49.656  24.737  33.311  0.00  0.00    -0.028 Br
ATOM     11  C   UNL d   1     -50.519  23.190  33.307  0.00  0.00     0.020 C 
ATOM     12  C   UNL d   1     -53.373  23.411  33.306  0.00  0.00     0.021 C 
ENDROOT
BRANCH   4  13
ATOM     13  C   UNL d   1     -50.242  26.423  33.315  0.00  0.00     0.059 C 
BRANCH  13  14
ATOM     14  S   UNL d   1     -50.429  27.108  33.734  0.00  0.00    -0.059 SA
BRANCH  14  15
ATOM     15  C   UNL d   1     -49.849  27.543  34.118  0.00  0.00     0.141 A 
ATOM     16  N   UNL d   1     -49.475  27.468  34.855  0.00  0.00    -0.232 NA
ATOM     17  C   UNL d   1     -48.946  28.061  34.937  0.00  0.00     0.088 A 
ATOM     18  C   UNL d   1     -48.439  28.232  35.561  0.00  0.00     0.020 A 
ATOM     19  C   UNL d   1     -48.953  28.527  34.287  0.00  0.00     0.049 A 
ATOM     20  C   UNL d   1     -47.934  28.889  35.516  0.00  0.00     0.002 A 
ATOM     21  C   UNL d   1     -47.937  29.361  34.863  0.00  0.00     0.001 A 
ATOM     22  C   UNL d   1     -48.447  29.186  34.238  0.00  0.00     0.008 A 
ATOM     23  S   UNL d   1     -49.523  28.204  33.763  0.00  0.00    -0.060 SA
ENDBRANCH  14  15
ENDBRANCH  13  14
ENDBRANCH   4  13
TORSDOF 3
ENDMDL
