MODEL 1
REMARK VINA RESULT:      87.5      0.000      0.000
REMARK  4 active torsions:
REMARK  status: ('A' for Active; 'I' for Inactive)
REMARK    1  A    between atoms: C_8  and  C_1 
REMARK    2  A    between atoms: C_12  and  C_3 
REMARK    3  A    between atoms: N_10  and  C_8 
REMARK    4  A    between atoms: C_25  and  C_13 
ROOT
ATOM      1  C   UNL d   1     -51.568  24.739  33.473  0.00  0.00     0.079 A 
ATOM      2  C   UNL d   1     -50.353  25.486  33.536  0.00  0.00     0.062 A 
ATOM      3  C   UNL d   1     -50.396  26.903  33.682  0.00  0.00     0.064 A 
ATOM      4  C   UNL d   1     -51.178  25.460  33.543  0.00  0.00     0.108 A 
ATOM      5  C   UNL d   1     -49.962  26.208  33.606  0.00  0.00     0.199 A 
ATOM      6  O   UNL d   1     -51.611  26.156  33.619  0.00  0.00    -0.305 OA
ATOM      7  C   UNL d   1     -51.221  26.877  33.689  0.00  0.00     0.126 A 
ATOM      8  C   UNL d   1     -51.134  24.039  33.397  0.00  0.00     0.199 A 
ATOM      9  C   UNL d   1     -49.919  24.791  33.460  0.00  0.00     0.008 A 
ATOM     10  C   UNL d   1     -50.310  24.065  33.390  0.00  0.00     0.039 A 
ATOM     11  O   UNL d   1     -49.137  26.233  33.600  0.00  0.00    -0.286 OA
ATOM     12  O   UNL d   1     -51.517  23.323  33.327  0.00  0.00    -0.286 OA
ENDROOT
BRANCH   3  13
ATOM     13  C   UNL d   1     -50.005  27.624  33.752  0.00  0.00     0.007 A 
ATOM     14  C   UNL d   1     -49.358  27.703  34.273  0.00  0.00     0.027 A 
ATOM     15  C   UNL d   1     -48.967  28.425  34.343  0.00  0.00     0.123 A 
ATOM     16  O   UNL d   1     -48.329  28.497  34.859  0.00  0.00    -0.301 OA
ATOM     17  C   UNL d   1     -49.217  29.071  33.895  0.00  0.00     0.123 A 
ATOM     18  C   UNL d   1     -47.933  29.222  34.932  0.00  0.00     0.149 A 
ATOM     19  C   UNL d   1     -48.188  29.873  34.478  0.00  0.00     0.149 A 
ATOM     20  O   UNL d   1     -48.825  29.792  33.965  0.00  0.00    -0.301 OA
ATOM     21  C   UNL d   1     -49.860  28.994  33.376  0.00  0.00     0.027 A 
ATOM     22  C   UNL d   1     -50.251  28.273  33.306  0.00  0.00     0.002 A 
ENDBRANCH   3  13
BRANCH   1  23
ATOM     23  C   UNL d   1     -52.392  24.714  33.480  0.00  0.00     0.085 C 
BRANCH  23  24
ATOM     24  N   UNL d   1     -52.790  24.362  34.111  0.00  0.00    -0.304 N 
ATOM     25  C   UNL d   1     -53.130  23.616  34.025  0.00  0.00     0.064 A 
ATOM     26  C   UNL d   1     -53.072  23.220  33.306  0.00  0.00     0.019 C 
ATOM     27  C   UNL d   1     -53.523  23.273  34.656  0.00  0.00     0.018 A 
ATOM     28  C   UNL d   1     -53.582  23.673  35.384  0.00  0.00     0.003 A 
ATOM     29  C   UNL d   1     -53.242  24.415  35.465  0.00  0.00     0.019 A 
ATOM     30  C   UNL d   1     -52.845  24.766  34.834  0.00  0.00     0.080 A 
ENDBRANCH  23  24
ENDBRANCH   1  23
BRANCH  10  31
ATOM     31  C   UNL d   1     -49.875  23.361  33.313  0.00  0.00     0.003 C 
ATOM     32  C   UNL d   1     -49.261  23.198  33.839  0.00  0.00     0.000 C 
ENDBRANCH  10  31
TORSDOF 4
ENDMDL
