MODEL 1
REMARK VINA RESULT:      12.1      0.000      0.000
REMARK  4 active torsions:
REMARK  status: ('A' for Active; 'I' for Inactive)
REMARK    1  A    between atoms: C_12  and  C_2 
REMARK    2  A    between atoms: C_13  and  C_3 
REMARK    3  A    between atoms: N_8  and  C_6 
REMARK       I    between atoms: C_7  and  N_9 
REMARK    4  A    between atoms: N_9  and  N_8 
ROOT
ATOM      1  C   UNL d   1      46.289 -19.195  42.945  0.00  0.00     0.196 A 
ATOM      2  C   UNL d   1      46.407 -18.469  42.537  0.00  0.00     0.041 A 
ATOM      3  C   UNL d   1      46.145 -19.212  43.732  0.00  0.00     0.041 A 
ATOM      4  C   UNL d   1      46.374 -17.746  42.962  0.00  0.00     0.024 A 
ATOM      5  C   UNL d   1      46.111 -18.507  44.163  0.00  0.00     0.024 A 
ATOM      6  C   UNL d   1      46.223 -17.785  43.783  0.00  0.00     0.103 A 
ATOM      7  O   UNL d   1      46.316 -19.951  42.538  0.00  0.00    -0.287 OA
ENDROOT
BRANCH   6   8
ATOM      8  N   UNL d   1      46.189 -17.055  44.221  0.00  0.00    -0.144 NA
BRANCH   8   9
ATOM      9  N   UNL d   1      46.063 -16.316  43.854  0.00  0.00    -0.087 NA
ATOM     10  C   UNL d   1      45.609 -15.712  44.207  0.00  0.00     0.404 C 
ATOM     11  O   UNL d   1      45.266 -15.848  44.954  0.00  0.00    -0.239 OA
ATOM     12  N   UNL d   1      45.500 -14.983  43.817  0.00  0.00    -0.083 N 
ENDBRANCH   8   9
ENDBRANCH   6   8
BRANCH   3  13
ATOM     13  C   UNL d   1      46.034 -19.943  44.101  0.00  0.00     0.003 C 
ATOM     14  C   UNL d   1      46.645 -20.304  44.482  0.00  0.00     0.000 C 
ATOM     15  C   UNL d   1      45.291 -20.301  44.074  0.00  0.00     0.000 C 
ENDBRANCH   3  13
BRANCH   2  16
ATOM     16  C   UNL d   1      46.551 -18.465  41.743  0.00  0.00     0.003 C 
ATOM     17  C   UNL d   1      46.597 -17.755  41.359  0.00  0.00     0.000 C 
ATOM     18  C   UNL d   1      46.646 -19.148  41.343  0.00  0.00     0.000 C 
ENDBRANCH   2  16
TORSDOF 4
ENDMDL
