MODEL 1
REMARK VINA RESULT:      -6.5      0.000      0.000
REMARK  5 active torsions:
REMARK  status: ('A' for Active; 'I' for Inactive)
REMARK    1  A    between atoms: C_10  and  C_4 
REMARK       I    between atoms: C_6  and  N_8 
REMARK    2  A    between atoms: C_9  and  C_6 
REMARK    3  A    between atoms: N_8  and  C_13 
REMARK    4  A    between atoms: C_11  and  C_9 
REMARK    5  A    between atoms: C_13  and  C_10 
ROOT
ATOM      1  C   UNL d   1     -47.487  13.859  22.760  0.00  0.00     0.279 C 
ATOM      2  O   UNL d   1     -47.640  14.662  22.641  0.00  0.00    -0.265 OA
ATOM      3  N   UNL d   1     -46.716  13.596  22.827  0.00  0.00    -0.206 NA
ENDROOT
BRANCH   1   4
ATOM      4  C   UNL d   1     -48.116  13.329  22.809  0.00  0.00     0.062 C 
BRANCH   4   5
ATOM      5  C   UNL d   1     -48.855  13.521  22.480  0.00  0.00     0.005 A 
ATOM      6  C   UNL d   1     -49.412  13.869  22.955  0.00  0.00     0.001 A 
ATOM      7  C   UNL d   1     -50.147  14.062  22.634  0.00  0.00     0.011 A 
ATOM      8  C   UNL d   1     -50.315  13.907  21.845  0.00  0.00     0.058 A 
ATOM      9  C   UNL d   1     -49.746  13.553  21.365  0.00  0.00     0.011 A 
ATOM     10 CL   UNL d   1     -51.059  14.106  21.531  0.00  0.00    -0.082 Cl
ATOM     11  C   UNL d   1     -49.013  13.360  21.686  0.00  0.00     0.001 A 
ENDBRANCH   4   5
ENDBRANCH   1   4
BRANCH   3  12
ATOM     12  C   UNL d   1     -46.565  12.776  22.947  0.00  0.00     0.104 C 
BRANCH  12  13
ATOM     13  C   UNL d   1     -45.794  12.529  23.109  0.00  0.00     0.040 C 
BRANCH  13  14
ATOM     14  C   UNL d   1     -45.661  11.736  23.324  0.00  0.00     0.090 A 
ATOM     15  N   UNL d   1     -44.891  11.436  23.330  0.00  0.00    -0.238 NA
ATOM     16  C   UNL d   1     -44.928  10.646  23.561  0.00  0.00     0.111 A 
ATOM     17  S   UNL d   1     -45.710  10.457  23.698  0.00  0.00    -0.066 SA
ATOM     18  C   UNL d   1     -44.287  10.124  23.645  0.00  0.00     0.028 C 
ATOM     19  C   UNL d   1     -46.173  11.123  23.554  0.00  0.00     0.056 A 
ENDBRANCH  13  14
ENDBRANCH  12  13
ENDBRANCH   3  12
TORSDOF 5
ENDMDL
MODEL 2
REMARK VINA RESULT:      -6.3      2.835      4.882
REMARK  5 active torsions:
REMARK  status: ('A' for Active; 'I' for Inactive)
REMARK    1  A    between atoms: C_10  and  C_4 
REMARK       I    between atoms: C_6  and  N_8 
REMARK    2  A    between atoms: C_9  and  C_6 
REMARK    3  A    between atoms: N_8  and  C_13 
REMARK    4  A    between atoms: C_11  and  C_9 
REMARK    5  A    between atoms: C_13  and  C_10 
ROOT
ATOM      1  C   UNL d   1     -48.411  11.866  23.217  0.00  0.00     0.279 C 
ATOM      2  O   UNL d   1     -48.116  11.111  23.057  0.00  0.00    -0.265 OA
ATOM      3  N   UNL d   1     -49.201  12.033  23.087  0.00  0.00    -0.206 NA
ENDROOT
BRANCH   1   4
ATOM      4  C   UNL d   1     -47.903  12.447  23.508  0.00  0.00     0.062 C 
BRANCH   4   5
ATOM      5  C   UNL d   1     -47.170  12.586  23.141  0.00  0.00     0.005 A 
ATOM      6  C   UNL d   1     -46.538  12.123  23.349  0.00  0.00     0.001 A 
ATOM      7  C   UNL d   1     -45.808  12.257  22.989  0.00  0.00     0.011 A 
ATOM      8  C   UNL d   1     -45.719  12.848  22.427  0.00  0.00     0.058 A 
ATOM      9  C   UNL d   1     -46.364  13.317  22.217  0.00  0.00     0.011 A 
ATOM     10 CL   UNL d   1     -44.979  12.975  22.068  0.00  0.00    -0.082 Cl
ATOM     11  C   UNL d   1     -47.092  13.184  22.577  0.00  0.00     0.001 A 
ENDBRANCH   4   5
ENDBRANCH   1   4
BRANCH   3  12
ATOM     12  C   UNL d   1     -49.496  12.804  23.252  0.00  0.00     0.104 C 
BRANCH  12  13
ATOM     13  C   UNL d   1     -50.309  12.940  23.210  0.00  0.00     0.040 C 
BRANCH  13  14
ATOM     14  C   UNL d   1     -50.581  13.709  23.041  0.00  0.00     0.090 A 
ATOM     15  N   UNL d   1     -50.565  14.288  23.630  0.00  0.00    -0.238 NA
ATOM     16  C   UNL d   1     -50.865  14.985  23.308  0.00  0.00     0.111 A 
ATOM     17  S   UNL d   1     -51.064  14.841  22.529  0.00  0.00    -0.066 SA
ATOM     18  C   UNL d   1     -50.953  15.713  23.698  0.00  0.00     0.028 C 
ATOM     19  C   UNL d   1     -50.893  14.054  22.353  0.00  0.00     0.056 A 
ENDBRANCH  13  14
ENDBRANCH  12  13
ENDBRANCH   3  12
TORSDOF 5
ENDMDL
MODEL 3
REMARK VINA RESULT:      -6.2      8.411      9.596
REMARK  5 active torsions:
REMARK  status: ('A' for Active; 'I' for Inactive)
REMARK    1  A    between atoms: C_10  and  C_4 
REMARK       I    between atoms: C_6  and  N_8 
REMARK    2  A    between atoms: C_9  and  C_6 
REMARK    3  A    between atoms: N_8  and  C_13 
REMARK    4  A    between atoms: C_11  and  C_9 
REMARK    5  A    between atoms: C_13  and  C_10 
ROOT
ATOM      1  C   UNL d   1     -40.459  14.361  18.546  0.00  0.00     0.279 C 
ATOM      2  O   UNL d   1     -40.931  14.026  17.957  0.00  0.00    -0.265 OA
ATOM      3  N   UNL d   1     -40.743  14.427  19.310  0.00  0.00    -0.206 NA
ENDROOT
BRANCH   1   4
ATOM      4  C   UNL d   1     -39.702  14.627  18.356  0.00  0.00     0.062 C 
BRANCH   4   5
ATOM      5  C   UNL d   1     -39.340  14.394  17.645  0.00  0.00     0.005 A 
ATOM      6  C   UNL d   1     -39.370  14.897  17.011  0.00  0.00     0.001 A 
ATOM      7  C   UNL d   1     -39.013  14.671  16.303  0.00  0.00     0.011 A 
ATOM      8  C   UNL d   1     -38.632  13.947  16.237  0.00  0.00     0.058 A 
ATOM      9  C   UNL d   1     -38.603  13.437  16.884  0.00  0.00     0.011 A 
ATOM     10 CL   UNL d   1     -38.274  13.727  15.518  0.00  0.00    -0.082 Cl
ATOM     11  C   UNL d   1     -38.959  13.663  17.591  0.00  0.00     0.001 A 
ENDBRANCH   4   5
ENDBRANCH   1   4
BRANCH   3  12
ATOM     12  C   UNL d   1     -40.258  14.770  19.906  0.00  0.00     0.104 C 
BRANCH  12  13
ATOM     13  C   UNL d   1     -40.525  14.777  20.687  0.00  0.00     0.040 C 
BRANCH  13  14
ATOM     14  C   UNL d   1     -40.050  15.129  21.273  0.00  0.00     0.090 A 
ATOM     15  N   UNL d   1     -39.628  14.652  21.799  0.00  0.00    -0.238 NA
ATOM     16  C   UNL d   1     -39.212  15.147  22.312  0.00  0.00     0.111 A 
ATOM     17  S   UNL d   1     -39.375  15.920  22.107  0.00  0.00    -0.066 SA
ATOM     18  C   UNL d   1     -38.713  14.910  22.932  0.00  0.00     0.028 C 
ATOM     19  C   UNL d   1     -39.892  15.922  21.466  0.00  0.00     0.056 A 
ENDBRANCH  13  14
ENDBRANCH  12  13
ENDBRANCH   3  12
TORSDOF 5
ENDMDL
MODEL 4
REMARK VINA RESULT:      -5.7      1.482      1.746
REMARK  5 active torsions:
REMARK  status: ('A' for Active; 'I' for Inactive)
REMARK    1  A    between atoms: C_10  and  C_4 
REMARK       I    between atoms: C_6  and  N_8 
REMARK    2  A    between atoms: C_9  and  C_6 
REMARK    3  A    between atoms: N_8  and  C_13 
REMARK    4  A    between atoms: C_11  and  C_9 
REMARK    5  A    between atoms: C_13  and  C_10 
ROOT
ATOM      1  C   UNL d   1     -49.079  11.665  23.332  0.00  0.00     0.279 C 
ATOM      2  O   UNL d   1     -49.852  11.505  23.576  0.00  0.00    -0.265 OA
ATOM      3  N   UNL d   1     -48.450  11.293  23.698  0.00  0.00    -0.206 NA
ENDROOT
BRANCH   1   4
ATOM      4  C   UNL d   1     -48.950  12.200  22.718  0.00  0.00     0.062 C 
BRANCH   4   5
ATOM      5  C   UNL d   1     -49.471  12.837  22.600  0.00  0.00     0.005 A 
ATOM      6  C   UNL d   1     -50.064  12.756  22.053  0.00  0.00     0.001 A 
ATOM      7  C   UNL d   1     -50.584  13.385  21.931  0.00  0.00     0.011 A 
ATOM      8  C   UNL d   1     -50.505  14.084  22.355  0.00  0.00     0.058 A 
ATOM      9  C   UNL d   1     -49.901  14.162  22.909  0.00  0.00     0.011 A 
ATOM     10 CL   UNL d   1     -51.035  14.712  22.224  0.00  0.00    -0.082 Cl
ATOM     11  C   UNL d   1     -49.382  13.535  23.031  0.00  0.00     0.001 A 
ENDBRANCH   4   5
ENDBRANCH   1   4
BRANCH   3  12
ATOM     12  C   UNL d   1     -47.665  11.459  23.445  0.00  0.00     0.104 C 
BRANCH  12  13
ATOM     13  C   UNL d   1     -47.049  10.970  23.698  0.00  0.00     0.040 C 
BRANCH  13  14
ATOM     14  C   UNL d   1     -46.270  11.149  23.467  0.00  0.00     0.090 A 
ATOM     15  N   UNL d   1     -45.651  10.651  23.692  0.00  0.00    -0.238 NA
ATOM     16  C   UNL d   1     -44.950  10.963  23.388  0.00  0.00     0.111 A 
ATOM     17  S   UNL d   1     -45.133  11.646  22.979  0.00  0.00    -0.066 SA
ATOM     18  C   UNL d   1     -44.188  10.646  23.476  0.00  0.00     0.028 C 
ATOM     19  C   UNL d   1     -45.946  11.771  23.021  0.00  0.00     0.056 A 
ENDBRANCH  13  14
ENDBRANCH  12  13
ENDBRANCH   3  12
TORSDOF 5
ENDMDL
MODEL 5
REMARK VINA RESULT:      -5.7      1.633      2.013
REMARK  5 active torsions:
REMARK  status: ('A' for Active; 'I' for Inactive)
REMARK    1  A    between atoms: C_10  and  C_4 
REMARK       I    between atoms: C_6  and  N_8 
REMARK    2  A    between atoms: C_9  and  C_6 
REMARK    3  A    between atoms: N_8  and  C_13 
REMARK    4  A    between atoms: C_11  and  C_9 
REMARK    5  A    between atoms: C_13  and  C_10 
ROOT
ATOM      1  C   UNL d   1     -48.396  14.284  22.820  0.00  0.00     0.279 C 
ATOM      2  O   UNL d   1     -48.958  14.810  23.120  0.00  0.00    -0.265 OA
ATOM      3  N   UNL d   1     -47.599  14.438  22.919  0.00  0.00    -0.206 NA
ENDROOT
BRANCH   1   4
ATOM      4  C   UNL d   1     -48.646  13.606  22.423  0.00  0.00     0.062 C 
BRANCH   4   5
ATOM      5  C   UNL d   1     -49.261  13.140  22.734  0.00  0.00     0.005 A 
ATOM      6  C   UNL d   1     -49.068  12.501  23.194  0.00  0.00     0.001 A 
ATOM      7  C   UNL d   1     -49.673  12.035  23.505  0.00  0.00     0.011 A 
ATOM      8  C   UNL d   1     -50.460  12.212  23.352  0.00  0.00     0.058 A 
ATOM      9  C   UNL d   1     -50.653  12.862  22.884  0.00  0.00     0.011 A 
ATOM     10 CL   UNL d   1     -51.064  11.735  23.671  0.00  0.00    -0.082 Cl
ATOM     11  C   UNL d   1     -50.048  13.327  22.574  0.00  0.00     0.001 A 
ENDBRANCH   4   5
ENDBRANCH   1   4
BRANCH   3  12
ATOM     12  C   UNL d   1     -47.031  13.899  22.611  0.00  0.00     0.104 C 
BRANCH  12  13
ATOM     13  C   UNL d   1     -46.239  13.983  22.828  0.00  0.00     0.040 C 
BRANCH  13  14
ATOM     14  C   UNL d   1     -45.687  13.412  22.576  0.00  0.00     0.090 A 
ATOM     15  N   UNL d   1     -45.040  13.643  22.118  0.00  0.00    -0.238 NA
ATOM     16  C   UNL d   1     -44.594  12.970  21.951  0.00  0.00     0.111 A 
ATOM     17  S   UNL d   1     -44.960  12.329  22.301  0.00  0.00    -0.066 SA
ATOM     18  C   UNL d   1     -43.893  12.937  21.507  0.00  0.00     0.028 C 
ATOM     19  C   UNL d   1     -45.638  12.591  22.690  0.00  0.00     0.056 A 
ENDBRANCH  13  14
ENDBRANCH  12  13
ENDBRANCH   3  12
TORSDOF 5
ENDMDL
MODEL 6
REMARK VINA RESULT:      -5.5      8.667      9.802
REMARK  5 active torsions:
REMARK  status: ('A' for Active; 'I' for Inactive)
REMARK    1  A    between atoms: C_10  and  C_4 
REMARK       I    between atoms: C_6  and  N_8 
REMARK    2  A    between atoms: C_9  and  C_6 
REMARK    3  A    between atoms: N_8  and  C_13 
REMARK    4  A    between atoms: C_11  and  C_9 
REMARK    5  A    between atoms: C_13  and  C_10 
ROOT
ATOM      1  C   UNL d   1     -40.374  14.534  19.651  0.00  0.00     0.279 C 
ATOM      2  O   UNL d   1     -40.933  14.303  20.213  0.00  0.00    -0.265 OA
ATOM      3  N   UNL d   1     -40.474  14.328  18.866  0.00  0.00    -0.206 NA
ENDROOT
BRANCH   1   4
ATOM      4  C   UNL d   1     -39.717  14.973  19.888  0.00  0.00     0.062 C 
BRANCH   4   5
ATOM      5  C   UNL d   1     -39.557  15.088  20.695  0.00  0.00     0.005 A 
ATOM      6  C   UNL d   1     -39.746  15.802  21.029  0.00  0.00     0.001 A 
ATOM      7  C   UNL d   1     -39.590  15.922  21.830  0.00  0.00     0.011 A 
ATOM      8  C   UNL d   1     -39.249  15.330  22.286  0.00  0.00     0.058 A 
ATOM      9  C   UNL d   1     -39.059  14.605  21.943  0.00  0.00     0.011 A 
ATOM     10 CL   UNL d   1     -39.096  15.461  23.093  0.00  0.00    -0.082 Cl
ATOM     11  C   UNL d   1     -39.214  14.486  21.143  0.00  0.00     0.001 A 
ENDBRANCH   4   5
ENDBRANCH   1   4
BRANCH   3  12
ATOM     12  C   UNL d   1     -39.902  14.566  18.297  0.00  0.00     0.104 C 
BRANCH  12  13
ATOM     13  C   UNL d   1     -40.024  14.379  17.502  0.00  0.00     0.040 C 
BRANCH  13  14
ATOM     14  C   UNL d   1     -39.410  14.513  16.956  0.00  0.00     0.090 A 
ATOM     15  N   UNL d   1     -39.034  13.872  16.596  0.00  0.00    -0.238 NA
ATOM     16  C   UNL d   1     -38.456  14.169  16.088  0.00  0.00     0.111 A 
ATOM     17  S   UNL d   1     -38.472  14.984  16.133  0.00  0.00    -0.066 SA
ATOM     18  C   UNL d   1     -37.941  13.726  15.610  0.00  0.00     0.028 C 
ATOM     19  C   UNL d   1     -39.058  15.209  16.667  0.00  0.00     0.056 A 
ENDBRANCH  13  14
ENDBRANCH  12  13
ENDBRANCH   3  12
TORSDOF 5
ENDMDL
MODEL 7
REMARK VINA RESULT:      -5.2      8.715      9.326
REMARK  5 active torsions:
REMARK  status: ('A' for Active; 'I' for Inactive)
REMARK    1  A    between atoms: C_10  and  C_4 
REMARK       I    between atoms: C_6  and  N_8 
REMARK    2  A    between atoms: C_9  and  C_6 
REMARK    3  A    between atoms: N_8  and  C_13 
REMARK    4  A    between atoms: C_11  and  C_9 
REMARK    5  A    between atoms: C_13  and  C_10 
ROOT
ATOM      1  C   UNL d   1     -38.868  14.039  18.512  0.00  0.00     0.279 C 
ATOM      2  O   UNL d   1     -38.855  13.726  17.748  0.00  0.00    -0.265 OA
ATOM      3  N   UNL d   1     -38.472  13.657  19.117  0.00  0.00    -0.206 NA
ENDROOT
BRANCH   1   4
ATOM      4  C   UNL d   1     -39.281  14.738  18.658  0.00  0.00     0.062 C 
BRANCH   4   5
ATOM      5  C   UNL d   1     -39.821  15.030  18.099  0.00  0.00     0.005 A 
ATOM      6  C   UNL d   1     -39.580  15.621  17.599  0.00  0.00     0.001 A 
ATOM      7  C   UNL d   1     -40.112  15.916  17.041  0.00  0.00     0.011 A 
ATOM      8  C   UNL d   1     -40.875  15.618  16.990  0.00  0.00     0.058 A 
ATOM      9  C   UNL d   1     -41.117  15.017  17.500  0.00  0.00     0.011 A 
ATOM     10 CL   UNL d   1     -41.405  15.922  16.425  0.00  0.00    -0.082 Cl
ATOM     11  C   UNL d   1     -40.586  14.723  18.056  0.00  0.00     0.001 A 
ENDBRANCH   4   5
ENDBRANCH   1   4
BRANCH   3  12
ATOM     12  C   UNL d   1     -38.489  13.980  19.894  0.00  0.00     0.104 C 
BRANCH  12  13
ATOM     13  C   UNL d   1     -38.050  13.615  20.491  0.00  0.00     0.040 C 
BRANCH  13  14
ATOM     14  C   UNL d   1     -38.198  13.819  21.284  0.00  0.00     0.090 A 
ATOM     15  N   UNL d   1     -38.418  13.234  21.824  0.00  0.00    -0.238 NA
ATOM     16  C   UNL d   1     -38.527  13.593  22.558  0.00  0.00     0.111 A 
ATOM     17  S   UNL d   1     -38.375  14.392  22.475  0.00  0.00    -0.066 SA
ATOM     18  C   UNL d   1     -38.751  13.219  23.264  0.00  0.00     0.028 C 
ATOM     19  C   UNL d   1     -38.171  14.543  21.691  0.00  0.00     0.056 A 
ENDBRANCH  13  14
ENDBRANCH  12  13
ENDBRANCH   3  12
TORSDOF 5
ENDMDL
