MODEL 1
REMARK VINA RESULT:      50.4      0.000      0.000
REMARK  4 active torsions:
REMARK  status: ('A' for Active; 'I' for Inactive)
REMARK    1  A    between atoms: C_11  and  N_1 
REMARK    2  A    between atoms: S_7  and  C_2 
REMARK    3  A    between atoms: C_13  and  S_7 
REMARK    4  A    between atoms: C_8  and  C_13 
REMARK       I    between atoms: N_9  and  C_8 
ROOT
ATOM      1  N   UNL d   1     -58.575 -98.759 -44.854  0.00  0.00    -0.254 N 
ATOM      2  C   UNL d   1     -57.781 -98.758 -45.072  0.00  0.00     0.182 A 
ATOM      3  C   UNL d   1     -59.162 -98.759 -45.435  0.00  0.00     0.274 A 
ATOM      4  C   UNL d   1     -58.951 -98.758 -46.229  0.00  0.00     0.104 A 
ATOM      5  N   UNL d   1     -57.572 -98.756 -45.870  0.00  0.00    -0.222 NA
ATOM      6  C   UNL d   1     -58.157 -98.756 -46.446  0.00  0.00     0.095 A 
ATOM      7  S   UNL d   1     -59.401 -98.758 -46.917  0.00  0.00    -0.080 SA
ATOM      8  O   UNL d   1     -59.958 -98.761 -45.217  0.00  0.00    -0.266 OA
ATOM      9  C   UNL d   1     -58.115 -98.755 -47.269  0.00  0.00     0.027 A 
ATOM     10  C   UNL d   1     -58.879 -98.756 -47.559  0.00  0.00     0.037 A 
ENDROOT
BRANCH   2  11
ATOM     11  S   UNL d   1     -57.184 -98.757 -44.490  0.00  0.00    -0.044 SA
BRANCH  11  12
ATOM     12  C   UNL d   1     -56.392 -98.806 -44.718  0.00  0.00     0.099 C 
BRANCH  12  13
ATOM     13  C   UNL d   1     -55.841 -99.170 -44.222  0.00  0.00     0.271 C 
ATOM     14  N   UNL d   1     -55.583 -99.935 -44.386  0.00  0.00    -0.272 N 
ATOM     15  C   UNL d   1     -55.776-100.459 -44.994  0.00  0.00     0.083 A 
ATOM     16  C   UNL d   1     -55.035-100.300 -43.894  0.00  0.00     0.083 A 
ATOM     17  C   UNL d   1     -55.336-101.152 -44.866  0.00  0.00     0.021 A 
ATOM     18  C   UNL d   1     -54.884-101.053 -44.194  0.00  0.00     0.021 A 
ATOM     19  O   UNL d   1     -55.550 -98.768 -43.563  0.00  0.00    -0.266 OA
ENDBRANCH  12  13
ENDBRANCH  11  12
ENDBRANCH   2  11
BRANCH   1  20
ATOM     20  C   UNL d   1     -58.787 -98.761 -44.064  0.00  0.00     0.069 A 
ATOM     21  C   UNL d   1     -58.208 -98.766 -43.477  0.00  0.00     0.018 A 
ATOM     22  C   UNL d   1     -58.426 -98.767 -42.682  0.00  0.00     0.002 A 
ATOM     23  C   UNL d   1     -59.224 -98.764 -42.473  0.00  0.00     0.000 A 
ATOM     24  C   UNL d   1     -59.804 -98.759 -43.060  0.00  0.00     0.002 A 
ATOM     25  C   UNL d   1     -59.453 -98.765 -41.668  0.00  0.00     0.000 C 
ATOM     26  C   UNL d   1     -59.586 -98.757 -43.856  0.00  0.00     0.018 A 
ENDBRANCH   1  20
TORSDOF 4
ENDMDL
