MODEL 1
REMARK VINA RESULT:      -5.1      0.000      0.000
REMARK  1 active torsions:
REMARK  status: ('A' for Active; 'I' for Inactive)
REMARK       I    between atoms: N_2  and  C_1 
REMARK       I    between atoms: N_3  and  C_1 
REMARK    1  A    between atoms: C_4  and  N_2 
ROOT
ATOM      1  C   UNL d   1     -41.493-122.785 -53.687  0.00  0.00     0.086 A 
ATOM      2  C   UNL d   1     -41.867-122.375 -54.302  0.00  0.00     0.018 A 
ATOM      3  C   UNL d   1     -41.874-122.685 -55.065  0.00  0.00     0.002 A 
ATOM      4  C   UNL d   1     -41.124-123.506 -53.834  0.00  0.00     0.019 A 
ATOM      5  C   UNL d   1     -41.130-123.817 -54.596  0.00  0.00     0.002 A 
ATOM      6  C   UNL d   1     -42.239-121.647 -54.150  0.00  0.00     0.002 A 
ATOM      7  C   UNL d   1     -41.505-123.407 -55.211  0.00  0.00     0.000 A 
ATOM      8  C   UNL d   1     -42.252-122.265 -55.665  0.00  0.00     0.000 A 
ATOM      9  C   UNL d   1     -42.612-121.239 -54.761  0.00  0.00     0.000 A 
ATOM     10  C   UNL d   1     -42.620-121.544 -55.516  0.00  0.00     0.000 A 
ENDROOT
BRANCH   1  11
ATOM     11  N   UNL d   1     -41.480-122.481 -52.915  0.00  0.00    -0.192 NA
ATOM     12  C   UNL d   1     -41.500-122.984 -52.258  0.00  0.00     0.354 C 
ATOM     13  N   UNL d   1     -41.486-122.660 -51.506  0.00  0.00    -0.252 N 
ATOM     14  O   UNL d   1     -41.533-123.815 -52.372  0.00  0.00    -0.244 OA
ATOM     15  C   UNL d   1     -41.506-123.174 -50.834  0.00  0.00     0.111 A 
ATOM     16  C   UNL d   1     -41.454-121.839 -51.416  0.00  0.00     0.111 A 
ATOM     17  C   UNL d   1     -41.492-122.832 -50.072  0.00  0.00     0.142 A 
ATOM     18  O   UNL d   1     -41.459-121.984 -49.980  0.00  0.00    -0.300 OA
ATOM     19  C   UNL d   1     -41.440-121.502 -50.642  0.00  0.00     0.142 A 
ENDBRANCH   1  11
TORSDOF 1
ENDMDL
MODEL 2
REMARK VINA RESULT:      -3.9      1.214      4.128
REMARK  1 active torsions:
REMARK  status: ('A' for Active; 'I' for Inactive)
REMARK       I    between atoms: N_2  and  C_1 
REMARK       I    between atoms: N_3  and  C_1 
REMARK    1  A    between atoms: C_4  and  N_2 
ROOT
ATOM      1  C   UNL d   1     -41.245-122.005 -52.051  0.00  0.00     0.086 A 
ATOM      2  C   UNL d   1     -41.238-122.499 -51.387  0.00  0.00     0.018 A 
ATOM      3  C   UNL d   1     -41.176-122.178 -50.630  0.00  0.00     0.002 A 
ATOM      4  C   UNL d   1     -41.191-121.188 -51.962  0.00  0.00     0.019 A 
ATOM      5  C   UNL d   1     -41.130-120.867 -51.206  0.00  0.00     0.002 A 
ATOM      6  C   UNL d   1     -41.292-123.323 -51.481  0.00  0.00     0.002 A 
ATOM      7  C   UNL d   1     -41.123-121.361 -50.542  0.00  0.00     0.000 A 
ATOM      8  C   UNL d   1     -41.170-122.684 -49.980  0.00  0.00     0.000 A 
ATOM      9  C   UNL d   1     -41.285-123.815 -50.819  0.00  0.00     0.000 A 
ATOM     10  C   UNL d   1     -41.224-123.500 -50.071  0.00  0.00     0.000 A 
ENDROOT
BRANCH   1  11
ATOM     11  N   UNL d   1     -41.307-122.319 -52.817  0.00  0.00    -0.192 NA
ATOM     12  C   UNL d   1     -41.740-121.928 -53.405  0.00  0.00     0.354 C 
ATOM     13  N   UNL d   1     -41.786-122.257 -54.153  0.00  0.00    -0.252 N 
ATOM     14  O   UNL d   1     -42.123-121.203 -53.225  0.00  0.00    -0.244 OA
ATOM     15  C   UNL d   1     -42.228-121.858 -54.753  0.00  0.00     0.111 A 
ATOM     16  C   UNL d   1     -41.401-122.972 -54.309  0.00  0.00     0.111 A 
ATOM     17  C   UNL d   1     -42.268-122.204 -55.513  0.00  0.00     0.142 A 
ATOM     18  O   UNL d   1     -41.870-122.942 -55.673  0.00  0.00    -0.300 OA
ATOM     19  C   UNL d   1     -41.446-123.314 -55.079  0.00  0.00     0.142 A 
ENDBRANCH   1  11
TORSDOF 1
ENDMDL
