MODEL 1
REMARK VINA RESULT:      -2.8      0.000      0.000
REMARK  4 active torsions:
REMARK  status: ('A' for Active; 'I' for Inactive)
REMARK    1  A    between atoms: C_7  and  N_1 
REMARK    2  A    between atoms: C_12  and  N_4 
REMARK    3  A    between atoms: C_8  and  C_7 
REMARK    4  A    between atoms: C_16  and  C_12 
ROOT
ATOM      1  N   UNL d   1     -41.398-122.188 -52.341  0.00  0.00    -0.273 N 
ATOM      2  C   UNL d   1     -41.257-121.504 -51.878  0.00  0.00     0.153 A 
ATOM      3  S   UNL d   1     -41.247-121.560 -51.064  0.00  0.00    -0.039 SA
ATOM      4  N   UNL d   1     -41.517-122.967 -51.155  0.00  0.00    -0.281 N 
ATOM      5  C   UNL d   1     -41.528-122.913 -51.981  0.00  0.00     0.168 A 
ATOM      6  C   UNL d   1     -41.375-122.283 -50.692  0.00  0.00     0.120 A 
ATOM      7  S   UNL d   1     -41.126-120.770 -52.252  0.00  0.00    -0.052 SA
ENDROOT
BRANCH   4   8
ATOM      8  C   UNL d   1     -41.645-123.687 -50.781  0.00  0.00     0.101 C 
BRANCH   8   9
ATOM      9  C   UNL d   1     -42.147-123.727 -50.130  0.00  0.00     0.099 A 
ATOM     10  N   UNL d   1     -42.966-123.717 -50.259  0.00  0.00    -0.242 NA
ATOM     11  C   UNL d   1     -43.478-123.757 -49.608  0.00  0.00     0.099 A 
ATOM     12  C   UNL d   1     -43.170-123.806 -48.842  0.00  0.00     0.021 A 
ATOM     13  C   UNL d   1     -42.351-123.816 -48.726  0.00  0.00     0.003 A 
ATOM     14  C   UNL d   1     -41.847-123.776 -49.368  0.00  0.00     0.021 A 
ENDBRANCH   8   9
ENDBRANCH   4   8
BRANCH   1  15
ATOM     15  C   UNL d   1     -41.406-122.119 -53.167  0.00  0.00     0.107 C 
BRANCH  15  16
ATOM     16  C   UNL d   1     -41.628-122.758 -53.643  0.00  0.00     0.118 A 
ATOM     17  O   UNL d   1     -42.405-123.016 -53.775  0.00  0.00    -0.304 OA
ATOM     18  C   UNL d   1     -42.365-123.665 -54.283  0.00  0.00     0.123 A 
ATOM     19  C   UNL d   1     -41.584-123.806 -54.461  0.00  0.00     0.029 A 
ATOM     20  C   UNL d   1     -41.126-123.246 -54.067  0.00  0.00     0.028 A 
ENDBRANCH  15  16
ENDBRANCH   1  15
TORSDOF 4
ENDMDL
