MODEL 1
REMARK VINA RESULT:      -9.5      0.000      0.000
REMARK  3 active torsions:
REMARK  status: ('A' for Active; 'I' for Inactive)
REMARK    1  A    between atoms: C_8  and  C_2 
REMARK    2  A    between atoms: N_9  and  C_8 
REMARK    3  A    between atoms: C_20  and  C_13 
ROOT
ATOM      1  C   UNL d   1     -48.104  13.039  23.135  0.00  0.00     0.108 A 
ATOM      2  C   UNL d   1     -48.856  12.759  23.332  0.00  0.00     0.079 A 
ATOM      3  O   UNL d   1     -47.982  13.823  22.967  0.00  0.00    -0.273 OA
ATOM      4  C   UNL d   1     -47.227  14.106  22.770  0.00  0.00     0.300 A 
ATOM      5  C   UNL d   1     -46.716  12.766  22.917  0.00  0.00     0.007 A 
ATOM      6  C   UNL d   1     -47.471  12.510  23.110  0.00  0.00     0.023 A 
ATOM      7  C   UNL d   1     -46.588  13.573  22.744  0.00  0.00     0.064 A 
ATOM      8  C   UNL d   1     -47.584  11.708  23.279  0.00  0.00     0.005 A 
ATOM      9  C   UNL d   1     -48.983  11.968  23.501  0.00  0.00     0.199 A 
ATOM     10  O   UNL d   1     -47.094  14.904  22.598  0.00  0.00    -0.259 OA
ATOM     11  C   UNL d   1     -48.350  11.439  23.476  0.00  0.00     0.042 A 
ATOM     12  C   UNL d   1     -45.999  12.373  22.851  0.00  0.00     0.000 A 
ATOM     13  C   UNL d   1     -45.783  13.666  22.572  0.00  0.00     0.005 A 
ATOM     14  O   UNL d   1     -49.733  11.691  23.697  0.00  0.00    -0.286 OA
ATOM     15  C   UNL d   1     -45.414  12.934  22.635  0.00  0.00     0.000 A 
ENDROOT
BRANCH   2  16
ATOM     16  C   UNL d   1     -49.490  13.299  23.355  0.00  0.00     0.085 C 
BRANCH  16  17
ATOM     17  N   UNL d   1     -50.007  13.368  22.718  0.00  0.00    -0.304 N 
ATOM     18  C   UNL d   1     -50.545  13.965  22.712  0.00  0.00     0.064 A 
ATOM     19  C   UNL d   1     -51.063  14.034  22.076  0.00  0.00     0.018 A 
ATOM     20  C   UNL d   1     -51.025  13.491  21.452  0.00  0.00     0.003 A 
ATOM     21  C   UNL d   1     -50.483  12.897  21.469  0.00  0.00     0.019 A 
ATOM     22  C   UNL d   1     -49.965  12.829  22.106  0.00  0.00     0.080 A 
BRANCH  18  23
ATOM     23  C   UNL d   1     -50.585  14.506  23.328  0.00  0.00     0.018 C 
ATOM     24  C   UNL d   1     -51.064  15.169  23.278  0.00  0.00     0.002 C 
ENDBRANCH  18  23
ENDBRANCH  16  17
ENDBRANCH   2  16
TORSDOF 3
ENDMDL
MODEL 2
REMARK VINA RESULT:      -8.8      1.028      2.088
REMARK  3 active torsions:
REMARK  status: ('A' for Active; 'I' for Inactive)
REMARK    1  A    between atoms: C_8  and  C_2 
REMARK    2  A    between atoms: N_9  and  C_8 
REMARK    3  A    between atoms: C_20  and  C_13 
ROOT
ATOM      1  C   UNL d   1     -47.482  12.770  23.219  0.00  0.00     0.108 A 
ATOM      2  C   UNL d   1     -47.880  13.483  23.094  0.00  0.00     0.079 A 
ATOM      3  O   UNL d   1     -47.890  12.090  23.394  0.00  0.00    -0.273 OA
ATOM      4  C   UNL d   1     -47.492  11.373  23.520  0.00  0.00     0.300 A 
ATOM      5  C   UNL d   1     -46.244  12.055  23.286  0.00  0.00     0.007 A 
ATOM      6  C   UNL d   1     -46.659  12.752  23.165  0.00  0.00     0.023 A 
ATOM      7  C   UNL d   1     -46.661  11.355  23.465  0.00  0.00     0.064 A 
ATOM      8  C   UNL d   1     -46.234  13.439  22.988  0.00  0.00     0.005 A 
ATOM      9  C   UNL d   1     -47.472  14.171  22.918  0.00  0.00     0.199 A 
ATOM     10  O   UNL d   1     -47.900  10.676  23.698  0.00  0.00    -0.259 OA
ATOM     11  C   UNL d   1     -46.649  14.153  22.864  0.00  0.00     0.042 A 
ATOM     12  C   UNL d   1     -45.443  11.878  23.268  0.00  0.00     0.000 A 
ATOM     13  C   UNL d   1     -46.104  10.748  23.556  0.00  0.00     0.005 A 
ATOM     14  O   UNL d   1     -47.870  14.880  22.794  0.00  0.00    -0.286 OA
ATOM     15  C   UNL d   1     -45.353  11.062  23.436  0.00  0.00     0.000 A 
ENDROOT
BRANCH   2  16
ATOM     16  C   UNL d   1     -48.711  13.492  23.151  0.00  0.00     0.085 C 
BRANCH  16  17
ATOM     17  N   UNL d   1     -49.179  13.426  22.477  0.00  0.00    -0.304 N 
ATOM     18  C   UNL d   1     -49.980  13.423  22.553  0.00  0.00     0.064 A 
ATOM     19  C   UNL d   1     -50.448  13.356  21.879  0.00  0.00     0.018 A 
ATOM     20  C   UNL d   1     -50.093  13.293  21.134  0.00  0.00     0.003 A 
ATOM     21  C   UNL d   1     -49.291  13.297  21.070  0.00  0.00     0.019 A 
ATOM     22  C   UNL d   1     -48.823  13.364  21.745  0.00  0.00     0.080 A 
BRANCH  18  23
ATOM     23  C   UNL d   1     -50.335  13.485  23.290  0.00  0.00     0.018 C 
ATOM     24  C   UNL d   1     -51.064  13.141  23.438  0.00  0.00     0.002 C 
ENDBRANCH  18  23
ENDBRANCH  16  17
ENDBRANCH   2  16
TORSDOF 3
ENDMDL
MODEL 3
REMARK VINA RESULT:      -7.8      1.300      4.149
REMARK  3 active torsions:
REMARK  status: ('A' for Active; 'I' for Inactive)
REMARK    1  A    between atoms: C_8  and  C_2 
REMARK    2  A    between atoms: N_9  and  C_8 
REMARK    3  A    between atoms: C_20  and  C_13 
ROOT
ATOM      1  C   UNL d   1     -48.367  13.318  22.605  0.00  0.00     0.108 A 
ATOM      2  C   UNL d   1     -47.667  13.618  22.925  0.00  0.00     0.079 A 
ATOM      3  O   UNL d   1     -48.506  12.519  22.583  0.00  0.00    -0.273 OA
ATOM      4  C   UNL d   1     -49.209  12.216  22.261  0.00  0.00     0.300 A 
ATOM      5  C   UNL d   1     -49.631  13.565  21.982  0.00  0.00     0.007 A 
ATOM      6  C   UNL d   1     -48.930  13.841  22.304  0.00  0.00     0.023 A 
ATOM      7  C   UNL d   1     -49.777  12.744  21.958  0.00  0.00     0.064 A 
ATOM      8  C   UNL d   1     -48.797  14.658  22.322  0.00  0.00     0.005 A 
ATOM      9  C   UNL d   1     -47.523  14.423  22.949  0.00  0.00     0.199 A 
ATOM     10  O   UNL d   1     -49.358  11.403  22.235  0.00  0.00    -0.259 OA
ATOM     11  C   UNL d   1     -48.085  14.947  22.649  0.00  0.00     0.042 A 
ATOM     12  C   UNL d   1     -50.276  13.949  21.650  0.00  0.00     0.000 A 
ATOM     13  C   UNL d   1     -50.519  12.632  21.607  0.00  0.00     0.005 A 
ATOM     14  O   UNL d   1     -46.825  14.720  23.269  0.00  0.00    -0.286 OA
ATOM     15  C   UNL d   1     -50.832  13.368  21.414  0.00  0.00     0.000 A 
ENDROOT
BRANCH   2  16
ATOM     16  C   UNL d   1     -47.104  13.083  23.227  0.00  0.00     0.085 C 
BRANCH  16  17
ATOM     17  N   UNL d   1     -46.402  12.938  22.822  0.00  0.00    -0.304 N 
ATOM     18  C   UNL d   1     -45.964  12.291  23.013  0.00  0.00     0.064 A 
ATOM     19  C   UNL d   1     -45.263  12.146  22.608  0.00  0.00     0.018 A 
ATOM     20  C   UNL d   1     -45.016  12.663  22.011  0.00  0.00     0.003 A 
ATOM     21  C   UNL d   1     -45.461  13.307  21.828  0.00  0.00     0.019 A 
ATOM     22  C   UNL d   1     -46.164  13.452  22.234  0.00  0.00     0.080 A 
BRANCH  18  23
ATOM     23  C   UNL d   1     -46.206  11.775  23.604  0.00  0.00     0.018 C 
ATOM     24  C   UNL d   1     -45.850  11.043  23.698  0.00  0.00     0.002 C 
ENDBRANCH  18  23
ENDBRANCH  16  17
ENDBRANCH   2  16
TORSDOF 3
ENDMDL
MODEL 4
REMARK VINA RESULT:      -7.4      8.015     10.409
REMARK  3 active torsions:
REMARK  status: ('A' for Active; 'I' for Inactive)
REMARK    1  A    between atoms: C_8  and  C_2 
REMARK    2  A    between atoms: N_9  and  C_8 
REMARK    3  A    between atoms: C_20  and  C_13 
ROOT
ATOM      1  C   UNL d   1     -39.725  14.347  17.758  0.00  0.00     0.108 A 
ATOM      2  C   UNL d   1     -40.313  14.802  18.119  0.00  0.00     0.079 A 
ATOM      3  O   UNL d   1     -39.418  13.693  18.128  0.00  0.00    -0.273 OA
ATOM      4  C   UNL d   1     -38.827  13.236  17.766  0.00  0.00     0.300 A 
ATOM      5  C   UNL d   1     -38.866  14.127  16.634  0.00  0.00     0.007 A 
ATOM      6  C   UNL d   1     -39.449  14.564  17.011  0.00  0.00     0.023 A 
ATOM      7  C   UNL d   1     -38.549  13.455  17.012  0.00  0.00     0.064 A 
ATOM      8  C   UNL d   1     -39.756  15.229  16.626  0.00  0.00     0.005 A 
ATOM      9  C   UNL d   1     -40.626  15.462  17.749  0.00  0.00     0.199 A 
ATOM     10  O   UNL d   1     -38.509  12.569  18.136  0.00  0.00    -0.259 OA
ATOM     11  C   UNL d   1     -40.350  15.679  17.002  0.00  0.00     0.042 A 
ATOM     12  C   UNL d   1     -38.495  14.212  15.908  0.00  0.00     0.000 A 
ATOM     13  C   UNL d   1     -37.978  13.130  16.507  0.00  0.00     0.005 A 
ATOM     14  O   UNL d   1     -41.211  15.913  18.110  0.00  0.00    -0.286 OA
ATOM     15  C   UNL d   1     -37.940  13.589  15.826  0.00  0.00     0.000 A 
ENDROOT
BRANCH   2  16
ATOM     16  C   UNL d   1     -40.586  14.576  18.873  0.00  0.00     0.085 C 
BRANCH  16  17
ATOM     17  N   UNL d   1     -40.316  14.958  19.550  0.00  0.00    -0.304 N 
ATOM     18  C   UNL d   1     -40.618  14.750  20.266  0.00  0.00     0.064 A 
ATOM     19  C   UNL d   1     -40.347  15.131  20.943  0.00  0.00     0.018 A 
ATOM     20  C   UNL d   1     -39.771  15.722  20.881  0.00  0.00     0.003 A 
ATOM     21  C   UNL d   1     -39.476  15.922  20.161  0.00  0.00     0.019 A 
ATOM     22  C   UNL d   1     -39.747  15.539  19.483  0.00  0.00     0.080 A 
BRANCH  18  23
ATOM     23  C   UNL d   1     -41.189  14.164  20.330  0.00  0.00     0.018 C 
ATOM     24  C   UNL d   1     -41.424  13.881  21.063  0.00  0.00     0.002 C 
ENDBRANCH  18  23
ENDBRANCH  16  17
ENDBRANCH   2  16
TORSDOF 3
ENDMDL
MODEL 5
REMARK VINA RESULT:      -7.2      1.477      3.867
REMARK  3 active torsions:
REMARK  status: ('A' for Active; 'I' for Inactive)
REMARK    1  A    between atoms: C_8  and  C_2 
REMARK    2  A    between atoms: N_9  and  C_8 
REMARK    3  A    between atoms: C_20  and  C_13 
ROOT
ATOM      1  C   UNL d   1     -48.328  12.413  22.375  0.00  0.00     0.108 A 
ATOM      2  C   UNL d   1     -47.578  12.201  22.649  0.00  0.00     0.079 A 
ATOM      3  O   UNL d   1     -48.414  12.894  21.726  0.00  0.00    -0.273 OA
ATOM      4  C   UNL d   1     -49.166  13.109  21.450  0.00  0.00     0.300 A 
ATOM      5  C   UNL d   1     -49.750  12.330  22.513  0.00  0.00     0.007 A 
ATOM      6  C   UNL d   1     -48.996  12.131  22.768  0.00  0.00     0.023 A 
ATOM      7  C   UNL d   1     -49.841  12.824  21.847  0.00  0.00     0.064 A 
ATOM      8  C   UNL d   1     -48.919  11.641  23.430  0.00  0.00     0.005 A 
ATOM      9  C   UNL d   1     -47.487  11.716  23.302  0.00  0.00     0.199 A 
ATOM     10  O   UNL d   1     -49.262  13.598  20.790  0.00  0.00    -0.259 OA
ATOM     11  C   UNL d   1     -48.155  11.434  23.696  0.00  0.00     0.042 A 
ATOM     12  C   UNL d   1     -50.497  12.134  22.791  0.00  0.00     0.000 A 
ATOM     13  C   UNL d   1     -50.653  12.927  21.722  0.00  0.00     0.005 A 
ATOM     14  O   UNL d   1     -46.740  11.505  23.574  0.00  0.00    -0.286 OA
ATOM     15  C   UNL d   1     -51.063  12.507  22.297  0.00  0.00     0.000 A 
ENDROOT
BRANCH   2  16
ATOM     16  C   UNL d   1     -46.909  12.490  22.246  0.00  0.00     0.085 C 
BRANCH  16  17
ATOM     17  N   UNL d   1     -46.522  13.169  22.505  0.00  0.00    -0.304 N 
ATOM     18  C   UNL d   1     -45.769  13.310  22.261  0.00  0.00     0.064 A 
ATOM     19  C   UNL d   1     -45.383  13.989  22.520  0.00  0.00     0.018 A 
ATOM     20  C   UNL d   1     -45.770  14.516  23.027  0.00  0.00     0.003 A 
ATOM     21  C   UNL d   1     -46.523  14.365  23.265  0.00  0.00     0.019 A 
ATOM     22  C   UNL d   1     -46.909  13.685  23.005  0.00  0.00     0.080 A 
BRANCH  18  23
ATOM     23  C   UNL d   1     -45.382  12.789  21.759  0.00  0.00     0.018 C 
ATOM     24  C   UNL d   1     -44.623  12.945  21.490  0.00  0.00     0.002 C 
ENDBRANCH  18  23
ENDBRANCH  16  17
ENDBRANCH   2  16
TORSDOF 3
ENDMDL
MODEL 6
REMARK VINA RESULT:      -6.7      9.200     10.681
REMARK  3 active torsions:
REMARK  status: ('A' for Active; 'I' for Inactive)
REMARK    1  A    between atoms: C_8  and  C_2 
REMARK    2  A    between atoms: N_9  and  C_8 
REMARK    3  A    between atoms: C_20  and  C_13 
ROOT
ATOM      1  C   UNL d   1     -39.773  14.653  19.241  0.00  0.00     0.108 A 
ATOM      2  C   UNL d   1     -40.002  14.443  18.475  0.00  0.00     0.079 A 
ATOM      3  O   UNL d   1     -39.102  14.343  19.576  0.00  0.00    -0.273 OA
ATOM      4  C   UNL d   1     -38.871  14.553  20.345  0.00  0.00     0.300 A 
ATOM      5  C   UNL d   1     -40.027  15.410  20.429  0.00  0.00     0.007 A 
ATOM      6  C   UNL d   1     -40.236  15.187  19.668  0.00  0.00     0.023 A 
ATOM      7  C   UNL d   1     -39.338  15.092  20.775  0.00  0.00     0.064 A 
ATOM      8  C   UNL d   1     -40.921  15.509  19.335  0.00  0.00     0.005 A 
ATOM      9  C   UNL d   1     -40.678  14.754  18.134  0.00  0.00     0.199 A 
ATOM     10  O   UNL d   1     -38.189  14.242  20.693  0.00  0.00    -0.259 OA
ATOM     11  C   UNL d   1     -41.141  15.287  18.561  0.00  0.00     0.042 A 
ATOM     12  C   UNL d   1     -40.375  15.918  20.971  0.00  0.00     0.000 A 
ATOM     13  C   UNL d   1     -39.270  15.413  21.536  0.00  0.00     0.005 A 
ATOM     14  O   UNL d   1     -40.904  14.543  17.372  0.00  0.00    -0.286 OA
ATOM     15  C   UNL d   1     -39.903  15.922  21.664  0.00  0.00     0.000 A 
ENDROOT
BRANCH   2  16
ATOM     16  C   UNL d   1     -39.529  13.903  18.051  0.00  0.00     0.085 C 
BRANCH  16  17
ATOM     17  N   UNL d   1     -39.007  14.167  17.472  0.00  0.00    -0.304 N 
ATOM     18  C   UNL d   1     -38.489  13.647  17.144  0.00  0.00     0.064 A 
ATOM     19  C   UNL d   1     -37.967  13.910  16.564  0.00  0.00     0.018 A 
ATOM     20  C   UNL d   1     -37.981  14.702  16.325  0.00  0.00     0.003 A 
ATOM     21  C   UNL d   1     -38.504  15.213  16.660  0.00  0.00     0.019 A 
ATOM     22  C   UNL d   1     -39.026  14.949  17.240  0.00  0.00     0.080 A 
BRANCH  18  23
ATOM     23  C   UNL d   1     -38.472  12.861  17.379  0.00  0.00     0.018 C 
ATOM     24  C   UNL d   1     -37.954  12.327  17.034  0.00  0.00     0.002 C 
ENDBRANCH  18  23
ENDBRANCH  16  17
ENDBRANCH   2  16
TORSDOF 3
ENDMDL
