MODEL 1
REMARK VINA RESULT:      16.4      0.000      0.000
REMARK  3 active torsions:
REMARK  status: ('A' for Active; 'I' for Inactive)
REMARK    1  A    between atoms: N_3  and  C_1 
REMARK    2  A    between atoms: N_6  and  N_2 
REMARK    3  A    between atoms: S_5  and  N_6 
ROOT
ATOM      1  C   UNL d   1      45.607 -12.928  43.820  0.00  0.00     0.771 A 
ATOM      2  N   UNL d   1      45.685 -13.716  44.063  0.00  0.00    -0.026 N 
ATOM      3  N   UNL d   1      46.197 -12.490  44.188  0.00  0.00     0.048 NA
ATOM      4  C   UNL d   1      46.320 -13.762  44.579  0.00  0.00     0.204 A 
ATOM      5  N   UNL d   1      46.640 -13.004  44.658  0.00  0.00    -0.112 NA
ATOM      6  C   UNL d   1      46.593 -14.442  44.952  0.00  0.00     0.044 C 
ENDROOT
BRANCH   1   7
ATOM      7  N   UNL d   1      45.031 -12.641  43.297  0.00  0.00    -0.056 N 
ATOM      8  N   UNL d   1      44.212 -12.664  43.408  0.00  0.00    -0.150 NA
ATOM      9  C   UNL d   1      43.856 -12.317  42.750  0.00  0.00     0.103 A 
ATOM     10  C   UNL d   1      43.042 -12.223  42.628  0.00  0.00     0.022 C 
ATOM     11  C   UNL d   1      44.451 -12.080  42.236  0.00  0.00     0.041 A 
ATOM     12  C   UNL d   1      45.178 -12.279  42.571  0.00  0.00     0.102 A 
ATOM     13  C   UNL d   1      45.919 -12.139  42.237  0.00  0.00     0.021 C 
ENDBRANCH   1   7
BRANCH   2  14
ATOM     14  N   UNL d   1      45.202 -14.341  43.824  0.00  0.00    -0.059 NA
BRANCH  14  15
ATOM     15  S   UNL d   1      45.156 -15.029  44.292  0.00  0.00     0.282 S 
ATOM     16  O   UNL d   1      45.619 -15.485  43.798  0.00  0.00    -0.201 OA
ATOM     17  O   UNL d   1      44.688 -14.560  44.788  0.00  0.00    -0.201 OA
ATOM     18  C   UNL d   1      45.064 -15.660  44.803  0.00  0.00     0.167 C 
ENDBRANCH  14  15
ENDBRANCH   2  14
TORSDOF 3
ENDMDL
MODEL 2
REMARK VINA RESULT:      18.2      4.943      6.413
REMARK  3 active torsions:
REMARK  status: ('A' for Active; 'I' for Inactive)
REMARK    1  A    between atoms: N_3  and  C_1 
REMARK    2  A    between atoms: N_6  and  N_2 
REMARK    3  A    between atoms: S_5  and  N_6 
ROOT
ATOM      1  C   UNL d   1      46.532 -19.425  42.635  0.00  0.00     0.771 A 
ATOM      2  N   UNL d   1      46.546 -19.005  41.921  0.00  0.00    -0.026 N 
ATOM      3  N   UNL d   1      46.591 -20.226  42.459  0.00  0.00     0.048 NA
ATOM      4  C   UNL d   1      46.613 -19.545  41.309  0.00  0.00     0.204 A 
ATOM      5  N   UNL d   1      46.641 -20.302  41.639  0.00  0.00    -0.112 NA
ATOM      6  C   UNL d   1      46.646 -19.367  40.507  0.00  0.00     0.044 C 
ENDROOT
BRANCH   1   7
ATOM      7  N   UNL d   1      46.470 -19.089  43.390  0.00  0.00    -0.056 N 
ATOM      8  N   UNL d   1      46.448 -18.282  43.567  0.00  0.00    -0.150 NA
ATOM      9  C   UNL d   1      46.383 -18.202  44.386  0.00  0.00     0.103 A 
ATOM     10  C   UNL d   1      46.343 -17.489  44.806  0.00  0.00     0.022 C 
ATOM     11  C   UNL d   1      46.365 -18.956  44.713  0.00  0.00     0.041 A 
ATOM     12  C   UNL d   1      46.418 -19.506  44.100  0.00  0.00     0.102 A 
ATOM     13  C   UNL d   1      46.420 -20.326  44.185  0.00  0.00     0.021 C 
ENDBRANCH   1   7
BRANCH   2  14
ATOM     14  N   UNL d   1      46.499 -18.185  41.847  0.00  0.00    -0.059 NA
BRANCH  14  15
ATOM     15  S   UNL d   1      45.959 -17.849  41.309  0.00  0.00     0.282 S 
ATOM     16  O   UNL d   1      45.293 -18.128  41.689  0.00  0.00    -0.201 OA
ATOM     17  O   UNL d   1      46.641 -17.570  40.930  0.00  0.00    -0.201 OA
ATOM     18  C   UNL d   1      45.497 -17.489  40.740  0.00  0.00     0.167 C 
ENDBRANCH  14  15
ENDBRANCH   2  14
TORSDOF 3
ENDMDL
