MODEL 1
REMARK VINA RESULT:      22.6      0.000      0.000
REMARK  4 active torsions:
REMARK  status: ('A' for Active; 'I' for Inactive)
REMARK    1  A    between atoms: C_18  and  C_5 
REMARK    2  A    between atoms: C_7  and  C_8 
REMARK       I    between atoms: C_8  and  N_17 
REMARK    3  A    between atoms: N_17  and  C_19 
REMARK    4  A    between atoms: C_19  and  C_18 
ROOT
ATOM      1  C   UNL d   1     -58.082 -98.756 -44.020  0.00  0.00     0.148 A 
ATOM      2  N   UNL d   1     -58.189 -98.755 -44.839  0.00  0.00    -0.288 N 
ATOM      3  N   UNL d   1     -57.280 -98.756 -43.868  0.00  0.00    -0.227 NA
ATOM      4  C   UNL d   1     -57.436 -98.755 -45.188  0.00  0.00     0.101 A 
ATOM      5  C   UNL d   1     -56.878 -98.756 -44.582  0.00  0.00     0.102 A 
ATOM      6  C   UNL d   1     -58.745 -98.756 -43.529  0.00  0.00     0.035 A 
ATOM      7  C   UNL d   1     -58.945 -98.755 -45.164  0.00  0.00     0.082 A 
ATOM      8  C   UNL d   1     -59.599 -98.755 -44.671  0.00  0.00     0.019 A 
ATOM      9  C   UNL d   1     -59.503 -98.756 -43.845  0.00  0.00     0.004 A 
ATOM     10  C   UNL d   1     -58.650 -98.757 -42.699  0.00  0.00     0.003 C 
ENDROOT
BRANCH   5  11
ATOM     11  C   UNL d   1     -56.053 -98.756 -44.674  0.00  0.00     0.042 C 
BRANCH  11  12
ATOM     12  C   UNL d   1     -55.617 -99.439 -44.502  0.00  0.00     0.104 C 
BRANCH  12  13
ATOM     13  N   UNL d   1     -55.346 -99.573 -43.740  0.00  0.00    -0.205 NA
ATOM     14  C   UNL d   1     -54.979-100.290 -43.550  0.00  0.00     0.302 C 
ATOM     15  O   UNL d   1     -54.712-100.417 -42.792  0.00  0.00    -0.263 OA
BRANCH  14  16
ATOM     16  C   UNL d   1     -54.888-100.868 -44.133  0.00  0.00     0.158 A 
ATOM     17  O   UNL d   1     -54.787-101.653 -43.921  0.00  0.00    -0.300 OA
ATOM     18  C   UNL d   1     -54.711-102.100 -44.612  0.00  0.00     0.123 A 
ATOM     19  C   UNL d   1     -54.766-101.595 -45.248  0.00  0.00     0.029 A 
ATOM     20  C   UNL d   1     -54.877-100.822 -44.953  0.00  0.00     0.032 A 
ENDBRANCH  14  16
ENDBRANCH  12  13
ENDBRANCH  11  12
ENDBRANCH   5  11
TORSDOF 4
ENDMDL
MODEL 2
REMARK VINA RESULT:      25.0      0.736      1.527
REMARK  4 active torsions:
REMARK  status: ('A' for Active; 'I' for Inactive)
REMARK    1  A    between atoms: C_18  and  C_5 
REMARK    2  A    between atoms: C_7  and  C_8 
REMARK       I    between atoms: C_8  and  N_17 
REMARK    3  A    between atoms: N_17  and  C_19 
REMARK    4  A    between atoms: C_19  and  C_18 
ROOT
ATOM      1  C   UNL d   1     -58.025 -98.774 -44.783  0.00  0.00     0.148 A 
ATOM      2  N   UNL d   1     -57.839 -98.763 -43.978  0.00  0.00    -0.288 N 
ATOM      3  N   UNL d   1     -57.325 -98.772 -45.206  0.00  0.00    -0.227 NA
ATOM      4  C   UNL d   1     -57.012 -98.755 -43.915  0.00  0.00     0.101 A 
ATOM      5  C   UNL d   1     -56.700 -98.761 -44.677  0.00  0.00     0.102 A 
ATOM      6  C   UNL d   1     -58.817 -98.783 -45.012  0.00  0.00     0.035 A 
ATOM      7  C   UNL d   1     -58.433 -98.762 -43.410  0.00  0.00     0.082 A 
ATOM      8  C   UNL d   1     -59.218 -98.772 -43.644  0.00  0.00     0.019 A 
ATOM      9  C   UNL d   1     -59.417 -98.782 -44.452  0.00  0.00     0.004 A 
ATOM     10  C   UNL d   1     -59.017 -98.794 -45.823  0.00  0.00     0.003 C 
ENDROOT
BRANCH   5  11
ATOM     11  C   UNL d   1     -55.895 -98.756 -44.879  0.00  0.00     0.042 C 
BRANCH  11  12
ATOM     12  C   UNL d   1     -55.408 -99.389 -44.658  0.00  0.00     0.104 C 
BRANCH  12  13
ATOM     13  N   UNL d   1     -55.259 -99.997 -45.186  0.00  0.00    -0.205 NA
ATOM     14  C   UNL d   1     -55.005-100.735 -44.909  0.00  0.00     0.302 C 
ATOM     15  O   UNL d   1     -54.859-101.335 -45.438  0.00  0.00    -0.263 OA
BRANCH  14  16
ATOM     16  C   UNL d   1     -54.903-100.852 -44.098  0.00  0.00     0.158 A 
ATOM     17  O   UNL d   1     -54.809-101.610 -43.801  0.00  0.00    -0.300 OA
ATOM     18  C   UNL d   1     -54.719-101.557 -42.982  0.00  0.00     0.123 A 
ATOM     19  C   UNL d   1     -54.758-100.772 -42.772  0.00  0.00     0.029 A 
ATOM     20  C   UNL d   1     -54.873-100.326 -43.468  0.00  0.00     0.032 A 
ENDBRANCH  14  16
ENDBRANCH  12  13
ENDBRANCH  11  12
ENDBRANCH   5  11
TORSDOF 4
ENDMDL
