MODEL 1
REMARK VINA RESULT:      -2.5      0.000      0.000
REMARK  3 active torsions:
REMARK  status: ('A' for Active; 'I' for Inactive)
REMARK    1  A    between atoms: C_3  and  C_1 
REMARK       I    between atoms: N_4  and  C_1 
REMARK    2  A    between atoms: N_2  and  C_7 
REMARK    3  A    between atoms: C_16  and  N_4 
ROOT
ATOM      1  C   UNL d   1      33.220  18.870 -22.896  0.00  0.00     0.064 A 
ATOM      2  C   UNL d   1      33.235  18.885 -23.725  0.00  0.00     0.019 A 
ATOM      3  C   UNL d   1      33.210  18.134 -22.508  0.00  0.00     0.019 A 
ATOM      4  C   UNL d   1      33.231  17.457 -23.769  0.00  0.00     0.085 A 
ATOM      5  C   UNL d   1      33.241  18.182 -24.159  0.00  0.00     0.021 A 
ATOM      6  C   UNL d   1      33.216  17.431 -22.942  0.00  0.00     0.021 A 
ENDROOT
BRANCH   4   7
ATOM      7  N   UNL d   1      33.237  16.755 -24.202  0.00  0.00    -0.208 NA
ATOM      8  C   UNL d   1      32.539  16.442 -24.488  0.00  0.00     0.285 C 
ATOM      9  O   UNL d   1      32.544  15.739 -24.922  0.00  0.00    -0.265 OA
BRANCH   8  10
ATOM     10  C   UNL d   1      31.828  16.830 -24.341  0.00  0.00     0.087 A 
ATOM     11  S   UNL d   1      31.497  17.515 -24.647  0.00  0.00    -0.082 SA
ATOM     12  C   UNL d   1      30.772  17.636 -24.294  0.00  0.00     0.036 A 
ATOM     13  C   UNL d   1      30.639  17.020 -23.757  0.00  0.00     0.008 A 
ATOM     14  C   UNL d   1      31.296  16.523 -23.790  0.00  0.00     0.012 A 
ENDBRANCH   8  10
ENDBRANCH   4   7
BRANCH   1  15
ATOM     15  N   UNL d   1      33.214  19.573 -22.462  0.00  0.00    -0.301 N 
ATOM     16  C   UNL d   1      33.240  20.294 -22.845  0.00  0.00     0.100 A 
ATOM     17  C   UNL d   1      33.235  20.996 -22.411  0.00  0.00     0.100 A 
ATOM     18  N   UNL d   1      33.203  20.977 -21.595  0.00  0.00    -0.299 N 
ATOM     19  C   UNL d   1      33.176  20.251 -21.206  0.00  0.00     0.100 A 
ATOM     20  C   UNL d   1      33.197  21.678 -21.162  0.00  0.00     0.100 C 
ATOM     21  C   UNL d   1      33.182  19.549 -21.639  0.00  0.00     0.100 A 
ENDBRANCH   1  15
TORSDOF 3
ENDMDL
MODEL 2
REMARK VINA RESULT:      -0.9      2.289      4.553
REMARK  3 active torsions:
REMARK  status: ('A' for Active; 'I' for Inactive)
REMARK    1  A    between atoms: C_3  and  C_1 
REMARK       I    between atoms: N_4  and  C_1 
REMARK    2  A    between atoms: N_2  and  C_7 
REMARK    3  A    between atoms: C_16  and  N_4 
ROOT
ATOM      1  C   UNL d   1      29.818  17.129 -24.271  0.00  0.00     0.064 A 
ATOM      2  C   UNL d   1      29.930  17.924 -24.061  0.00  0.00     0.019 A 
ATOM      3  C   UNL d   1      30.380  16.762 -24.764  0.00  0.00     0.019 A 
ATOM      4  C   UNL d   1      31.138  17.973 -24.823  0.00  0.00     0.085 A 
ATOM      5  C   UNL d   1      30.587  18.343 -24.336  0.00  0.00     0.021 A 
ATOM      6  C   UNL d   1      31.036  17.182 -25.038  0.00  0.00     0.021 A 
ENDROOT
BRANCH   4   7
ATOM      7  N   UNL d   1      31.794  18.393 -25.097  0.00  0.00    -0.208 NA
ATOM      8  C   UNL d   1      32.519  18.308 -24.732  0.00  0.00     0.285 C 
ATOM      9  O   UNL d   1      33.176  18.727 -25.006  0.00  0.00    -0.265 OA
BRANCH   8  10
ATOM     10  C   UNL d   1      32.594  17.800 -24.087  0.00  0.00     0.087 A 
ATOM     11  S   UNL d   1      32.705  16.990 -24.030  0.00  0.00    -0.082 SA
ATOM     12  C   UNL d   1      32.741  16.786 -23.241  0.00  0.00     0.036 A 
ATOM     13  C   UNL d   1      32.651  17.475 -22.790  0.00  0.00     0.008 A 
ATOM     14  C   UNL d   1      32.560  18.101 -23.320  0.00  0.00     0.012 A 
ENDBRANCH   8  10
ENDBRANCH   4   7
BRANCH   1  15
ATOM     15  N   UNL d   1      29.162  16.710 -23.997  0.00  0.00    -0.301 N 
ATOM     16  C   UNL d   1      28.544  17.102 -23.635  0.00  0.00     0.100 A 
ATOM     17  C   UNL d   1      27.888  16.683 -23.361  0.00  0.00     0.100 A 
ATOM     18  N   UNL d   1      27.851  15.871 -23.449  0.00  0.00    -0.299 N 
ATOM     19  C   UNL d   1      28.473  15.473 -23.813  0.00  0.00     0.100 A 
ATOM     20  C   UNL d   1      27.196  15.453 -23.175  0.00  0.00     0.100 C 
ATOM     21  C   UNL d   1      29.128  15.892 -24.087  0.00  0.00     0.100 A 
ENDBRANCH   1  15
TORSDOF 3
ENDMDL
MODEL 3
REMARK VINA RESULT:      -0.5      2.632      4.742
REMARK  3 active torsions:
REMARK  status: ('A' for Active; 'I' for Inactive)
REMARK    1  A    between atoms: C_3  and  C_1 
REMARK       I    between atoms: N_4  and  C_1 
REMARK    2  A    between atoms: N_2  and  C_7 
REMARK    3  A    between atoms: C_16  and  N_4 
ROOT
ATOM      1  C   UNL d   1      29.624  15.846 -23.983  0.00  0.00     0.064 A 
ATOM      2  C   UNL d   1      30.221  15.551 -23.489  0.00  0.00     0.019 A 
ATOM      3  C   UNL d   1      29.818  16.057 -24.765  0.00  0.00     0.019 A 
ATOM      4  C   UNL d   1      31.179  15.676 -24.541  0.00  0.00     0.085 A 
ATOM      5  C   UNL d   1      30.994  15.466 -23.767  0.00  0.00     0.021 A 
ATOM      6  C   UNL d   1      30.592  15.972 -25.042  0.00  0.00     0.021 A 
ENDROOT
BRANCH   4   7
ATOM      7  N   UNL d   1      31.952  15.592 -24.819  0.00  0.00    -0.208 NA
ATOM      8  C   UNL d   1      32.468  16.225 -24.800  0.00  0.00     0.285 C 
ATOM      9  O   UNL d   1      33.241  16.141 -25.077  0.00  0.00    -0.265 OA
BRANCH   8  10
ATOM     10  C   UNL d   1      32.213  16.950 -24.502  0.00  0.00     0.087 A 
ATOM     11  S   UNL d   1      31.772  17.558 -24.829  0.00  0.00    -0.082 SA
ATOM     12  C   UNL d   1      31.688  18.149 -24.273  0.00  0.00     0.036 A 
ATOM     13  C   UNL d   1      32.082  17.913 -23.583  0.00  0.00     0.008 A 
ATOM     14  C   UNL d   1      32.405  17.169 -23.731  0.00  0.00     0.012 A 
ENDBRANCH   8  10
ENDBRANCH   4   7
BRANCH   1  15
ATOM     15  N   UNL d   1      28.851  15.930 -23.706  0.00  0.00    -0.301 N 
ATOM     16  C   UNL d   1      28.677  16.487 -23.134  0.00  0.00     0.100 A 
ATOM     17  C   UNL d   1      27.904  16.571 -22.857  0.00  0.00     0.100 A 
ATOM     18  N   UNL d   1      27.306  16.099 -23.151  0.00  0.00    -0.299 N 
ATOM     19  C   UNL d   1      27.478  15.537 -23.728  0.00  0.00     0.100 A 
ATOM     20  C   UNL d   1      26.534  16.183 -22.875  0.00  0.00     0.100 C 
ATOM     21  C   UNL d   1      28.251  15.453 -24.006  0.00  0.00     0.100 A 
ENDBRANCH   1  15
TORSDOF 3
ENDMDL
MODEL 4
REMARK VINA RESULT:      -0.2      4.092      5.858
REMARK  3 active torsions:
REMARK  status: ('A' for Active; 'I' for Inactive)
REMARK    1  A    between atoms: C_3  and  C_1 
REMARK       I    between atoms: N_4  and  C_1 
REMARK    2  A    between atoms: N_2  and  C_7 
REMARK    3  A    between atoms: C_16  and  N_4 
ROOT
ATOM      1  C   UNL d   1      32.593  23.250 -19.244  0.00  0.00     0.064 A 
ATOM      2  C   UNL d   1      31.929  23.544 -19.644  0.00  0.00     0.019 A 
ATOM      3  C   UNL d   1      33.241  22.976 -19.689  0.00  0.00     0.019 A 
ATOM      4  C   UNL d   1      32.555  23.292 -20.904  0.00  0.00     0.085 A 
ATOM      5  C   UNL d   1      31.910  23.564 -20.470  0.00  0.00     0.021 A 
ATOM      6  C   UNL d   1      33.222  22.996 -20.514  0.00  0.00     0.021 A 
ENDROOT
BRANCH   4   7
ATOM      7  N   UNL d   1      32.536  23.312 -21.728  0.00  0.00    -0.208 NA
ATOM      8  C   UNL d   1      32.508  22.618 -22.157  0.00  0.00     0.285 C 
ATOM      9  O   UNL d   1      32.489  22.639 -22.983  0.00  0.00    -0.265 OA
BRANCH   8  10
ATOM     10  C   UNL d   1      32.499  21.895 -21.763  0.00  0.00     0.087 A 
ATOM     11  S   UNL d   1      31.906  21.482 -21.377  0.00  0.00    -0.082 SA
ATOM     12  C   UNL d   1      32.217  20.787 -21.085  0.00  0.00     0.036 A 
ATOM     13  C   UNL d   1      33.020  20.757 -21.289  0.00  0.00     0.008 A 
ATOM     14  C   UNL d   1      33.189  21.446 -21.709  0.00  0.00     0.012 A 
ENDBRANCH   8  10
ENDBRANCH   4   7
BRANCH   1  15
ATOM     15  N   UNL d   1      32.612  23.229 -18.418  0.00  0.00    -0.301 N 
ATOM     16  C   UNL d   1      33.206  22.824 -18.030  0.00  0.00     0.100 A 
ATOM     17  C   UNL d   1      33.225  22.803 -17.205  0.00  0.00     0.100 A 
ATOM     18  N   UNL d   1      32.650  23.187 -16.769  0.00  0.00    -0.299 N 
ATOM     19  C   UNL d   1      32.051  23.597 -17.158  0.00  0.00     0.100 A 
ATOM     20  C   UNL d   1      32.670  23.167 -15.946  0.00  0.00     0.100 C 
ATOM     21  C   UNL d   1      32.032  23.618 -17.983  0.00  0.00     0.100 A 
ENDBRANCH   1  15
TORSDOF 3
ENDMDL
