MODEL 1
REMARK VINA RESULT:      -2.9      0.000      0.000
REMARK  4 active torsions:
REMARK  status: ('A' for Active; 'I' for Inactive)
REMARK    1  A    between atoms: C_10  and  N_1 
REMARK    2  A    between atoms: C_14  and  C_10 
REMARK    3  A    between atoms: O_16  and  C_12 
REMARK    4  A    between atoms: C_19  and  O_16 
ROOT
ATOM      1  N   UNL d   1      58.040  -0.526  29.941  0.00  0.00    -0.260 N 
ATOM      2  C   UNL d   1      58.489  -1.183  29.881  0.00  0.00     0.174 A 
ATOM      3  C   UNL d   1      58.126   0.244  29.735  0.00  0.00     0.348 A 
ATOM      4  O   UNL d   1      59.215  -1.351  29.588  0.00  0.00    -0.314 OA
ATOM      5  N   UNL d   1      58.698   0.666  29.385  0.00  0.00    -0.216 NA
ATOM      6  C   UNL d   1      59.428   0.500  29.090  0.00  0.00     0.137 A 
ATOM      7  C   UNL d   1      58.697  -0.110  29.553  0.00  0.00     0.079 A 
ATOM      8  C   UNL d   1      59.789  -0.917  29.234  0.00  0.00     0.116 A 
ATOM      9  C   UNL d   1      59.873  -0.155  29.030  0.00  0.00     0.025 A 
ATOM     10  O   UNL d   1      57.494   0.680  29.927  0.00  0.00    -0.245 OA
ATOM     11  C   UNL d   1      60.380  -1.440  29.080  0.00  0.00     0.122 A 
ATOM     12  C   UNL d   1      58.260  -1.909  30.142  0.00  0.00     0.055 C 
ATOM     13  C   UNL d   1      60.544   0.097  28.672  0.00  0.00    -0.000 A 
ATOM     14  C   UNL d   1      61.131  -0.425  28.519  0.00  0.00     0.002 A 
ATOM     15  C   UNL d   1      61.049  -1.195  28.724  0.00  0.00     0.027 A 
ENDROOT
BRANCH   1  16
ATOM     16  C   UNL d   1      57.285  -0.480  30.273  0.00  0.00     0.082 C 
BRANCH  16  17
ATOM     17  C   UNL d   1      57.204  -0.373  31.095  0.00  0.00     0.017 A 
ATOM     18  C   UNL d   1      57.499   0.314  31.454  0.00  0.00     0.002 A 
ATOM     19  C   UNL d   1      57.419   0.421  32.275  0.00  0.00     0.000 A 
ATOM     20  C   UNL d   1      57.043  -0.162  32.735  0.00  0.00     0.000 A 
ATOM     21  C   UNL d   1      56.750  -0.850  32.367  0.00  0.00     0.000 A 
ATOM     22  C   UNL d   1      56.831  -0.953  31.553  0.00  0.00     0.002 A 
ENDBRANCH  16  17
ENDBRANCH   1  16
BRANCH  11  23
ATOM     23  O   UNL d   1      60.291  -2.234  29.292  0.00  0.00    -0.303 OA
BRANCH  23  24
ATOM     24  C   UNL d   1      60.831  -2.794  29.018  0.00  0.00     0.123 C 
ATOM     25  C   UNL d   1      60.914  -3.515  29.423  0.00  0.00     0.029 C 
ENDBRANCH  23  24
ENDBRANCH  11  23
TORSDOF 4
ENDMDL
MODEL 2
REMARK VINA RESULT:      -2.4      1.817      2.513
REMARK  4 active torsions:
REMARK  status: ('A' for Active; 'I' for Inactive)
REMARK    1  A    between atoms: C_10  and  N_1 
REMARK    2  A    between atoms: C_14  and  C_10 
REMARK    3  A    between atoms: O_16  and  C_12 
REMARK    4  A    between atoms: C_19  and  O_16 
ROOT
ATOM      1  N   UNL d   1      57.261   0.470  31.453  0.00  0.00    -0.260 N 
ATOM      2  C   UNL d   1      57.955   0.559  31.838  0.00  0.00     0.174 A 
ATOM      3  C   UNL d   1      57.043   0.351  30.692  0.00  0.00     0.348 A 
ATOM      4  O   UNL d   1      58.727   0.567  31.624  0.00  0.00    -0.314 OA
ATOM      5  N   UNL d   1      57.433   0.273  30.007  0.00  0.00    -0.216 NA
ATOM      6  C   UNL d   1      58.208   0.281  29.788  0.00  0.00     0.137 A 
ATOM      7  C   UNL d   1      57.737   0.391  30.731  0.00  0.00     0.079 A 
ATOM      8  C   UNL d   1      59.114   0.487  30.927  0.00  0.00     0.116 A 
ATOM      9  C   UNL d   1      58.898   0.369  30.173  0.00  0.00     0.025 A 
ATOM     10  O   UNL d   1      56.258   0.300  30.607  0.00  0.00    -0.245 OA
ATOM     11  C   UNL d   1      59.894   0.552  31.114  0.00  0.00     0.122 A 
ATOM     12  C   UNL d   1      58.017   0.675  32.632  0.00  0.00     0.055 C 
ATOM     13  C   UNL d   1      59.450   0.315  29.596  0.00  0.00    -0.000 A 
ATOM     14  C   UNL d   1      60.226   0.380  29.784  0.00  0.00     0.002 A 
ATOM     15  C   UNL d   1      60.448   0.499  30.544  0.00  0.00     0.027 A 
ENDROOT
BRANCH   1  16
ATOM     16  C   UNL d   1      56.509   0.482  31.796  0.00  0.00     0.082 C 
BRANCH  16  17
ATOM     17  C   UNL d   1      56.320  -0.073  32.388  0.00  0.00     0.017 A 
ATOM     18  C   UNL d   1      56.148   0.186  33.157  0.00  0.00     0.002 A 
ATOM     19  C   UNL d   1      55.959  -0.369  33.748  0.00  0.00     0.000 A 
ATOM     20  C   UNL d   1      55.942  -1.180  33.567  0.00  0.00     0.000 A 
ATOM     21  C   UNL d   1      56.116  -1.432  32.792  0.00  0.00     0.000 A 
ATOM     22  C   UNL d   1      56.303  -0.880  32.208  0.00  0.00     0.002 A 
ENDBRANCH  16  17
ENDBRANCH   1  16
BRANCH  11  23
ATOM     23  O   UNL d   1      60.119   0.675  31.899  0.00  0.00    -0.303 OA
BRANCH  23  24
ATOM     24  C   UNL d   1      60.916   0.644  32.107  0.00  0.00     0.123 C 
ATOM     25  C   UNL d   1      61.132   0.668  32.909  0.00  0.00     0.029 C 
ENDBRANCH  23  24
ENDBRANCH  11  23
TORSDOF 4
ENDMDL
MODEL 3
REMARK VINA RESULT:      -2.4      1.130      3.812
REMARK  4 active torsions:
REMARK  status: ('A' for Active; 'I' for Inactive)
REMARK    1  A    between atoms: C_10  and  N_1 
REMARK    2  A    between atoms: C_14  and  C_10 
REMARK    3  A    between atoms: O_16  and  C_12 
REMARK    4  A    between atoms: C_19  and  O_16 
ROOT
ATOM      1  N   UNL d   1      58.727  -1.394  29.175  0.00  0.00    -0.260 N 
ATOM      2  C   UNL d   1      58.150  -1.582  29.695  0.00  0.00     0.174 A 
ATOM      3  C   UNL d   1      59.230  -0.778  29.081  0.00  0.00     0.348 A 
ATOM      4  O   UNL d   1      57.832  -1.233  30.342  0.00  0.00    -0.314 OA
ATOM      5  N   UNL d   1      59.361  -0.100  29.471  0.00  0.00    -0.216 NA
ATOM      6  C   UNL d   1      59.043   0.252  30.121  0.00  0.00     0.137 A 
ATOM      7  C   UNL d   1      58.829  -0.666  29.638  0.00  0.00     0.079 A 
ATOM      8  C   UNL d   1      57.970  -0.546  30.730  0.00  0.00     0.116 A 
ATOM      9  C   UNL d   1      58.469   0.063  30.637  0.00  0.00     0.025 A 
ATOM     10  O   UNL d   1      59.706  -0.870  28.455  0.00  0.00    -0.245 OA
ATOM     11  C   UNL d   1      57.446  -0.544  31.341  0.00  0.00     0.122 A 
ATOM     12  C   UNL d   1      57.716  -2.258  29.659  0.00  0.00     0.055 C 
ATOM     13  C   UNL d   1      58.455   0.681  31.146  0.00  0.00    -0.000 A 
ATOM     14  C   UNL d   1      57.933   0.682  31.753  0.00  0.00     0.002 A 
ATOM     15  C   UNL d   1      57.428   0.068  31.851  0.00  0.00     0.027 A 
ENDROOT
BRANCH   1  16
ATOM     16  C   UNL d   1      58.969  -1.850  28.530  0.00  0.00     0.082 C 
BRANCH  16  17
ATOM     17  C   UNL d   1      59.432  -2.529  28.659  0.00  0.00     0.017 A 
ATOM     18  C   UNL d   1      59.080  -3.280  28.641  0.00  0.00     0.002 A 
ATOM     19  C   UNL d   1      59.543  -3.959  28.770  0.00  0.00     0.000 A 
ATOM     20  C   UNL d   1      60.358  -3.885  28.918  0.00  0.00     0.000 A 
ATOM     21  C   UNL d   1      60.705  -3.127  28.935  0.00  0.00     0.000 A 
ATOM     22  C   UNL d   1      60.243  -2.456  28.807  0.00  0.00     0.002 A 
ENDBRANCH  16  17
ENDBRANCH   1  16
BRANCH  11  23
ATOM     23  O   UNL d   1      56.927  -1.178  31.438  0.00  0.00    -0.303 OA
BRANCH  23  24
ATOM     24  C   UNL d   1      56.275  -1.103  31.937  0.00  0.00     0.123 C 
ATOM     25  C   UNL d   1      56.173  -1.640  32.563  0.00  0.00     0.029 C 
ENDBRANCH  23  24
ENDBRANCH  11  23
TORSDOF 4
ENDMDL
MODEL 4
REMARK VINA RESULT:      -2.0      2.048      3.057
REMARK  4 active torsions:
REMARK  status: ('A' for Active; 'I' for Inactive)
REMARK    1  A    between atoms: C_10  and  N_1 
REMARK    2  A    between atoms: C_14  and  C_10 
REMARK    3  A    between atoms: O_16  and  C_12 
REMARK    4  A    between atoms: C_19  and  O_16 
ROOT
ATOM      1  N   UNL d   1      57.292   0.569  32.385  0.00  0.00    -0.260 N 
ATOM      2  C   UNL d   1      57.508   0.529  31.618  0.00  0.00     0.174 A 
ATOM      3  C   UNL d   1      57.678   0.631  33.084  0.00  0.00     0.348 A 
ATOM      4  O   UNL d   1      58.206   0.534  31.223  0.00  0.00    -0.314 OA
ATOM      5  N   UNL d   1      58.440   0.677  33.297  0.00  0.00    -0.216 NA
ATOM      6  C   UNL d   1      59.142   0.682  32.903  0.00  0.00     0.137 A 
ATOM      7  C   UNL d   1      58.140   0.617  32.564  0.00  0.00     0.079 A 
ATOM      8  C   UNL d   1      58.973   0.581  31.446  0.00  0.00     0.116 A 
ATOM      9  C   UNL d   1      59.356   0.642  32.138  0.00  0.00     0.025 A 
ATOM     10  O   UNL d   1      57.184   0.649  33.702  0.00  0.00    -0.245 OA
ATOM     11  C   UNL d   1      59.392   0.555  30.760  0.00  0.00     0.122 A 
ATOM     12  C   UNL d   1      56.989   0.468  31.006  0.00  0.00     0.055 C 
ATOM     13  C   UNL d   1      60.156   0.678  32.159  0.00  0.00    -0.000 A 
ATOM     14  C   UNL d   1      60.570   0.652  31.474  0.00  0.00     0.002 A 
ATOM     15  C   UNL d   1      60.187   0.590  30.773  0.00  0.00     0.027 A 
ENDROOT
BRANCH   1  16
ATOM     16  C   UNL d   1      56.518   0.554  32.674  0.00  0.00     0.082 C 
BRANCH  16  17
ATOM     17  C   UNL d   1      56.172  -0.174  32.882  0.00  0.00     0.017 A 
ATOM     18  C   UNL d   1      56.233  -0.822  32.369  0.00  0.00     0.002 A 
ATOM     19  C   UNL d   1      55.887  -1.551  32.577  0.00  0.00     0.000 A 
ATOM     20  C   UNL d   1      55.481  -1.627  33.299  0.00  0.00     0.000 A 
ATOM     21  C   UNL d   1      55.425  -0.970  33.810  0.00  0.00     0.000 A 
ATOM     22  C   UNL d   1      55.768  -0.250  33.601  0.00  0.00     0.002 A 
ENDBRANCH  16  17
ENDBRANCH   1  16
BRANCH  11  23
ATOM     23  O   UNL d   1      58.993   0.492  30.039  0.00  0.00    -0.303 OA
BRANCH  23  24
ATOM     24  C   UNL d   1      59.419   0.497  29.333  0.00  0.00     0.123 C 
ATOM     25  C   UNL d   1      59.031   0.681  28.621  0.00  0.00     0.029 C 
ENDBRANCH  23  24
ENDBRANCH  11  23
TORSDOF 4
ENDMDL
MODEL 5
REMARK VINA RESULT:      -1.9      1.534      4.334
REMARK  4 active torsions:
REMARK  status: ('A' for Active; 'I' for Inactive)
REMARK    1  A    between atoms: C_10  and  N_1 
REMARK    2  A    between atoms: C_14  and  C_10 
REMARK    3  A    between atoms: O_16  and  C_12 
REMARK    4  A    between atoms: C_19  and  O_16 
ROOT
ATOM      1  N   UNL d   1      58.219   0.678  30.780  0.00  0.00    -0.260 N 
ATOM      2  C   UNL d   1      58.484   0.677  31.533  0.00  0.00     0.174 A 
ATOM      3  C   UNL d   1      57.499   0.680  30.429  0.00  0.00     0.348 A 
ATOM      4  O   UNL d   1      58.139   0.676  32.257  0.00  0.00    -0.314 OA
ATOM      5  N   UNL d   1      56.751   0.680  30.691  0.00  0.00    -0.216 NA
ATOM      6  C   UNL d   1      56.403   0.680  31.417  0.00  0.00     0.137 A 
ATOM      7  C   UNL d   1      57.420   0.679  31.120  0.00  0.00     0.079 A 
ATOM      8  C   UNL d   1      57.381   0.676  32.514  0.00  0.00     0.116 A 
ATOM      9  C   UNL d   1      56.668   0.678  32.166  0.00  0.00     0.025 A 
ATOM     10  O   UNL d   1      57.548   0.681  29.639  0.00  0.00    -0.245 OA
ATOM     11  C   UNL d   1      57.434   0.675  33.317  0.00  0.00     0.122 A 
ATOM     12  C   UNL d   1      59.262   0.675  31.736  0.00  0.00     0.055 C 
ATOM     13  C   UNL d   1      56.000   0.678  32.608  0.00  0.00    -0.000 A 
ATOM     14  C   UNL d   1      56.055   0.676  33.407  0.00  0.00     0.002 A 
ATOM     15  C   UNL d   1      56.773   0.675  33.762  0.00  0.00     0.027 A 
ENDROOT
BRANCH   1  16
ATOM     16  C   UNL d   1      58.687   0.679  30.099  0.00  0.00     0.082 C 
BRANCH  16  17
ATOM     17  C   UNL d   1      59.071  -0.022  29.865  0.00  0.00     0.017 A 
ATOM     18  C   UNL d   1      59.883  -0.116  30.007  0.00  0.00     0.002 A 
ATOM     19  C   UNL d   1      60.267  -0.816  29.773  0.00  0.00     0.000 A 
ATOM     20  C   UNL d   1      59.836  -1.421  29.398  0.00  0.00     0.000 A 
ATOM     21  C   UNL d   1      59.021  -1.319  29.259  0.00  0.00     0.000 A 
ATOM     22  C   UNL d   1      58.643  -0.624  29.492  0.00  0.00     0.002 A 
ENDBRANCH  16  17
ENDBRANCH   1  16
BRANCH  11  23
ATOM     23  O   UNL d   1      58.176   0.673  33.679  0.00  0.00    -0.303 OA
BRANCH  23  24
ATOM     24  C   UNL d   1      58.231   0.682  34.502  0.00  0.00     0.123 C 
ATOM     25  C   UNL d   1      58.977   0.622  34.863  0.00  0.00     0.029 C 
ENDBRANCH  23  24
ENDBRANCH  11  23
TORSDOF 4
ENDMDL
MODEL 6
REMARK VINA RESULT:      -1.6      1.101      2.135
REMARK  4 active torsions:
REMARK  status: ('A' for Active; 'I' for Inactive)
REMARK    1  A    between atoms: C_10  and  N_1 
REMARK    2  A    between atoms: C_14  and  C_10 
REMARK    3  A    between atoms: O_16  and  C_12 
REMARK    4  A    between atoms: C_19  and  O_16 
ROOT
ATOM      1  N   UNL d   1      57.432  -0.462  30.947  0.00  0.00    -0.260 N 
ATOM      2  C   UNL d   1      58.037  -0.110  30.563  0.00  0.00     0.174 A 
ATOM      3  C   UNL d   1      57.163  -1.213  31.021  0.00  0.00     0.348 A 
ATOM      4  O   UNL d   1      58.632  -0.362  30.089  0.00  0.00    -0.314 OA
ATOM      5  N   UNL d   1      57.393  -1.917  30.739  0.00  0.00    -0.216 NA
ATOM      6  C   UNL d   1      57.990  -2.172  30.263  0.00  0.00     0.137 A 
ATOM      7  C   UNL d   1      57.726  -1.207  30.612  0.00  0.00     0.079 A 
ATOM      8  C   UNL d   1      58.858  -1.077  29.809  0.00  0.00     0.116 A 
ATOM      9  C   UNL d   1      58.592  -1.820  29.882  0.00  0.00     0.025 A 
ATOM     10  O   UNL d   1      56.520  -1.260  31.481  0.00  0.00    -0.245 OA
ATOM     11  C   UNL d   1      59.508  -0.928  29.359  0.00  0.00     0.122 A 
ATOM     12  C   UNL d   1      58.184   0.681  30.584  0.00  0.00     0.055 C 
ATOM     13  C   UNL d   1      58.966  -2.424  29.512  0.00  0.00    -0.000 A 
ATOM     14  C   UNL d   1      59.613  -2.274  29.065  0.00  0.00     0.002 A 
ATOM     15  C   UNL d   1      59.885  -1.524  28.988  0.00  0.00     0.027 A 
ENDROOT
BRANCH   1  16
ATOM     16  C   UNL d   1      56.868  -0.083  31.419  0.00  0.00     0.082 C 
BRANCH  16  17
ATOM     17  C   UNL d   1      57.037   0.063  32.221  0.00  0.00     0.017 A 
ATOM     18  C   UNL d   1      57.686   0.536  32.427  0.00  0.00     0.002 A 
ATOM     19  C   UNL d   1      57.855   0.682  33.229  0.00  0.00     0.000 A 
ATOM     20  C   UNL d   1      57.372   0.354  33.822  0.00  0.00     0.000 A 
ATOM     21  C   UNL d   1      56.721  -0.120  33.606  0.00  0.00     0.000 A 
ATOM     22  C   UNL d   1      56.557  -0.263  32.811  0.00  0.00     0.002 A 
ENDBRANCH  16  17
ENDBRANCH   1  16
BRANCH  11  23
ATOM     23  O   UNL d   1      59.786  -0.154  29.283  0.00  0.00    -0.303 OA
BRANCH  23  24
ATOM     24  C   UNL d   1      60.548  -0.017  29.000  0.00  0.00     0.123 C 
ATOM     25  C   UNL d   1      60.710   0.681  28.579  0.00  0.00     0.029 C 
ENDBRANCH  23  24
ENDBRANCH  11  23
TORSDOF 4
ENDMDL
MODEL 7
REMARK VINA RESULT:      -1.1      1.413      4.228
REMARK  4 active torsions:
REMARK  status: ('A' for Active; 'I' for Inactive)
REMARK    1  A    between atoms: C_10  and  N_1 
REMARK    2  A    between atoms: C_14  and  C_10 
REMARK    3  A    between atoms: O_16  and  C_12 
REMARK    4  A    between atoms: C_19  and  O_16 
ROOT
ATOM      1  N   UNL d   1      58.727   0.546  30.438  0.00  0.00    -0.260 N 
ATOM      2  C   UNL d   1      57.975   0.521  30.705  0.00  0.00     0.174 A 
ATOM      3  C   UNL d   1      59.451   0.599  30.776  0.00  0.00     0.348 A 
ATOM      4  O   UNL d   1      57.628   0.538  31.427  0.00  0.00    -0.314 OA
ATOM      5  N   UNL d   1      59.715   0.648  31.522  0.00  0.00    -0.216 NA
ATOM      6  C   UNL d   1      59.369   0.665  32.249  0.00  0.00     0.137 A 
ATOM      7  C   UNL d   1      58.963   0.598  31.272  0.00  0.00     0.079 A 
ATOM      8  C   UNL d   1      57.903   0.587  32.178  0.00  0.00     0.116 A 
ATOM      9  C   UNL d   1      58.620   0.640  32.513  0.00  0.00     0.025 A 
ATOM     10  O   UNL d   1      60.035   0.604  30.242  0.00  0.00    -0.245 OA
ATOM     11  C   UNL d   1      57.245   0.576  32.641  0.00  0.00     0.122 A 
ATOM     12  C   UNL d   1      57.330   0.465  30.228  0.00  0.00     0.055 C 
ATOM     13  C   UNL d   1      58.694   0.681  33.309  0.00  0.00    -0.000 A 
ATOM     14  C   UNL d   1      58.038   0.670  33.768  0.00  0.00     0.002 A 
ATOM     15  C   UNL d   1      57.312   0.617  33.434  0.00  0.00     0.027 A 
ENDROOT
BRANCH   1  16
ATOM     16  C   UNL d   1      58.964   0.521  29.646  0.00  0.00     0.082 C 
BRANCH  16  17
ATOM     17  C   UNL d   1      59.084  -0.216  29.278  0.00  0.00     0.017 A 
ATOM     18  C   UNL d   1      58.445  -0.612  28.927  0.00  0.00     0.002 A 
ATOM     19  C   UNL d   1      58.564  -1.349  28.559  0.00  0.00     0.000 A 
ATOM     20  C   UNL d   1      59.323  -1.687  28.543  0.00  0.00     0.000 A 
ATOM     21  C   UNL d   1      59.961  -1.283  28.899  0.00  0.00     0.000 A 
ATOM     22  C   UNL d   1      59.839  -0.554  29.262  0.00  0.00     0.002 A 
ENDBRANCH  16  17
ENDBRANCH   1  16
BRANCH  11  23
ATOM     23  O   UNL d   1      56.499   0.521  32.292  0.00  0.00    -0.303 OA
BRANCH  23  24
ATOM     24  C   UNL d   1      55.824   0.673  32.741  0.00  0.00     0.123 C 
ATOM     25  C   UNL d   1      55.255   0.076  32.841  0.00  0.00     0.029 C 
ENDBRANCH  23  24
ENDBRANCH  11  23
TORSDOF 4
ENDMDL
MODEL 8
REMARK VINA RESULT:      -0.9      8.037      9.396
REMARK  4 active torsions:
REMARK  status: ('A' for Active; 'I' for Inactive)
REMARK    1  A    between atoms: C_10  and  N_1 
REMARK    2  A    between atoms: C_14  and  C_10 
REMARK    3  A    between atoms: O_16  and  C_12 
REMARK    4  A    between atoms: C_19  and  O_16 
ROOT
ATOM      1  N   UNL d   1      59.158  -9.817  29.790  0.00  0.00    -0.260 N 
ATOM      2  C   UNL d   1      58.782  -9.817  30.494  0.00  0.00     0.174 A 
ATOM      3  C   UNL d   1      59.923  -9.816  29.552  0.00  0.00     0.348 A 
ATOM      4  O   UNL d   1      59.012  -9.816  31.262  0.00  0.00    -0.314 OA
ATOM      5  N   UNL d   1      60.622  -9.815  29.926  0.00  0.00    -0.216 NA
ATOM      6  C   UNL d   1      60.856  -9.814  30.696  0.00  0.00     0.137 A 
ATOM      7  C   UNL d   1      59.896  -9.816  30.248  0.00  0.00     0.079 A 
ATOM      8  C   UNL d   1      59.722  -9.815  31.631  0.00  0.00     0.116 A 
ATOM      9  C   UNL d   1      60.480  -9.814  31.396  0.00  0.00     0.025 A 
ATOM     10  O   UNL d   1      59.994  -9.816  28.764  0.00  0.00    -0.245 OA
ATOM     11  C   UNL d   1      59.548  -9.815  32.417  0.00  0.00     0.122 A 
ATOM     12  C   UNL d   1      57.981  -9.818  30.576  0.00  0.00     0.055 C 
ATOM     13  C   UNL d   1      61.073  -9.813  31.934  0.00  0.00    -0.000 A 
ATOM     14  C   UNL d   1      60.897  -9.813  32.716  0.00  0.00     0.002 A 
ATOM     15  C   UNL d   1      60.133  -9.814  32.957  0.00  0.00     0.027 A 
ENDROOT
BRANCH   1  16
ATOM     16  C   UNL d   1      58.798  -9.818  29.046  0.00  0.00     0.082 C 
BRANCH  16  17
ATOM     17  C   UNL d   1      58.254  -9.218  28.853  0.00  0.00     0.017 A 
ATOM     18  C   UNL d   1      58.516  -8.436  28.761  0.00  0.00     0.002 A 
ATOM     19  C   UNL d   1      57.972  -7.836  28.568  0.00  0.00     0.000 A 
ATOM     20  C   UNL d   1      57.168  -8.021  28.467  0.00  0.00     0.000 A 
ATOM     21  C   UNL d   1      56.913  -8.809  28.561  0.00  0.00     0.000 A 
ATOM     22  C   UNL d   1      57.454  -9.401  28.752  0.00  0.00     0.002 A 
ENDBRANCH  16  17
ENDBRANCH   1  16
BRANCH  11  23
ATOM     23  O   UNL d   1      58.759  -9.816  32.662  0.00  0.00    -0.303 OA
BRANCH  23  24
ATOM     24  C   UNL d   1      58.576  -9.691  33.456  0.00  0.00     0.123 C 
ATOM     25  C   UNL d   1      57.782  -9.705  33.701  0.00  0.00     0.029 C 
ENDBRANCH  23  24
ENDBRANCH  11  23
TORSDOF 4
ENDMDL
