MODEL 1
REMARK VINA RESULT:      99.0      0.000      0.000
REMARK  3 active torsions:
REMARK  status: ('A' for Active; 'I' for Inactive)
REMARK    1  A    between atoms: C_9  and  C_2 
REMARK    2  A    between atoms: C_10  and  C_6 
REMARK    3  A    between atoms: O_18  and  C_9 
ROOT
ATOM      1  C   UNL d   1      59.336  48.238  50.911  0.00  0.00     0.044 A 
ATOM      2  C   UNL d   1      58.110  48.777  50.768  0.00  0.00     0.113 A 
ATOM      3  C   UNL d   1      58.914  48.954  50.824  0.00  0.00     0.116 A 
ATOM      4  C   UNL d   1      58.783  47.616  50.908  0.00  0.00     0.112 A 
ATOM      5  S   UNL d   1      58.023  47.951  50.819  0.00  0.00    -0.061 SA
ATOM      6  C   UNL d   1      60.134  48.071  50.992  0.00  0.00     0.011 A 
ATOM      7  N   UNL d   1      59.038  46.849  50.985  0.00  0.00    -0.239 NA
ATOM      8  C   UNL d   1      60.384  47.297  51.068  0.00  0.00     0.018 A 
ATOM      9  C   UNL d   1      59.841  46.686  51.066  0.00  0.00     0.082 A 
ATOM     10  N   UNL d   1      59.245  49.708  50.798  0.00  0.00    -0.147 N 
ATOM     11  C   UNL d   1      61.192  47.142  51.149  0.00  0.00     0.002 A 
ATOM     12  C   UNL d   1      60.097  45.908  51.143  0.00  0.00     0.019 A 
ATOM     13  C   UNL d   1      61.439  46.360  51.226  0.00  0.00     0.000 A 
ATOM     14  C   UNL d   1      60.891  45.743  51.223  0.00  0.00     0.002 A 
ENDROOT
BRANCH   6  15
ATOM     15  C   UNL d   1      60.675  48.693  50.994  0.00  0.00     0.030 A 
ATOM     16  S   UNL d   1      60.894  49.156  51.642  0.00  0.00    -0.086 SA
ATOM     17  C   UNL d   1      61.450  49.708  51.380  0.00  0.00     0.035 A 
ATOM     18  C   UNL d   1      61.576  49.589  50.573  0.00  0.00     0.007 A 
ATOM     19  C   UNL d   1      61.097  48.961  50.334  0.00  0.00     0.007 A 
ENDBRANCH   6  15
BRANCH   2  20
ATOM     20  C   UNL d   1      57.497  49.322  50.676  0.00  0.00     0.303 C 
ATOM     21  O   UNL d   1      57.123  49.638  51.338  0.00  0.00    -0.259 OA
BRANCH  20  22
ATOM     22  O   UNL d   1      57.262  49.545  49.923  0.00  0.00    -0.295 OA
ATOM     23  C   UNL d   1      56.458  49.595  49.744  0.00  0.00     0.185 C 
ENDBRANCH  20  22
ENDBRANCH   2  20
TORSDOF 3
ENDMDL
