MODEL 1
REMARK VINA RESULT:      28.6      0.000      0.000
REMARK  3 active torsions:
REMARK  status: ('A' for Active; 'I' for Inactive)
REMARK    1  A    between atoms: N_2  and  C_1 
REMARK    2  A    between atoms: C_5  and  C_4 
REMARK       I    between atoms: N_6  and  C_5 
REMARK    3  A    between atoms: C_9  and  N_6 
ROOT
ATOM      1  C   UNL d   1     -55.354 -99.172 -45.268  0.00  0.00     0.285 C 
ATOM      2  N   UNL d   1     -54.757 -99.721 -45.114  0.00  0.00    -0.205 NA
ATOM      3  O   UNL d   1     -55.373 -98.755 -45.961  0.00  0.00    -0.265 OA
ENDROOT
BRANCH   1   4
ATOM      4  C   UNL d   1     -55.947 -99.035 -44.718  0.00  0.00     0.089 A 
ATOM      5  S   UNL d   1     -56.729 -99.076 -44.878  0.00  0.00    -0.059 SA
ATOM      6  C   UNL d   1     -57.167 -98.911 -44.217  0.00  0.00     0.156 A 
ATOM      7  C   UNL d   1     -56.619 -98.755 -43.595  0.00  0.00     0.031 A 
ATOM      8  C   UNL d   1     -55.855 -98.833 -43.911  0.00  0.00     0.014 A 
BRANCH   6   9
ATOM      9  N   UNL d   1     -57.971 -98.903 -44.178  0.00  0.00    -0.107 N 
ATOM     10  O   UNL d   1     -58.494 -99.020 -44.809  0.00  0.00    -0.531 OA
ATOM     11  O   UNL d   1     -58.376 -98.775 -43.502  0.00  0.00    -0.531 OA
ENDBRANCH   6   9
ENDBRANCH   1   4
BRANCH   2  12
ATOM     12  C   UNL d   1     -54.756-100.130 -44.410  0.00  0.00     0.112 A 
ATOM     13  C   UNL d   1     -54.801-100.954 -44.416  0.00  0.00     0.158 A 
ATOM     14  F   UNL d   1     -54.846-101.371 -45.134  0.00  0.00    -0.203 F 
ATOM     15  C   UNL d   1     -54.800-101.363 -43.712  0.00  0.00     0.031 A 
ATOM     16  C   UNL d   1     -54.755-100.953 -42.998  0.00  0.00     0.002 A 
ATOM     17  C   UNL d   1     -54.711-100.144 -42.981  0.00  0.00     0.002 A 
ATOM     18  C   UNL d   1     -54.711 -99.720 -43.696  0.00  0.00     0.021 A 
ENDBRANCH   2  12
TORSDOF 3
ENDMDL
