MODEL 1
REMARK VINA RESULT:      43.1      0.000      0.000
REMARK  8 active torsions:
REMARK  status: ('A' for Active; 'I' for Inactive)
REMARK    1  A    between atoms: S_7  and  C_3 
REMARK    2  A    between atoms: C_8  and  C_4 
REMARK    3  A    between atoms: C_14  and  S_7 
REMARK    4  A    between atoms: C_17  and  C_8 
REMARK    5  A    between atoms: C_9  and  C_14 
REMARK       I    between atoms: N_12  and  C_9 
REMARK    6  A    between atoms: C_15  and  N_12 
REMARK    7  A    between atoms: O_22  and  C_16 
REMARK    8  A    between atoms: C_23  and  O_22 
ROOT
ATOM      1  N   UNL d   1      45.279 -15.950  37.876  0.00  0.00    -0.149 N 
ATOM      2  C   UNL d   1      44.883 -15.662  37.234  0.00  0.00     0.303 A 
ATOM      3  C   UNL d   1      44.986 -16.597  38.295  0.00  0.00     0.220 A 
ATOM      4  C   UNL d   1      44.184 -16.023  37.004  0.00  0.00     0.161 A 
ATOM      5  N   UNL d   1      43.878 -16.661  37.404  0.00  0.00    -0.141 NA
ATOM      6  N   UNL d   1      44.274 -16.950  38.047  0.00  0.00    -0.121 NA
ATOM      7  O   UNL d   1      45.181 -15.009  36.813  0.00  0.00    -0.263 OA
ATOM      8  N   UNL d   1      45.998 -15.603  38.138  0.00  0.00    -0.037 N 
ENDROOT
BRANCH   3   9
ATOM      9  S   UNL d   1      45.381 -16.894  38.946  0.00  0.00    -0.041 SA
BRANCH   9  10
ATOM     10  C   UNL d   1      45.641 -17.684  38.946  0.00  0.00     0.101 C 
BRANCH  10  11
ATOM     11  C   UNL d   1      45.923 -18.011  39.640  0.00  0.00     0.286 C 
ATOM     12  N   UNL d   1      45.549 -17.837  40.354  0.00  0.00    -0.208 NA
ATOM     13  O   UNL d   1      46.576 -18.516  39.667  0.00  0.00    -0.265 OA
BRANCH  12  14
ATOM     14  C   UNL d   1      45.819 -18.156  41.055  0.00  0.00     0.085 A 
ATOM     15  C   UNL d   1      45.572 -17.861  41.793  0.00  0.00     0.021 A 
ATOM     16  C   UNL d   1      45.854 -18.194  42.494  0.00  0.00     0.026 A 
ATOM     17  C   UNL d   1      46.379 -18.817  42.488  0.00  0.00     0.100 A 
ATOM     18  C   UNL d   1      46.626 -19.112  41.750  0.00  0.00     0.026 A 
ATOM     19  C   UNL d   1      46.360 -18.799  41.062  0.00  0.00     0.021 A 
BRANCH  17  20
ATOM     20  O   UNL d   1      46.644 -19.129  43.175  0.00  0.00    -0.305 OA
BRANCH  20  21
ATOM     21  C   UNL d   1      46.139 -19.520  43.701  0.00  0.00     0.123 C 
ATOM     22  C   UNL d   1      46.399 -20.148  44.169  0.00  0.00     0.029 C 
ENDBRANCH  20  21
ENDBRANCH  17  20
ENDBRANCH  12  14
ENDBRANCH  10  11
ENDBRANCH   9  10
ENDBRANCH   3   9
BRANCH   4  23
ATOM     23  C   UNL d   1      43.771 -15.722  36.335  0.00  0.00     0.026 C 
BRANCH  23  24
ATOM     24  C   UNL d   1      42.960 -15.680  36.356  0.00  0.00     0.002 A 
ATOM     25  C   UNL d   1      42.490 -16.350  36.333  0.00  0.00     0.000 A 
ATOM     26  C   UNL d   1      41.685 -16.304  36.355  0.00  0.00     0.000 A 
ATOM     27  C   UNL d   1      41.316 -15.550  36.402  0.00  0.00     0.000 A 
ATOM     28  C   UNL d   1      41.779 -14.864  36.426  0.00  0.00     0.000 A 
ATOM     29  C   UNL d   1      42.590 -14.926  36.403  0.00  0.00     0.000 A 
ENDBRANCH  23  24
ENDBRANCH   4  23
TORSDOF 8
ENDMDL
MODEL 2
REMARK VINA RESULT:      43.6      1.524      2.225
REMARK  8 active torsions:
REMARK  status: ('A' for Active; 'I' for Inactive)
REMARK    1  A    between atoms: S_7  and  C_3 
REMARK    2  A    between atoms: C_8  and  C_4 
REMARK    3  A    between atoms: C_14  and  S_7 
REMARK    4  A    between atoms: C_17  and  C_8 
REMARK    5  A    between atoms: C_9  and  C_14 
REMARK       I    between atoms: N_12  and  C_9 
REMARK    6  A    between atoms: C_15  and  N_12 
REMARK    7  A    between atoms: O_22  and  C_16 
REMARK    8  A    between atoms: C_23  and  O_22 
ROOT
ATOM      1  N   UNL d   1      44.403 -16.822  38.575  0.00  0.00    -0.149 N 
ATOM      2  C   UNL d   1      44.317 -16.301  37.964  0.00  0.00     0.303 A 
ATOM      3  C   UNL d   1      45.104 -17.246  38.671  0.00  0.00     0.220 A 
ATOM      4  C   UNL d   1      44.937 -16.200  37.439  0.00  0.00     0.161 A 
ATOM      5  N   UNL d   1      45.636 -16.608  37.515  0.00  0.00    -0.141 NA
ATOM      6  N   UNL d   1      45.723 -17.129  38.127  0.00  0.00    -0.121 NA
ATOM      7  O   UNL d   1      43.608 -15.875  37.871  0.00  0.00    -0.263 OA
ATOM      8  N   UNL d   1      43.786 -16.949  39.131  0.00  0.00    -0.037 N 
ENDROOT
BRANCH   3   9
ATOM      9  S   UNL d   1      45.199 -17.774  39.287  0.00  0.00    -0.041 SA
BRANCH   9  10
ATOM     10  C   UNL d   1      45.963 -17.992  39.530  0.00  0.00     0.101 C 
BRANCH  10  11
ATOM     11  C   UNL d   1      46.050 -18.509  40.157  0.00  0.00     0.286 C 
ATOM     12  N   UNL d   1      46.010 -18.221  40.929  0.00  0.00    -0.208 NA
ATOM     13  O   UNL d   1      46.178 -19.319  40.060  0.00  0.00    -0.265 OA
BRANCH  12  14
ATOM     14  C   UNL d   1      46.096 -18.725  41.566  0.00  0.00     0.085 A 
ATOM     15  C   UNL d   1      45.725 -19.470  41.586  0.00  0.00     0.021 A 
ATOM     16  C   UNL d   1      45.820 -19.969  42.238  0.00  0.00     0.026 A 
ATOM     17  C   UNL d   1      46.276 -19.752  42.877  0.00  0.00     0.100 A 
ATOM     18  C   UNL d   1      46.646 -19.007  42.856  0.00  0.00     0.026 A 
ATOM     19  C   UNL d   1      46.563 -18.512  42.232  0.00  0.00     0.021 A 
BRANCH  17  20
ATOM     20  O   UNL d   1      46.359 -20.246  43.501  0.00  0.00    -0.305 OA
BRANCH  20  21
ATOM     21  C   UNL d   1      45.984 -20.103  44.224  0.00  0.00     0.123 C 
ATOM     22  C   UNL d   1      46.391 -20.140  44.941  0.00  0.00     0.029 C 
ENDBRANCH  20  21
ENDBRANCH  17  20
ENDBRANCH  12  14
ENDBRANCH  10  11
ENDBRANCH   9  10
ENDBRANCH   3   9
BRANCH   4  23
ATOM     23  C   UNL d   1      44.847 -15.657  36.801  0.00  0.00     0.026 C 
BRANCH  23  24
ATOM     24  C   UNL d   1      45.307 -14.987  36.784  0.00  0.00     0.002 A 
ATOM     25  C   UNL d   1      44.982 -14.236  36.819  0.00  0.00     0.000 A 
ATOM     26  C   UNL d   1      45.442 -13.575  36.801  0.00  0.00     0.000 A 
ATOM     27  C   UNL d   1      46.277 -13.653  36.745  0.00  0.00     0.000 A 
ATOM     28  C   UNL d   1      46.619 -14.406  36.708  0.00  0.00     0.000 A 
ATOM     29  C   UNL d   1      46.143 -15.066  36.727  0.00  0.00     0.000 A 
ENDBRANCH  23  24
ENDBRANCH   4  23
TORSDOF 8
ENDMDL
MODEL 3
REMARK VINA RESULT:      46.1      3.959      4.385
REMARK  8 active torsions:
REMARK  status: ('A' for Active; 'I' for Inactive)
REMARK    1  A    between atoms: S_7  and  C_3 
REMARK    2  A    between atoms: C_8  and  C_4 
REMARK    3  A    between atoms: C_14  and  S_7 
REMARK    4  A    between atoms: C_17  and  C_8 
REMARK    5  A    between atoms: C_9  and  C_14 
REMARK       I    between atoms: N_12  and  C_9 
REMARK    6  A    between atoms: C_15  and  N_12 
REMARK    7  A    between atoms: O_22  and  C_16 
REMARK    8  A    between atoms: C_23  and  O_22 
ROOT
ATOM      1  N   UNL d   1      45.916 -13.759  37.725  0.00  0.00    -0.149 N 
ATOM      2  C   UNL d   1      45.676 -14.133  37.050  0.00  0.00     0.303 A 
ATOM      3  C   UNL d   1      45.449 -13.774  38.404  0.00  0.00     0.220 A 
ATOM      4  C   UNL d   1      44.958 -14.529  37.051  0.00  0.00     0.161 A 
ATOM      5  N   UNL d   1      44.483 -14.556  37.709  0.00  0.00    -0.141 NA
ATOM      6  N   UNL d   1      44.723 -14.182  38.384  0.00  0.00    -0.121 NA
ATOM      7  O   UNL d   1      46.151 -14.116  36.367  0.00  0.00    -0.263 OA
ATOM      8  N   UNL d   1      46.647 -13.345  37.758  0.00  0.00    -0.037 N 
ENDROOT
BRANCH   3   9
ATOM      9  S   UNL d   1      45.686 -13.399  39.090  0.00  0.00    -0.041 SA
BRANCH   9  10
ATOM     10  C   UNL d   1      45.137 -12.953  39.527  0.00  0.00     0.101 C 
BRANCH  10  11
ATOM     11  C   UNL d   1      45.311 -12.752  40.299  0.00  0.00     0.286 C 
ATOM     12  N   UNL d   1      44.747 -12.873  40.888  0.00  0.00    -0.208 NA
ATOM     13  O   UNL d   1      46.036 -12.428  40.529  0.00  0.00    -0.265 OA
BRANCH  12  14
ATOM     14  C   UNL d   1      44.906 -12.677  41.664  0.00  0.00     0.085 A 
ATOM     15  C   UNL d   1      44.320 -12.361  42.164  0.00  0.00     0.021 A 
ATOM     16  C   UNL d   1      44.496 -12.168  42.948  0.00  0.00     0.026 A 
ATOM     17  C   UNL d   1      45.241 -12.279  43.256  0.00  0.00     0.100 A 
ATOM     18  C   UNL d   1      45.827 -12.595  42.756  0.00  0.00     0.026 A 
ATOM     19  C   UNL d   1      45.671 -12.787  41.995  0.00  0.00     0.021 A 
BRANCH  17  20
ATOM     20  O   UNL d   1      45.397 -12.087  44.017  0.00  0.00    -0.305 OA
BRANCH  20  21
ATOM     21  C   UNL d   1      45.391 -12.653  44.620  0.00  0.00     0.123 C 
ATOM     22  C   UNL d   1      46.035 -13.150  44.758  0.00  0.00     0.029 C 
ENDBRANCH  20  21
ENDBRANCH  17  20
ENDBRANCH  12  14
ENDBRANCH  10  11
ENDBRANCH   9  10
ENDBRANCH   3   9
BRANCH   4  23
ATOM     23  C   UNL d   1      44.708 -14.918  36.348  0.00  0.00     0.026 C 
BRANCH  23  24
ATOM     24  C   UNL d   1      44.050 -15.395  36.372  0.00  0.00     0.002 A 
ATOM     25  C   UNL d   1      44.107 -16.212  36.380  0.00  0.00     0.000 A 
ATOM     26  C   UNL d   1      43.452 -16.682  36.405  0.00  0.00     0.000 A 
ATOM     27  C   UNL d   1      42.690 -16.327  36.422  0.00  0.00     0.000 A 
ATOM     28  C   UNL d   1      42.618 -15.502  36.415  0.00  0.00     0.000 A 
ATOM     29  C   UNL d   1      43.287 -15.040  36.390  0.00  0.00     0.000 A 
ENDBRANCH  23  24
ENDBRANCH   4  23
TORSDOF 8
ENDMDL
