MODEL 1
REMARK VINA RESULT:      -3.2      0.000      0.000
REMARK  4 active torsions:
REMARK  status: ('A' for Active; 'I' for Inactive)
REMARK    1  A    between atoms: N_11  and  C_4 
REMARK    2  A    between atoms: C_22  and  N_15 
REMARK    3  A    between atoms: O_29  and  C_17 
REMARK    4  A    between atoms: C_21  and  C_22 
ROOT
ATOM      1  N   UNL d   1      56.482   0.675  32.936  0.00  0.00    -0.195 N 
ATOM      2  C   UNL d   1      56.325   0.677  33.727  0.00  0.00     0.168 A 
ATOM      3  C   UNL d   1      55.576   0.678  33.991  0.00  0.00     0.073 A 
ATOM      4  C   UNL d   1      57.236   0.674  32.690  0.00  0.00     0.153 A 
ATOM      5  N   UNL d   1      55.141   0.675  32.670  0.00  0.00    -0.143 NA
ATOM      6  C   UNL d   1      54.984   0.677  33.460  0.00  0.00     0.185 A 
ATOM      7  N   UNL d   1      56.926   0.678  34.250  0.00  0.00    -0.227 NA
ATOM      8  C   UNL d   1      55.421   0.681  34.773  0.00  0.00     0.007 A 
ATOM      9  N   UNL d   1      54.220   0.678  33.712  0.00  0.00    -0.225 NA
ATOM     10  C   UNL d   1      57.834   0.675  33.205  0.00  0.00     0.057 A 
ATOM     11  C   UNL d   1      54.671   0.682  35.037  0.00  0.00     0.019 A 
ATOM     12  C   UNL d   1      57.677   0.677  33.995  0.00  0.00     0.086 A 
ATOM     13  C   UNL d   1      54.063   0.681  34.503  0.00  0.00     0.083 A 
ATOM     14  C   UNL d   1      56.025   0.682  35.297  0.00  0.00     0.000 C 
ATOM     15  C   UNL d   1      58.306   0.678  34.537  0.00  0.00     0.021 C 
ATOM     16  C   UNL d   1      53.315   0.682  34.759  0.00  0.00     0.021 C 
ENDROOT
BRANCH   4  17
ATOM     17  N   UNL d   1      57.389   0.671  31.873  0.00  0.00    -0.286 N 
ATOM     18  C   UNL d   1      56.991   0.680  31.143  0.00  0.00     0.101 A 
ATOM     19  C   UNL d   1      57.411   0.672  30.433  0.00  0.00     0.100 A 
ATOM     20  N   UNL d   1      58.243   0.654  30.456  0.00  0.00    -0.300 N 
ATOM     21  C   UNL d   1      58.643   0.646  31.169  0.00  0.00     0.100 A 
ATOM     22  C   UNL d   1      58.221   0.654  31.887  0.00  0.00     0.101 A 
BRANCH  20  23
ATOM     23  C   UNL d   1      58.662   0.646  29.755  0.00  0.00     0.080 C 
BRANCH  23  24
ATOM     24  C   UNL d   1      59.056  -0.047  29.498  0.00  0.00     0.020 A 
ATOM     25  C   UNL d   1      58.636  -0.689  29.195  0.00  0.00     0.033 A 
ATOM     26  C   UNL d   1      59.032  -1.378  28.940  0.00  0.00     0.162 A 
ATOM     27  F   UNL d   1      58.608  -2.019  28.636  0.00  0.00    -0.202 F 
ATOM     28  C   UNL d   1      59.863  -1.413  28.995  0.00  0.00     0.121 A 
ATOM     29  C   UNL d   1      60.295  -0.774  29.298  0.00  0.00     0.027 A 
ATOM     30  C   UNL d   1      59.900  -0.089  29.552  0.00  0.00     0.004 A 
BRANCH  28  31
ATOM     31  O   UNL d   1      60.259  -2.095  28.743  0.00  0.00    -0.326 OA
ATOM     32  C   UNL d   1      61.050  -2.220  28.942  0.00  0.00     0.181 C 
ENDBRANCH  28  31
ENDBRANCH  23  24
ENDBRANCH  20  23
ENDBRANCH   4  17
TORSDOF 4
ENDMDL
MODEL 2
REMARK VINA RESULT:      -1.9      2.583      6.097
REMARK  4 active torsions:
REMARK  status: ('A' for Active; 'I' for Inactive)
REMARK    1  A    between atoms: N_11  and  C_4 
REMARK    2  A    between atoms: C_22  and  N_15 
REMARK    3  A    between atoms: O_29  and  C_17 
REMARK    4  A    between atoms: C_21  and  C_22 
ROOT
ATOM      1  N   UNL d   1      58.933  -1.770  29.264  0.00  0.00    -0.195 N 
ATOM      2  C   UNL d   1      59.529  -2.240  28.993  0.00  0.00     0.168 A 
ATOM      3  C   UNL d   1      59.406  -3.013  28.858  0.00  0.00     0.073 A 
ATOM      4  C   UNL d   1      59.074  -1.000  29.393  0.00  0.00     0.153 A 
ATOM      5  N   UNL d   1      58.088  -2.844  29.266  0.00  0.00    -0.143 NA
ATOM      6  C   UNL d   1      58.684  -3.314  28.995  0.00  0.00     0.185 A 
ATOM      7  N   UNL d   1      60.250  -1.927  28.859  0.00  0.00    -0.227 NA
ATOM      8  C   UNL d   1      59.996  -3.477  28.590  0.00  0.00     0.007 A 
ATOM      9  N   UNL d   1      58.543  -4.095  28.863  0.00  0.00    -0.225 NA
ATOM     10  C   UNL d   1      59.786  -0.687  29.262  0.00  0.00     0.057 A 
ATOM     11  C   UNL d   1      59.872  -4.251  28.455  0.00  0.00     0.019 A 
ATOM     12  C   UNL d   1      60.382  -1.157  28.991  0.00  0.00     0.086 A 
ATOM     13  C   UNL d   1      59.140  -4.565  28.592  0.00  0.00     0.083 A 
ATOM     14  C   UNL d   1      60.719  -3.163  28.455  0.00  0.00     0.000 C 
ATOM     15  C   UNL d   1      61.132  -0.828  28.852  0.00  0.00     0.021 C 
ATOM     16  C   UNL d   1      59.010  -5.334  28.460  0.00  0.00     0.021 C 
ENDROOT
BRANCH   4  17
ATOM     17  N   UNL d   1      58.454  -0.523  29.673  0.00  0.00    -0.286 N 
ATOM     18  C   UNL d   1      57.810  -0.075  29.395  0.00  0.00     0.101 A 
ATOM     19  C   UNL d   1      57.319   0.328  29.921  0.00  0.00     0.100 A 
ATOM     20  N   UNL d   1      57.477   0.283  30.737  0.00  0.00    -0.300 N 
ATOM     21  C   UNL d   1      58.108  -0.154  31.019  0.00  0.00     0.100 A 
ATOM     22  C   UNL d   1      58.604  -0.563  30.490  0.00  0.00     0.101 A 
BRANCH  20  23
ATOM     23  C   UNL d   1      56.993   0.682  31.260  0.00  0.00     0.080 C 
BRANCH  23  24
ATOM     24  C   UNL d   1      56.692   0.301  31.943  0.00  0.00     0.020 A 
ATOM     25  C   UNL d   1      56.752   0.652  32.688  0.00  0.00     0.033 A 
ATOM     26  C   UNL d   1      56.452   0.270  33.367  0.00  0.00     0.162 A 
ATOM     27  F   UNL d   1      56.514   0.624  34.111  0.00  0.00    -0.202 F 
ATOM     28  C   UNL d   1      56.087  -0.475  33.286  0.00  0.00     0.121 A 
ATOM     29  C   UNL d   1      56.022  -0.837  32.543  0.00  0.00     0.027 A 
ATOM     30  C   UNL d   1      56.321  -0.456  31.868  0.00  0.00     0.004 A 
BRANCH  28  31
ATOM     31  O   UNL d   1      55.788  -0.857  33.957  0.00  0.00    -0.326 OA
ATOM     32  C   UNL d   1      55.611  -1.662  33.939  0.00  0.00     0.181 C 
ENDBRANCH  28  31
ENDBRANCH  23  24
ENDBRANCH  20  23
ENDBRANCH   4  17
TORSDOF 4
ENDMDL
MODEL 3
REMARK VINA RESULT:      -0.9      1.320      2.073
REMARK  4 active torsions:
REMARK  status: ('A' for Active; 'I' for Inactive)
REMARK    1  A    between atoms: N_11  and  C_4 
REMARK    2  A    between atoms: C_22  and  N_15 
REMARK    3  A    between atoms: O_29  and  C_17 
REMARK    4  A    between atoms: C_21  and  C_22 
ROOT
ATOM      1  N   UNL d   1      57.598   0.062  31.636  0.00  0.00    -0.195 N 
ATOM      2  C   UNL d   1      57.527   0.249  32.417  0.00  0.00     0.168 A 
ATOM      3  C   UNL d   1      56.818   0.234  32.774  0.00  0.00     0.073 A 
ATOM      4  C   UNL d   1      58.314   0.082  31.296  0.00  0.00     0.153 A 
ATOM      5  N   UNL d   1      56.250  -0.157  31.566  0.00  0.00    -0.143 NA
ATOM      6  C   UNL d   1      56.179   0.031  32.346  0.00  0.00     0.185 A 
ATOM      7  N   UNL d   1      58.174   0.452  32.836  0.00  0.00    -0.227 NA
ATOM      8  C   UNL d   1      56.747   0.420  33.546  0.00  0.00     0.007 A 
ATOM      9  N   UNL d   1      55.454   0.011  32.694  0.00  0.00    -0.225 NA
ATOM     10  C   UNL d   1      58.957   0.282  31.707  0.00  0.00     0.057 A 
ATOM     11  C   UNL d   1      56.037   0.405  33.903  0.00  0.00     0.019 A 
ATOM     12  C   UNL d   1      58.886   0.470  32.488  0.00  0.00     0.086 A 
ATOM     13  C   UNL d   1      55.383   0.199  33.474  0.00  0.00     0.083 A 
ATOM     14  C   UNL d   1      57.397   0.623  33.966  0.00  0.00     0.000 C 
ATOM     15  C   UNL d   1      59.562   0.680  32.921  0.00  0.00     0.021 C 
ATOM     16  C   UNL d   1      54.674   0.182  33.824  0.00  0.00     0.021 C 
ENDROOT
BRANCH   4  17
ATOM     17  N   UNL d   1      58.379  -0.113  30.490  0.00  0.00    -0.286 N 
ATOM     18  C   UNL d   1      58.199   0.191  29.737  0.00  0.00     0.101 A 
ATOM     19  C   UNL d   1      58.383  -0.235  29.055  0.00  0.00     0.100 A 
ATOM     20  N   UNL d   1      58.751  -0.977  29.130  0.00  0.00    -0.300 N 
ATOM     21  C   UNL d   1      58.932  -1.285  29.866  0.00  0.00     0.100 A 
ATOM     22  C   UNL d   1      58.748  -0.856  30.556  0.00  0.00     0.101 A 
BRANCH  20  23
ATOM     23  C   UNL d   1      58.934  -1.402  28.456  0.00  0.00     0.080 C 
BRANCH  23  24
ATOM     24  C   UNL d   1      59.176  -2.203  28.506  0.00  0.00     0.020 A 
ATOM     25  C   UNL d   1      58.623  -2.813  28.555  0.00  0.00     0.033 A 
ATOM     26  C   UNL d   1      58.866  -3.610  28.604  0.00  0.00     0.162 A 
ATOM     27  F   UNL d   1      58.309  -4.218  28.653  0.00  0.00    -0.202 F 
ATOM     28  C   UNL d   1      59.681  -3.786  28.602  0.00  0.00     0.121 A 
ATOM     29  C   UNL d   1      60.246  -3.180  28.553  0.00  0.00     0.027 A 
ATOM     30  C   UNL d   1      60.001  -2.388  28.505  0.00  0.00     0.004 A 
BRANCH  28  31
ATOM     31  O   UNL d   1      59.927  -4.575  28.651  0.00  0.00    -0.326 OA
ATOM     32  C   UNL d   1      60.729  -4.768  28.638  0.00  0.00     0.181 C 
ENDBRANCH  28  31
ENDBRANCH  23  24
ENDBRANCH  20  23
ENDBRANCH   4  17
TORSDOF 4
ENDMDL
