MODEL 1
REMARK VINA RESULT:      -1.5      0.000      0.000
REMARK  3 active torsions:
REMARK  status: ('A' for Active; 'I' for Inactive)
REMARK    1  A    between atoms: N_5  and  S_1 
REMARK    2  A    between atoms: C_6  and  S_1 
REMARK    3  A    between atoms: C_2  and  C_13 
ROOT
ATOM      1  N   UNL d   1      32.887  20.658 -21.090  0.00  0.00    -0.229 N 
ATOM      2  C   UNL d   1      32.860  19.282 -22.391  0.00  0.00     0.039 A 
ATOM      3  C   UNL d   1      33.241  19.804 -20.881  0.00  0.00     0.092 A 
ATOM      4  C   UNL d   1      32.519  20.824 -21.951  0.00  0.00     0.092 A 
ATOM      5  C   UNL d   1      33.228  19.111 -21.534  0.00  0.00     0.023 A 
ATOM      6  C   UNL d   1      32.506  20.137 -22.599  0.00  0.00     0.023 A 
ENDROOT
BRANCH   1   7
ATOM      7  S   UNL d   1      32.898  21.285 -20.501  0.00  0.00     0.271 S 
ATOM      8  O   UNL d   1      32.650  21.829 -21.069  0.00  0.00    -0.200 OA
ATOM      9  O   UNL d   1      33.146  20.741 -19.932  0.00  0.00    -0.200 OA
BRANCH   7  10
ATOM     10  C   UNL d   1      32.910  21.883 -19.933  0.00  0.00     0.106 A 
ATOM     11  C   UNL d   1      33.048  21.685 -19.138  0.00  0.00     0.040 A 
ATOM     12  C   UNL d   1      33.059  22.283 -18.581  0.00  0.00     0.123 A 
ATOM     13  O   UNL d   1      33.195  22.104 -17.784  0.00  0.00    -0.301 OA
ATOM     14  C   UNL d   1      32.934  23.077 -18.800  0.00  0.00     0.123 A 
ATOM     15  C   UNL d   1      33.237  22.717 -16.995  0.00  0.00     0.149 A 
ATOM     16  C   UNL d   1      33.075  23.659 -17.353  0.00  0.00     0.149 A 
ATOM     17  O   UNL d   1      32.945  23.669 -18.237  0.00  0.00    -0.301 OA
ATOM     18  C   UNL d   1      32.796  23.253 -19.606  0.00  0.00     0.028 A 
ATOM     19  C   UNL d   1      32.784  22.663 -20.166  0.00  0.00     0.015 A 
ENDBRANCH   7  10
ENDBRANCH   1   7
BRANCH   2  20
ATOM     20  C   UNL d   1      32.847  18.589 -23.044  0.00  0.00     0.163 A 
ATOM     21  N   UNL d   1      33.133  18.653 -23.773  0.00  0.00    -0.225 NA
ATOM     22  C   UNL d   1      33.017  17.965 -24.137  0.00  0.00     0.101 A 
ATOM     23  C   UNL d   1      33.200  17.735 -24.874  0.00  0.00     0.021 A 
ATOM     24  C   UNL d   1      32.662  17.478 -23.635  0.00  0.00     0.101 A 
ATOM     25  C   UNL d   1      33.014  16.998 -25.090  0.00  0.00     0.002 A 
ATOM     26  C   UNL d   1      32.657  16.505 -24.589  0.00  0.00     0.002 A 
ATOM     27  C   UNL d   1      32.485  16.748 -23.871  0.00  0.00     0.021 A 
ATOM     28  N   UNL d   1      32.555  17.861 -22.957  0.00  0.00    -0.225 NA
ENDBRANCH   2  20
TORSDOF 3
ENDMDL
MODEL 2
REMARK VINA RESULT:      -1.2      2.092      6.452
REMARK  3 active torsions:
REMARK  status: ('A' for Active; 'I' for Inactive)
REMARK    1  A    between atoms: N_5  and  S_1 
REMARK    2  A    between atoms: C_6  and  S_1 
REMARK    3  A    between atoms: C_2  and  C_13 
ROOT
ATOM      1  N   UNL d   1      32.757  19.817 -22.164  0.00  0.00    -0.229 N 
ATOM      2  C   UNL d   1      32.658  21.170 -20.843  0.00  0.00     0.039 A 
ATOM      3  C   UNL d   1      32.225  20.586 -22.316  0.00  0.00     0.092 A 
ATOM      4  C   UNL d   1      33.241  19.724 -21.350  0.00  0.00     0.092 A 
ATOM      5  C   UNL d   1      32.174  21.268 -21.652  0.00  0.00     0.023 A 
ATOM      6  C   UNL d   1      33.191  20.400 -20.693  0.00  0.00     0.023 A 
ENDROOT
BRANCH   1   7
ATOM      7  S   UNL d   1      32.804  19.200 -22.762  0.00  0.00     0.271 S 
ATOM      8  O   UNL d   1      32.519  19.724 -23.331  0.00  0.00    -0.200 OA
ATOM      9  O   UNL d   1      33.089  18.675 -22.193  0.00  0.00    -0.200 OA
BRANCH   7  10
ATOM     10  C   UNL d   1      32.850  18.606 -23.333  0.00  0.00     0.106 A 
ATOM     11  C   UNL d   1      32.573  17.845 -23.148  0.00  0.00     0.040 A 
ATOM     12  C   UNL d   1      32.623  17.261 -23.719  0.00  0.00     0.123 A 
ATOM     13  O   UNL d   1      32.351  16.496 -23.553  0.00  0.00    -0.301 OA
ATOM     14  C   UNL d   1      32.943  17.420 -24.470  0.00  0.00     0.123 A 
ATOM     15  C   UNL d   1      32.344  15.685 -24.138  0.00  0.00     0.149 A 
ATOM     16  C   UNL d   1      32.750  15.970 -25.030  0.00  0.00     0.149 A 
ATOM     17  O   UNL d   1      32.990  16.832 -25.036  0.00  0.00    -0.301 OA
ATOM     18  C   UNL d   1      33.216  18.194 -24.633  0.00  0.00     0.028 A 
ATOM     19  C   UNL d   1      33.170  18.780 -24.071  0.00  0.00     0.015 A 
ENDBRANCH   7  10
ENDBRANCH   1   7
BRANCH   2  20
ATOM     20  C   UNL d   1      32.608  21.852 -20.180  0.00  0.00     0.163 A 
ATOM     21  N   UNL d   1      31.944  22.202 -19.945  0.00  0.00    -0.225 NA
ATOM     22  C   UNL d   1      32.135  22.729 -19.394  0.00  0.00     0.101 A 
ATOM     23  C   UNL d   1      31.678  23.228 -18.978  0.00  0.00     0.021 A 
ATOM     24  C   UNL d   1      32.912  22.706 -19.288  0.00  0.00     0.101 A 
ATOM     25  C   UNL d   1      32.029  23.702 -18.452  0.00  0.00     0.002 A 
ATOM     26  C   UNL d   1      32.810  23.682 -18.343  0.00  0.00     0.002 A 
ATOM     27  C   UNL d   1      33.241  23.187 -18.760  0.00  0.00     0.021 A 
ATOM     28  N   UNL d   1      33.207  22.163 -19.774  0.00  0.00    -0.225 NA
ENDBRANCH   2  20
TORSDOF 3
ENDMDL
