MODEL 1
REMARK VINA RESULT:      -2.2      0.000      0.000
REMARK  8 active torsions:
REMARK  status: ('A' for Active; 'I' for Inactive)
REMARK    1  A    between atoms: C_7  and  C_1 
REMARK    2  A    between atoms: N_5  and  C_2 
REMARK       I    between atoms: C_8  and  N_5 
REMARK    3  A    between atoms: N_9  and  C_7 
REMARK    4  A    between atoms: C_12  and  C_7 
REMARK    5  A    between atoms: C_10  and  C_8 
REMARK    6  A    between atoms: C_11  and  C_14 
REMARK    7  A    between atoms: O_25  and  C_11 
REMARK    8  A    between atoms: C_31  and  O_25 
ROOT
ATOM      1  C   UNL d   1     -40.730  14.578  19.775  0.00  0.00     0.068 C 
ENDROOT
BRANCH   1   2
ATOM      2  C   UNL d   1     -39.975  14.698  20.100  0.00  0.00     0.041 A 
ATOM      3  C   UNL d   1     -39.244  14.377  19.906  0.00  0.00     0.115 A 
ATOM      4  S   UNL d   1     -38.686  14.702  20.420  0.00  0.00    -0.068 SA
ATOM      5  C   UNL d   1     -39.080  15.220  20.924  0.00  0.00     0.031 A 
ATOM      6  C   UNL d   1     -39.892  15.222  20.727  0.00  0.00     0.009 A 
ATOM      7  C   UNL d   1     -38.716  15.667  21.532  0.00  0.00     0.007 C 
ATOM      8  C   UNL d   1     -40.486  15.663  21.093  0.00  0.00     0.001 C 
BRANCH   3   9
ATOM      9  N   UNL d   1     -39.078  13.815  19.296  0.00  0.00    -0.200 NA
ATOM     10  C   UNL d   1     -38.412  13.305  19.367  0.00  0.00     0.302 C 
ATOM     11  O   UNL d   1     -37.940  13.360  20.021  0.00  0.00    -0.263 OA
BRANCH  10  12
ATOM     12  C   UNL d   1     -38.260  12.756  18.758  0.00  0.00     0.158 A 
ATOM     13  O   UNL d   1     -37.984  12.872  17.987  0.00  0.00    -0.300 OA
ATOM     14  C   UNL d   1     -37.940  12.122  17.632  0.00  0.00     0.123 A 
ATOM     15  C   UNL d   1     -38.197  11.557  18.214  0.00  0.00     0.029 A 
ATOM     16  C   UNL d   1     -38.388  11.974  18.896  0.00  0.00     0.032 A 
ENDBRANCH  10  12
ENDBRANCH   3   9
ENDBRANCH   1   2
BRANCH   1  17
ATOM     17  N   UNL d   1     -41.339  14.187  20.211  0.00  0.00    -0.304 N 
ATOM     18  C   UNL d   1     -41.866  14.602  20.696  0.00  0.00     0.080 A 
ATOM     19  C   UNL d   1     -42.446  14.193  21.105  0.00  0.00     0.024 A 
ATOM     20  C   UNL d   1     -42.507  13.387  21.038  0.00  0.00     0.067 A 
ATOM     21  C   UNL d   1     -41.999  12.948  20.565  0.00  0.00     0.024 A 
ATOM     22  C   UNL d   1     -41.406  13.349  20.144  0.00  0.00     0.080 A 
BRANCH  20  23
ATOM     23  C   UNL d   1     -43.094  13.022  21.460  0.00  0.00     0.300 C 
ATOM     24  O   UNL d   1     -43.014  12.255  21.744  0.00  0.00    -0.259 OA
BRANCH  23  25
ATOM     25  O   UNL d   1     -43.815  13.407  21.629  0.00  0.00    -0.271 OA
BRANCH  25  26
ATOM     26  C   UNL d   1     -44.463  12.753  21.659  0.00  0.00     0.126 C 
ATOM     27  C   UNL d   1     -45.122  13.018  21.956  0.00  0.00     0.029 C 
ENDBRANCH  25  26
ENDBRANCH  23  25
ENDBRANCH  20  23
ENDBRANCH   1  17
BRANCH   1  28
ATOM     28  C   UNL d   1     -40.922  14.840  18.999  0.00  0.00     0.035 A 
ATOM     29  C   UNL d   1     -41.077  14.285  18.410  0.00  0.00     0.100 A 
ATOM     30  N   UNL d   1     -41.264  14.537  17.654  0.00  0.00    -0.242 NA
ATOM     31  C   UNL d   1     -41.297  15.393  17.480  0.00  0.00     0.099 A 
ATOM     32  C   UNL d   1     -41.132  15.922  18.112  0.00  0.00     0.021 A 
ATOM     33  C   UNL d   1     -40.949  15.657  18.853  0.00  0.00     0.005 A 
ENDBRANCH   1  28
TORSDOF 8
ENDMDL
MODEL 2
REMARK VINA RESULT:      -1.0      1.723      4.007
REMARK  8 active torsions:
REMARK  status: ('A' for Active; 'I' for Inactive)
REMARK    1  A    between atoms: C_7  and  C_1 
REMARK    2  A    between atoms: N_5  and  C_2 
REMARK       I    between atoms: C_8  and  N_5 
REMARK    3  A    between atoms: N_9  and  C_7 
REMARK    4  A    between atoms: C_12  and  C_7 
REMARK    5  A    between atoms: C_10  and  C_8 
REMARK    6  A    between atoms: C_11  and  C_14 
REMARK    7  A    between atoms: O_25  and  C_11 
REMARK    8  A    between atoms: C_31  and  O_25 
ROOT
ATOM      1  C   UNL d   1     -39.248  14.296  19.098  0.00  0.00     0.068 C 
ENDROOT
BRANCH   1   2
ATOM      2  C   UNL d   1     -39.105  14.580  19.866  0.00  0.00     0.041 A 
ATOM      3  C   UNL d   1     -39.495  14.443  20.576  0.00  0.00     0.115 A 
ATOM      4  S   UNL d   1     -39.104  14.874  21.161  0.00  0.00    -0.068 SA
ATOM      5  C   UNL d   1     -38.479  15.272  20.805  0.00  0.00     0.031 A 
ATOM      6  C   UNL d   1     -38.474  15.091  19.989  0.00  0.00     0.009 A 
ATOM      7  C   UNL d   1     -37.940  15.775  21.204  0.00  0.00     0.007 C 
ATOM      8  C   UNL d   1     -37.940  15.371  19.425  0.00  0.00     0.001 C 
BRANCH   3   9
ATOM      9  N   UNL d   1     -40.173  13.952  20.701  0.00  0.00    -0.200 NA
ATOM     10  C   UNL d   1     -40.753  14.176  21.269  0.00  0.00     0.302 C 
ATOM     11  O   UNL d   1     -40.651  14.860  21.688  0.00  0.00    -0.263 OA
BRANCH  10  12
ATOM     12  C   UNL d   1     -41.416  13.683  21.381  0.00  0.00     0.158 A 
ATOM     13  O   UNL d   1     -41.564  13.104  21.953  0.00  0.00    -0.300 OA
ATOM     14  C   UNL d   1     -42.318  12.794  21.791  0.00  0.00     0.123 A 
ATOM     15  C   UNL d   1     -42.613  13.205  21.106  0.00  0.00     0.029 A 
ATOM     16  C   UNL d   1     -42.039  13.746  20.876  0.00  0.00     0.032 A 
ENDBRANCH  10  12
ENDBRANCH   3   9
ENDBRANCH   1   2
BRANCH   1  17
ATOM     17  N   UNL d   1     -39.834  14.647  18.602  0.00  0.00    -0.304 N 
ATOM     18  C   UNL d   1     -39.840  15.457  18.435  0.00  0.00     0.080 A 
ATOM     19  C   UNL d   1     -40.423  15.765  17.949  0.00  0.00     0.024 A 
ATOM     20  C   UNL d   1     -40.993  15.282  17.631  0.00  0.00     0.067 A 
ATOM     21  C   UNL d   1     -41.013  14.475  17.778  0.00  0.00     0.024 A 
ATOM     22  C   UNL d   1     -40.428  14.148  18.269  0.00  0.00     0.080 A 
BRANCH  20  23
ATOM     23  C   UNL d   1     -41.550  15.628  17.156  0.00  0.00     0.300 C 
ATOM     24  O   UNL d   1     -42.302  15.813  17.432  0.00  0.00    -0.259 OA
BRANCH  23  25
ATOM     25  O   UNL d   1     -41.390  15.817  16.359  0.00  0.00    -0.271 OA
BRANCH  25  26
ATOM     26  C   UNL d   1     -42.206  15.908  15.940  0.00  0.00     0.126 C 
ATOM     27  C   UNL d   1     -42.204  15.588  15.240  0.00  0.00     0.029 C 
ENDBRANCH  25  26
ENDBRANCH  23  25
ENDBRANCH  20  23
ENDBRANCH   1  17
BRANCH   1  28
ATOM     28  C   UNL d   1     -38.815  13.648  18.781  0.00  0.00     0.035 A 
ATOM     29  C   UNL d   1     -38.477  13.713  18.033  0.00  0.00     0.100 A 
ATOM     30  N   UNL d   1     -38.055  13.084  17.722  0.00  0.00    -0.242 NA
ATOM     31  C   UNL d   1     -37.967  12.350  18.189  0.00  0.00     0.099 A 
ATOM     32  C   UNL d   1     -38.330  12.330  18.947  0.00  0.00     0.021 A 
ATOM     33  C   UNL d   1     -38.743  12.959  19.239  0.00  0.00     0.005 A 
ENDBRANCH   1  28
TORSDOF 8
ENDMDL
