MODEL 1
REMARK VINA RESULT:      -2.4      0.000      0.000
REMARK  4 active torsions:
REMARK  status: ('A' for Active; 'I' for Inactive)
REMARK    1  A    between atoms: C_4  and  C_1 
REMARK       I    between atoms: N_6  and  C_4 
REMARK    2  A    between atoms: C_9  and  N_6 
REMARK    3  A    between atoms: C_12  and  N_6 
REMARK    4  A    between atoms: C_17  and  C_12 
ROOT
ATOM      1  C   UNL d   1      31.900  17.963 -24.683  0.00  0.00     0.272 C 
ATOM      2  N   UNL d   1      32.594  17.728 -24.308  0.00  0.00    -0.258 N 
ATOM      3  O   UNL d   1      31.836  18.713 -25.000  0.00  0.00    -0.266 OA
ENDROOT
BRANCH   2   4
ATOM      4  C   UNL d   1      32.667  16.960 -23.980  0.00  0.00     0.150 A 
ATOM      5  N   UNL d   1      32.354  16.815 -23.221  0.00  0.00    -0.227 NA
ATOM      6  C   UNL d   1      32.428  16.051 -22.896  0.00  0.00     0.101 A 
ATOM      7  C   UNL d   1      32.804  15.453 -23.323  0.00  0.00     0.021 A 
ATOM      8  C   UNL d   1      33.113  15.604 -24.078  0.00  0.00     0.005 A 
ATOM      9  C   UNL d   1      33.044  16.358 -24.406  0.00  0.00     0.037 A 
ENDBRANCH   2   4
BRANCH   2  10
ATOM     10  C   UNL d   1      33.239  18.254 -24.247  0.00  0.00     0.084 C 
BRANCH  10  11
ATOM     11  C   UNL d   1      33.235  18.852 -23.683  0.00  0.00     0.018 A 
ATOM     12  C   UNL d   1      33.233  19.643 -23.919  0.00  0.00     0.002 A 
ATOM     13  C   UNL d   1      33.229  20.239 -23.354  0.00  0.00     0.000 A 
ATOM     14  C   UNL d   1      33.227  20.051 -22.554  0.00  0.00     0.000 A 
ATOM     15  C   UNL d   1      33.229  19.249 -22.314  0.00  0.00     0.000 A 
ATOM     16  C   UNL d   1      33.233  18.661 -22.885  0.00  0.00     0.002 A 
ENDBRANCH  10  11
ENDBRANCH   2  10
BRANCH   1  17
ATOM     17  C   UNL d   1      31.268  17.428 -24.735  0.00  0.00     0.132 A 
ATOM     18  C   UNL d   1      30.521  17.658 -24.465  0.00  0.00     0.272 A 
ATOM     19  N   UNL d   1      29.879  17.132 -24.511  0.00  0.00    -0.265 N 
ATOM     20  O   UNL d   1      30.403  18.411 -24.149  0.00  0.00    -0.266 OA
ATOM     21  C   UNL d   1      29.093  17.201 -24.294  0.00  0.00     0.123 A 
ATOM     22  C   UNL d   1      29.997  16.380 -24.828  0.00  0.00     0.181 A 
ATOM     23  C   UNL d   1      28.714  16.497 -24.472  0.00  0.00     0.043 A 
ATOM     24  S   UNL d   1      29.274  15.979 -24.806  0.00  0.00    -0.049 SA
ATOM     25  N   UNL d   1      30.740  16.149 -25.096  0.00  0.00    -0.220 NA
ATOM     26  C   UNL d   1      31.378  16.673 -25.050  0.00  0.00     0.111 A 
ENDBRANCH   1  17
TORSDOF 4
ENDMDL
