MODEL 1
REMARK VINA RESULT:      49.7      0.000      0.000
REMARK  7 active torsions:
REMARK  status: ('A' for Active; 'I' for Inactive)
REMARK       I    between atoms: C_2  and  N_1 
REMARK    1  A    between atoms: C_7  and  C_2 
REMARK    2  A    between atoms: C_10  and  C_3 
REMARK       I    between atoms: C_4  and  N_6 
REMARK    3  A    between atoms: C_5  and  C_4 
REMARK       I    between atoms: N_13  and  C_5 
REMARK    4  A    between atoms: N_6  and  C_10 
REMARK    5  A    between atoms: C_23  and  N_13 
REMARK    6  A    between atoms: O_22  and  C_24 
REMARK    7  A    between atoms: C_24  and  C_23 
ROOT
ATOM      1  N   UNL d   1      59.507  49.679  50.840  0.00  0.00    -0.250 N 
ATOM      2  C   UNL d   1      59.273  49.670  50.046  0.00  0.00     0.266 C 
ATOM      3  C   UNL d   1      60.281  49.682  51.123  0.00  0.00     0.190 A 
ATOM      4  O   UNL d   1      59.836  49.662  49.448  0.00  0.00    -0.267 OA
ATOM      5  O   UNL d   1      60.257  49.692  51.955  0.00  0.00    -0.285 OA
ATOM      6  C   UNL d   1      59.008  49.687  51.496  0.00  0.00     0.112 A 
ATOM      7  C   UNL d   1      59.467  49.695  52.187  0.00  0.00     0.144 A 
ENDROOT
BRANCH   3   8
ATOM      8  C   UNL d   1      60.960  49.675  50.658  0.00  0.00     0.146 C 
BRANCH   8   9
ATOM      9  N   UNL d   1      61.697  49.557  51.007  0.00  0.00    -0.199 NA
ATOM     10  C   UNL d   1      61.993  48.796  51.087  0.00  0.00     0.337 C 
ATOM     11  O   UNL d   1      62.729  48.678  51.435  0.00  0.00    -0.260 OA
BRANCH  10  12
ATOM     12  C   UNL d   1      61.558  48.145  50.821  0.00  0.00     0.337 C 
ATOM     13  O   UNL d   1      60.838  47.963  51.179  0.00  0.00    -0.260 OA
ATOM     14  N   UNL d   1      61.835  47.676  50.203  0.00  0.00    -0.200 NA
BRANCH  14  15
ATOM     15  C   UNL d   1      61.412  47.033  49.936  0.00  0.00     0.129 C 
BRANCH  15  16
ATOM     16  C   UNL d   1      61.756  46.282  49.882  0.00  0.00     0.137 C 
BRANCH  16  17
ATOM     17  O   UNL d   1      61.694  45.840  49.191  0.00  0.00    -0.325 OA
ATOM     18  C   UNL d   1      62.285  45.295  48.977  0.00  0.00     0.182 C 
ENDBRANCH  16  17
ENDBRANCH  15  16
ENDBRANCH  14  15
ENDBRANCH  10  12
ENDBRANCH   8   9
ENDBRANCH   3   8
BRANCH   2  19
ATOM     19  C   UNL d   1      58.458  49.668  49.850  0.00  0.00     0.057 A 
ATOM     20  C   UNL d   1      57.894  49.663  50.443  0.00  0.00     0.006 A 
ATOM     21  C   UNL d   1      57.091  49.661  50.248  0.00  0.00     0.012 A 
ATOM     22  C   UNL d   1      56.860  49.665  49.459  0.00  0.00     0.058 A 
ATOM     23  C   UNL d   1      57.432  49.671  48.861  0.00  0.00     0.012 A 
ATOM     24 CL   UNL d   1      56.048  49.664  49.265  0.00  0.00    -0.082 Cl
ATOM     25  C   UNL d   1      58.223  49.672  49.059  0.00  0.00     0.006 A 
ENDBRANCH   2  19
TORSDOF 7
ENDMDL
