MODEL 1
REMARK VINA RESULT:      -6.5      0.000      0.000
REMARK  4 active torsions:
REMARK  status: ('A' for Active; 'I' for Inactive)
REMARK    1  A    between atoms: N_3  and  C_1 
REMARK       I    between atoms: C_5  and  N_3 
REMARK    2  A    between atoms: C_15  and  C_5 
REMARK    3  A    between atoms: C_8  and  C_9 
REMARK    4  A    between atoms: O_16  and  C_8 
ROOT
ATOM      1  C   UNL d   1     -41.336-123.047 -51.317  0.00  0.00     0.197 A 
ATOM      2  N   UNL d   1     -41.124-123.680 -51.817  0.00  0.00    -0.221 NA
ATOM      3  S   UNL d   1     -41.579-122.421 -51.793  0.00  0.00    -0.047 SA
ATOM      4  C   UNL d   1     -41.523-122.652 -52.585  0.00  0.00     0.050 A 
ATOM      5  C   UNL d   1     -41.240-123.437 -52.600  0.00  0.00     0.090 A 
ATOM      6  C   UNL d   1     -41.576-122.645 -54.003  0.00  0.00     0.064 A 
ATOM      7  C   UNL d   1     -41.690-122.260 -53.291  0.00  0.00     0.013 A 
ATOM      8  C   UNL d   1     -41.128-123.815 -53.320  0.00  0.00     0.020 A 
ATOM      9  C   UNL d   1     -41.292-123.430 -54.018  0.00  0.00     0.007 A 
ENDROOT
BRANCH   1  10
ATOM     10  N   UNL d   1     -41.305-123.052 -50.491  0.00  0.00    -0.183 NA
ATOM     11  C   UNL d   1     -41.988-123.198 -50.053  0.00  0.00     0.281 C 
ATOM     12  O   UNL d   1     -42.703-123.339 -50.440  0.00  0.00    -0.265 OA
BRANCH  11  13
ATOM     13  C   UNL d   1     -41.958-123.202 -49.240  0.00  0.00     0.058 A 
ATOM     14  C   UNL d   1     -42.615-122.943 -48.800  0.00  0.00     0.005 A 
ATOM     15  C   UNL d   1     -42.585-122.947 -47.975  0.00  0.00     0.000 A 
ATOM     16  C   UNL d   1     -41.897-123.211 -47.589  0.00  0.00     0.000 A 
ATOM     17  C   UNL d   1     -41.259-123.462 -48.027  0.00  0.00     0.000 A 
ATOM     18  C   UNL d   1     -41.290-123.458 -48.852  0.00  0.00     0.005 A 
ENDBRANCH  11  13
ENDBRANCH   1  10
BRANCH   6  19
ATOM     19  C   UNL d   1     -41.739-122.265 -54.717  0.00  0.00     0.296 C 
ATOM     20  O   UNL d   1     -41.139-121.917 -55.150  0.00  0.00    -0.259 OA
BRANCH  19  21
ATOM     21  O   UNL d   1     -42.523-122.241 -54.991  0.00  0.00    -0.296 OA
ATOM     22  C   UNL d   1     -42.700-121.822 -55.674  0.00  0.00     0.185 C 
ENDBRANCH  19  21
ENDBRANCH   6  19
TORSDOF 4
ENDMDL
MODEL 2
REMARK VINA RESULT:      -5.7      1.216      5.144
REMARK  4 active torsions:
REMARK  status: ('A' for Active; 'I' for Inactive)
REMARK    1  A    between atoms: N_3  and  C_1 
REMARK       I    between atoms: C_5  and  N_3 
REMARK    2  A    between atoms: C_15  and  C_5 
REMARK    3  A    between atoms: C_8  and  C_9 
REMARK    4  A    between atoms: O_16  and  C_8 
ROOT
ATOM      1  C   UNL d   1     -41.705-122.591 -51.608  0.00  0.00     0.197 A 
ATOM      2  N   UNL d   1     -41.207-123.180 -51.291  0.00  0.00    -0.221 NA
ATOM      3  S   UNL d   1     -42.211-122.340 -51.010  0.00  0.00    -0.047 SA
ATOM      4  C   UNL d   1     -42.039-122.763 -50.321  0.00  0.00     0.050 A 
ATOM      5  C   UNL d   1     -41.413-123.287 -50.496  0.00  0.00     0.090 A 
ATOM      6  C   UNL d   1     -42.066-123.243 -48.985  0.00  0.00     0.064 A 
ATOM      7  C   UNL d   1     -42.362-122.746 -49.562  0.00  0.00     0.013 A 
ATOM      8  C   UNL d   1     -41.123-123.782 -49.909  0.00  0.00     0.020 A 
ATOM      9  C   UNL d   1     -41.440-123.766 -49.161  0.00  0.00     0.007 A 
ENDROOT
BRANCH   1  10
ATOM     10  N   UNL d   1     -41.689-122.312 -52.386  0.00  0.00    -0.183 NA
ATOM     11  C   UNL d   1     -41.778-122.838 -53.016  0.00  0.00     0.281 C 
ATOM     12  O   UNL d   1     -41.882-123.642 -52.868  0.00  0.00    -0.265 OA
BRANCH  11  13
ATOM     13  C   UNL d   1     -41.762-122.563 -53.781  0.00  0.00     0.058 A 
ATOM     14  C   UNL d   1     -42.274-121.948 -54.010  0.00  0.00     0.005 A 
ATOM     15  C   UNL d   1     -42.259-121.669 -54.788  0.00  0.00     0.000 A 
ATOM     16  C   UNL d   1     -41.731-122.005 -55.336  0.00  0.00     0.000 A 
ATOM     17  C   UNL d   1     -41.234-122.605 -55.103  0.00  0.00     0.000 A 
ATOM     18  C   UNL d   1     -41.250-122.884 -54.326  0.00  0.00     0.005 A 
ENDBRANCH  11  13
ENDBRANCH   1  10
BRANCH   6  19
ATOM     19  C   UNL d   1     -42.379-123.236 -48.222  0.00  0.00     0.296 C 
ATOM     20  O   UNL d   1     -43.054-123.662 -48.045  0.00  0.00    -0.259 OA
BRANCH  19  21
ATOM     21  O   UNL d   1     -41.999-122.788 -47.634  0.00  0.00    -0.296 OA
ATOM     22  C   UNL d   1     -42.219-122.881 -46.849  0.00  0.00     0.185 C 
ENDBRANCH  19  21
ENDBRANCH   6  19
TORSDOF 4
ENDMDL
