MODEL 1
REMARK VINA RESULT:      -6.3      0.000      0.000
REMARK  5 active torsions:
REMARK  status: ('A' for Active; 'I' for Inactive)
REMARK    1  A    between atoms: S_10  and  C_6 
REMARK    2  A    between atoms: C_15  and  S_10 
REMARK    3  A    between atoms: C_12  and  C_15 
REMARK       I    between atoms: N_16  and  C_12 
REMARK    4  A    between atoms: C_14  and  C_20 
REMARK    5  A    between atoms: C_20  and  N_16 
ROOT
ATOM      1  C   UNL d   1     -49.003  12.790  23.070  0.00  0.00     0.117 A 
ATOM      2  C   UNL d   1     -49.380  13.048  22.395  0.00  0.00     0.082 A 
ATOM      3  N   UNL d   1     -48.181  12.923  23.161  0.00  0.00    -0.214 NA
ATOM      4  C   UNL d   1     -48.967  13.435  21.804  0.00  0.00     0.283 A 
ATOM      5  N   UNL d   1     -48.145  13.567  21.895  0.00  0.00    -0.183 NA
ATOM      6  C   UNL d   1     -47.767  13.308  22.573  0.00  0.00     0.198 A 
ATOM      7  S   UNL d   1     -49.563  12.425  23.554  0.00  0.00    -0.068 SA
ATOM      8  C   UNL d   1     -50.170  12.841  22.465  0.00  0.00     0.013 A 
ATOM      9  C   UNL d   1     -50.300  12.450  23.187  0.00  0.00     0.031 A 
ATOM     10  O   UNL d   1     -49.366  13.700  21.106  0.00  0.00    -0.265 OA
ATOM     11  C   UNL d   1     -50.769  12.994  21.903  0.00  0.00     0.001 C 
ATOM     12  C   UNL d   1     -51.033  12.147  23.474  0.00  0.00     0.007 C 
ENDROOT
BRANCH   6  13
ATOM     13  S   UNL d   1     -46.950  13.440  22.664  0.00  0.00    -0.043 SA
BRANCH  13  14
ATOM     14  C   UNL d   1     -46.447  12.805  22.760  0.00  0.00     0.101 C 
BRANCH  14  15
ATOM     15  C   UNL d   1     -45.600  12.929  22.743  0.00  0.00     0.286 C 
ATOM     16  O   UNL d   1     -45.302  13.666  22.510  0.00  0.00    -0.265 OA
ATOM     17  N   UNL d   1     -45.096  12.321  22.954  0.00  0.00    -0.206 NA
BRANCH  17  18
ATOM     18  C   UNL d   1     -45.396  11.593  23.184  0.00  0.00     0.102 C 
BRANCH  18  19
ATOM     19  C   UNL d   1     -44.906  10.942  23.232  0.00  0.00     0.021 C 
ATOM     20  C   UNL d   1     -45.115  10.293  23.698  0.00  0.00     0.002 C 
ENDBRANCH  18  19
ENDBRANCH  17  18
ENDBRANCH  14  15
ENDBRANCH  13  14
ENDBRANCH   6  13
TORSDOF 5
ENDMDL
MODEL 2
REMARK VINA RESULT:      -6.3      1.364      1.757
REMARK  5 active torsions:
REMARK  status: ('A' for Active; 'I' for Inactive)
REMARK    1  A    between atoms: S_10  and  C_6 
REMARK    2  A    between atoms: C_15  and  S_10 
REMARK    3  A    between atoms: C_12  and  C_15 
REMARK       I    between atoms: N_16  and  C_12 
REMARK    4  A    between atoms: C_14  and  C_20 
REMARK    5  A    between atoms: C_20  and  N_16 
ROOT
ATOM      1  C   UNL d   1     -49.304  13.696  22.948  0.00  0.00     0.117 A 
ATOM      2  C   UNL d   1     -49.757  13.324  22.382  0.00  0.00     0.082 A 
ATOM      3  N   UNL d   1     -48.595  13.336  23.212  0.00  0.00    -0.214 NA
ATOM      4  C   UNL d   1     -49.530  12.605  22.067  0.00  0.00     0.283 A 
ATOM      5  N   UNL d   1     -48.821  12.245  22.331  0.00  0.00    -0.183 NA
ATOM      6  C   UNL d   1     -48.367  12.618  22.900  0.00  0.00     0.198 A 
ATOM      7  S   UNL d   1     -49.677  14.404  23.152  0.00  0.00    -0.068 SA
ATOM      8  C   UNL d   1     -50.407  13.804  22.238  0.00  0.00     0.013 A 
ATOM      9  C   UNL d   1     -50.370  14.484  22.714  0.00  0.00     0.031 A 
ATOM     10  O   UNL d   1     -50.006  12.225  21.479  0.00  0.00    -0.265 OA
ATOM     11  C   UNL d   1     -51.024  13.646  21.697  0.00  0.00     0.001 C 
ATOM     12  C   UNL d   1     -50.927  15.117  22.738  0.00  0.00     0.007 C 
ENDROOT
BRANCH   6  13
ATOM     13  S   UNL d   1     -47.662  12.261  23.162  0.00  0.00    -0.043 SA
BRANCH  13  14
ATOM     14  C   UNL d   1     -46.945  12.525  22.877  0.00  0.00     0.101 C 
BRANCH  14  15
ATOM     15  C   UNL d   1     -46.222  12.142  23.129  0.00  0.00     0.286 C 
ATOM     16  O   UNL d   1     -46.258  11.538  23.695  0.00  0.00    -0.265 OA
ATOM     17  N   UNL d   1     -45.506  12.375  22.811  0.00  0.00    -0.206 NA
BRANCH  17  18
ATOM     18  C   UNL d   1     -45.476  12.973  22.251  0.00  0.00     0.102 C 
BRANCH  18  19
ATOM     19  C   UNL d   1     -44.767  13.339  22.076  0.00  0.00     0.021 C 
ATOM     20  C   UNL d   1     -44.278  13.044  21.480  0.00  0.00     0.002 C 
ENDBRANCH  18  19
ENDBRANCH  17  18
ENDBRANCH  14  15
ENDBRANCH  13  14
ENDBRANCH   6  13
TORSDOF 5
ENDMDL
MODEL 3
REMARK VINA RESULT:      -6.1      1.484      4.232
REMARK  5 active torsions:
REMARK  status: ('A' for Active; 'I' for Inactive)
REMARK    1  A    between atoms: S_10  and  C_6 
REMARK    2  A    between atoms: C_15  and  S_10 
REMARK    3  A    between atoms: C_12  and  C_15 
REMARK       I    between atoms: N_16  and  C_12 
REMARK    4  A    between atoms: C_14  and  C_20 
REMARK    5  A    between atoms: C_20  and  N_16 
ROOT
ATOM      1  C   UNL d   1     -47.003  12.523  23.326  0.00  0.00     0.117 A 
ATOM      2  C   UNL d   1     -46.270  12.679  23.006  0.00  0.00     0.082 A 
ATOM      3  N   UNL d   1     -47.597  13.113  23.308  0.00  0.00    -0.214 NA
ATOM      4  C   UNL d   1     -46.105  13.405  22.667  0.00  0.00     0.283 A 
ATOM      5  N   UNL d   1     -46.699  13.995  22.648  0.00  0.00    -0.183 NA
ATOM      6  C   UNL d   1     -47.435  13.838  22.970  0.00  0.00     0.198 A 
ATOM      7  S   UNL d   1     -46.995  11.752  23.622  0.00  0.00    -0.068 SA
ATOM      8  C   UNL d   1     -45.813  12.005  23.105  0.00  0.00     0.013 A 
ATOM      9  C   UNL d   1     -46.255  11.416  23.490  0.00  0.00     0.031 A 
ATOM     10  O   UNL d   1     -45.341  13.560  22.336  0.00  0.00    -0.265 OA
ATOM     11  C   UNL d   1     -45.019  11.909  22.861  0.00  0.00     0.001 C 
ATOM     12  C   UNL d   1     -45.993  10.641  23.698  0.00  0.00     0.007 C 
ENDROOT
BRANCH   6  13
ATOM     13  S   UNL d   1     -48.025  14.425  22.952  0.00  0.00    -0.043 SA
BRANCH  13  14
ATOM     14  C   UNL d   1     -48.699  14.305  22.509  0.00  0.00     0.101 C 
BRANCH  14  15
ATOM     15  C   UNL d   1     -49.306  14.908  22.490  0.00  0.00     0.286 C 
ATOM     16  O   UNL d   1     -49.113  15.687  22.697  0.00  0.00    -0.265 OA
ATOM     17  N   UNL d   1     -50.069  14.711  22.270  0.00  0.00    -0.206 NA
BRANCH  17  18
ATOM     18  C   UNL d   1     -50.256  13.939  22.067  0.00  0.00     0.102 C 
BRANCH  18  19
ATOM     19  C   UNL d   1     -50.993  13.759  21.764  0.00  0.00     0.021 C 
ATOM     20  C   UNL d   1     -51.064  13.320  21.069  0.00  0.00     0.002 C 
ENDBRANCH  18  19
ENDBRANCH  17  18
ENDBRANCH  14  15
ENDBRANCH  13  14
ENDBRANCH   6  13
TORSDOF 5
ENDMDL
MODEL 4
REMARK VINA RESULT:      -5.4      8.217     10.078
REMARK  5 active torsions:
REMARK  status: ('A' for Active; 'I' for Inactive)
REMARK    1  A    between atoms: S_10  and  C_6 
REMARK    2  A    between atoms: C_15  and  S_10 
REMARK    3  A    between atoms: C_12  and  C_15 
REMARK       I    between atoms: N_16  and  C_12 
REMARK    4  A    between atoms: C_14  and  C_20 
REMARK    5  A    between atoms: C_20  and  N_16 
ROOT
ATOM      1  C   UNL d   1     -39.293  15.029  17.534  0.00  0.00     0.117 A 
ATOM      2  C   UNL d   1     -39.114  14.278  17.274  0.00  0.00     0.082 A 
ATOM      3  N   UNL d   1     -39.735  15.128  18.240  0.00  0.00    -0.214 NA
ATOM      4  C   UNL d   1     -39.359  13.618  17.691  0.00  0.00     0.283 A 
ATOM      5  N   UNL d   1     -39.801  13.717  18.396  0.00  0.00    -0.183 NA
ATOM      6  C   UNL d   1     -39.981  14.472  18.657  0.00  0.00     0.198 A 
ATOM      7  S   UNL d   1     -38.972  15.570  17.000  0.00  0.00    -0.068 SA
ATOM      8  C   UNL d   1     -38.683  14.358  16.581  0.00  0.00     0.013 A 
ATOM      9  C   UNL d   1     -38.586  15.162  16.397  0.00  0.00     0.031 A 
ATOM     10  O   UNL d   1     -39.169  12.841  17.414  0.00  0.00    -0.265 OA
ATOM     11  C   UNL d   1     -38.380  13.733  16.116  0.00  0.00     0.001 C 
ATOM     12  C   UNL d   1     -38.179  15.485  15.732  0.00  0.00     0.007 C 
ENDROOT
BRANCH   6  13
ATOM     13  S   UNL d   1     -40.420  14.570  19.358  0.00  0.00    -0.043 SA
BRANCH  13  14
ATOM     14  C   UNL d   1     -40.055  14.467  20.080  0.00  0.00     0.101 C 
BRANCH  14  15
ATOM     15  C   UNL d   1     -40.497  14.603  20.800  0.00  0.00     0.286 C 
ATOM     16  O   UNL d   1     -41.269  14.903  20.754  0.00  0.00    -0.265 OA
ATOM     17  N   UNL d   1     -40.156  14.436  21.524  0.00  0.00    -0.206 NA
BRANCH  17  18
ATOM     18  C   UNL d   1     -39.393  14.139  21.565  0.00  0.00     0.102 C 
BRANCH  18  19
ATOM     19  C   UNL d   1     -38.991  14.131  22.276  0.00  0.00     0.021 C 
ATOM     20  C   UNL d   1     -38.753  13.417  22.615  0.00  0.00     0.002 C 
ENDBRANCH  18  19
ENDBRANCH  17  18
ENDBRANCH  14  15
ENDBRANCH  13  14
ENDBRANCH   6  13
TORSDOF 5
ENDMDL
MODEL 5
REMARK VINA RESULT:      -5.0      8.426      9.783
REMARK  5 active torsions:
REMARK  status: ('A' for Active; 'I' for Inactive)
REMARK    1  A    between atoms: S_10  and  C_6 
REMARK    2  A    between atoms: C_15  and  S_10 
REMARK    3  A    between atoms: C_12  and  C_15 
REMARK       I    between atoms: N_16  and  C_12 
REMARK    4  A    between atoms: C_14  and  C_20 
REMARK    5  A    between atoms: C_20  and  N_16 
ROOT
ATOM      1  C   UNL d   1     -39.384  15.493  20.482  0.00  0.00     0.117 A 
ATOM      2  C   UNL d   1     -39.684  14.917  20.975  0.00  0.00     0.082 A 
ATOM      3  N   UNL d   1     -39.670  15.555  19.697  0.00  0.00    -0.214 NA
ATOM      4  C   UNL d   1     -40.260  14.398  20.714  0.00  0.00     0.283 A 
ATOM      5  N   UNL d   1     -40.546  14.460  19.929  0.00  0.00    -0.183 NA
ATOM      6  C   UNL d   1     -40.244  15.039  19.435  0.00  0.00     0.198 A 
ATOM      7  S   UNL d   1     -38.818  15.922  20.903  0.00  0.00    -0.068 SA
ATOM      8  C   UNL d   1     -39.302  14.993  21.697  0.00  0.00     0.013 A 
ATOM      9  C   UNL d   1     -38.756  15.619  21.666  0.00  0.00     0.031 A 
ATOM     10  O   UNL d   1     -40.566  13.803  21.232  0.00  0.00    -0.265 OA
ATOM     11  C   UNL d   1     -39.431  14.519  22.373  0.00  0.00     0.001 C 
ATOM     12  C   UNL d   1     -38.251  15.882  22.289  0.00  0.00     0.007 C 
ENDROOT
BRANCH   6  13
ATOM     13  S   UNL d   1     -40.528  15.101  18.655  0.00  0.00    -0.043 SA
BRANCH  13  14
ATOM     14  C   UNL d   1     -40.102  14.770  18.043  0.00  0.00     0.101 C 
BRANCH  14  15
ATOM     15  C   UNL d   1     -40.397  14.829  17.242  0.00  0.00     0.286 C 
ATOM     16  O   UNL d   1     -41.174  15.085  17.112  0.00  0.00    -0.265 OA
ATOM     17  N   UNL d   1     -39.911  14.632  16.614  0.00  0.00    -0.206 NA
BRANCH  17  18
ATOM     18  C   UNL d   1     -39.143  14.379  16.747  0.00  0.00     0.102 C 
BRANCH  18  19
ATOM     19  C   UNL d   1     -38.617  14.311  16.126  0.00  0.00     0.021 C 
ATOM     20  C   UNL d   1     -38.123  13.653  16.064  0.00  0.00     0.002 C 
ENDBRANCH  18  19
ENDBRANCH  17  18
ENDBRANCH  14  15
ENDBRANCH  13  14
ENDBRANCH   6  13
TORSDOF 5
ENDMDL
MODEL 6
REMARK VINA RESULT:      -4.8      1.533      4.456
REMARK  5 active torsions:
REMARK  status: ('A' for Active; 'I' for Inactive)
REMARK    1  A    between atoms: S_10  and  C_6 
REMARK    2  A    between atoms: C_15  and  S_10 
REMARK    3  A    between atoms: C_12  and  C_15 
REMARK       I    between atoms: N_16  and  C_12 
REMARK    4  A    between atoms: C_14  and  C_20 
REMARK    5  A    between atoms: C_20  and  N_16 
ROOT
ATOM      1  C   UNL d   1     -46.045  12.463  22.713  0.00  0.00     0.117 A 
ATOM      2  C   UNL d   1     -46.035  13.277  22.676  0.00  0.00     0.082 A 
ATOM      3  N   UNL d   1     -46.718  12.072  23.024  0.00  0.00    -0.214 NA
ATOM      4  C   UNL d   1     -46.671  13.719  22.938  0.00  0.00     0.283 A 
ATOM      5  N   UNL d   1     -47.344  13.328  23.249  0.00  0.00    -0.183 NA
ATOM      6  C   UNL d   1     -47.354  12.510  23.285  0.00  0.00     0.198 A 
ATOM      7  S   UNL d   1     -45.330  12.182  22.411  0.00  0.00    -0.068 SA
ATOM      8  C   UNL d   1     -45.314  13.496  22.351  0.00  0.00     0.013 A 
ATOM      9  C   UNL d   1     -44.862  12.819  22.180  0.00  0.00     0.031 A 
ATOM     10  O   UNL d   1     -46.653  14.564  22.896  0.00  0.00    -0.265 OA
ATOM     11  C   UNL d   1     -45.057  14.278  22.207  0.00  0.00     0.001 C 
ATOM     12  C   UNL d   1     -44.089  12.799  21.842  0.00  0.00     0.007 C 
ENDROOT
BRANCH   6  13
ATOM     13  S   UNL d   1     -48.023  12.121  23.594  0.00  0.00    -0.043 SA
BRANCH  13  14
ATOM     14  C   UNL d   1     -48.768  12.348  23.353  0.00  0.00     0.101 C 
BRANCH  14  15
ATOM     15  C   UNL d   1     -49.415  11.790  23.398  0.00  0.00     0.286 C 
ATOM     16  O   UNL d   1     -49.277  11.030  23.698  0.00  0.00    -0.265 OA
ATOM     17  N   UNL d   1     -50.161  12.010  23.147  0.00  0.00    -0.206 NA
BRANCH  17  18
ATOM     18  C   UNL d   1     -50.293  12.764  22.851  0.00  0.00     0.102 C 
BRANCH  18  19
ATOM     19  C   UNL d   1     -51.004  12.948  22.493  0.00  0.00     0.021 C 
ATOM     20  C   UNL d   1     -51.064  13.600  21.991  0.00  0.00     0.002 C 
ENDBRANCH  18  19
ENDBRANCH  17  18
ENDBRANCH  14  15
ENDBRANCH  13  14
ENDBRANCH   6  13
TORSDOF 5
ENDMDL
MODEL 7
REMARK VINA RESULT:      -4.7      9.135      9.596
REMARK  5 active torsions:
REMARK  status: ('A' for Active; 'I' for Inactive)
REMARK    1  A    between atoms: S_10  and  C_6 
REMARK    2  A    between atoms: C_15  and  S_10 
REMARK    3  A    between atoms: C_12  and  C_15 
REMARK       I    between atoms: N_16  and  C_12 
REMARK    4  A    between atoms: C_14  and  C_20 
REMARK    5  A    between atoms: C_20  and  N_16 
ROOT
ATOM      1  C   UNL d   1     -40.491  15.858  18.514  0.00  0.00     0.117 A 
ATOM      2  C   UNL d   1     -39.845  15.726  18.034  0.00  0.00     0.082 A 
ATOM      3  N   UNL d   1     -40.385  15.909  19.344  0.00  0.00    -0.214 NA
ATOM      4  C   UNL d   1     -39.095  15.644  18.349  0.00  0.00     0.283 A 
ATOM      5  N   UNL d   1     -38.990  15.696  19.179  0.00  0.00    -0.183 NA
ATOM      6  C   UNL d   1     -39.638  15.828  19.660  0.00  0.00     0.198 A 
ATOM      7  S   UNL d   1     -41.161  15.915  18.035  0.00  0.00    -0.068 SA
ATOM      8  C   UNL d   1     -40.119  15.703  17.261  0.00  0.00     0.013 A 
ATOM      9  C   UNL d   1     -40.942  15.820  17.247  0.00  0.00     0.031 A 
ATOM     10  O   UNL d   1     -38.430  15.508  17.844  0.00  0.00    -0.265 OA
ATOM     11  C   UNL d   1     -39.653  15.581  16.578  0.00  0.00     0.001 C 
ATOM     12  C   UNL d   1     -41.440  15.836  16.566  0.00  0.00     0.007 C 
ENDROOT
BRANCH   6  13
ATOM     13  S   UNL d   1     -39.533  15.879  20.485  0.00  0.00    -0.043 SA
BRANCH  13  14
ATOM     14  C   UNL d   1     -39.288  15.222  20.902  0.00  0.00     0.101 C 
BRANCH  14  15
ATOM     15  C   UNL d   1     -39.271  15.246  21.758  0.00  0.00     0.286 C 
ATOM     16  O   UNL d   1     -39.546  15.922  22.151  0.00  0.00    -0.265 OA
ATOM     17  N   UNL d   1     -38.985  14.606  22.177  0.00  0.00    -0.206 NA
BRANCH  17  18
ATOM     18  C   UNL d   1     -38.714  13.940  21.783  0.00  0.00     0.102 C 
BRANCH  18  19
ATOM     19  C   UNL d   1     -38.323  13.350  22.191  0.00  0.00     0.021 C 
ATOM     20  C   UNL d   1     -37.941  12.741  21.785  0.00  0.00     0.002 C 
ENDBRANCH  18  19
ENDBRANCH  17  18
ENDBRANCH  14  15
ENDBRANCH  13  14
ENDBRANCH   6  13
TORSDOF 5
ENDMDL
MODEL 8
REMARK VINA RESULT:      -3.9      8.640     10.049
REMARK  5 active torsions:
REMARK  status: ('A' for Active; 'I' for Inactive)
REMARK    1  A    between atoms: S_10  and  C_6 
REMARK    2  A    between atoms: C_15  and  S_10 
REMARK    3  A    between atoms: C_12  and  C_15 
REMARK       I    between atoms: N_16  and  C_12 
REMARK    4  A    between atoms: C_14  and  C_20 
REMARK    5  A    between atoms: C_20  and  N_16 
ROOT
ATOM      1  C   UNL d   1     -39.166  14.658  20.497  0.00  0.00     0.117 A 
ATOM      2  C   UNL d   1     -39.848  14.980  20.187  0.00  0.00     0.082 A 
ATOM      3  N   UNL d   1     -38.714  14.126  20.034  0.00  0.00    -0.214 NA
ATOM      4  C   UNL d   1     -40.097  14.793  19.431  0.00  0.00     0.283 A 
ATOM      5  N   UNL d   1     -39.644  14.261  18.969  0.00  0.00    -0.183 NA
ATOM      6  C   UNL d   1     -38.960  13.937  19.280  0.00  0.00     0.198 A 
ATOM      7  S   UNL d   1     -39.066  14.952  21.262  0.00  0.00    -0.068 SA
ATOM      8  C   UNL d   1     -40.165  15.472  20.762  0.00  0.00     0.013 A 
ATOM      9  C   UNL d   1     -39.686  15.464  21.441  0.00  0.00     0.031 A 
ATOM     10  O   UNL d   1     -40.806  15.132  19.117  0.00  0.00    -0.265 OA
ATOM     11  C   UNL d   1     -40.866  15.922  20.691  0.00  0.00     0.001 C 
ATOM     12  C   UNL d   1     -39.814  15.893  22.156  0.00  0.00     0.007 C 
ENDROOT
BRANCH   6  13
ATOM     13  S   UNL d   1     -38.510  13.408  18.820  0.00  0.00    -0.043 SA
BRANCH  13  14
ATOM     14  C   UNL d   1     -38.544  13.452  18.006  0.00  0.00     0.101 C 
BRANCH  14  15
ATOM     15  C   UNL d   1     -38.212  12.820  17.534  0.00  0.00     0.286 C 
ATOM     16  O   UNL d   1     -38.108  12.071  17.872  0.00  0.00    -0.265 OA
ATOM     17  N   UNL d   1     -38.000  12.961  16.757  0.00  0.00    -0.206 NA
BRANCH  17  18
ATOM     18  C   UNL d   1     -38.105  13.704  16.427  0.00  0.00     0.102 C 
BRANCH  18  19
ATOM     19  C   UNL d   1     -37.940  13.832  15.637  0.00  0.00     0.021 C 
ATOM     20  C   UNL d   1     -38.368  14.388  15.203  0.00  0.00     0.002 C 
ENDBRANCH  18  19
ENDBRANCH  17  18
ENDBRANCH  14  15
ENDBRANCH  13  14
ENDBRANCH   6  13
TORSDOF 5
ENDMDL
