MODEL 1
REMARK VINA RESULT:      43.4      0.000      0.000
REMARK  3 active torsions:
REMARK  status: ('A' for Active; 'I' for Inactive)
REMARK    1  A    between atoms: C_9  and  C_4 
REMARK    2  A    between atoms: C_10  and  C_7 
REMARK    3  A    between atoms: C_11  and  C_10 
ROOT
ATOM      1  C   UNL d   1     -54.734-101.194 -41.719  0.00  0.00     0.179 A 
ATOM      2  N   UNL d   1     -54.762-101.813 -42.260  0.00  0.00    -0.282 N 
ATOM      3  N   UNL d   1     -54.739-100.480 -42.142  0.00  0.00    -0.221 NA
ATOM      4  C   UNL d   1     -54.770-100.658 -42.942  0.00  0.00     0.101 A 
ATOM      5  S   UNL d   1     -54.711-101.518 -40.962  0.00  0.00    -0.048 SA
ATOM      6  C   UNL d   1     -54.784-101.482 -43.020  0.00  0.00     0.101 A 
ATOM      7  C   UNL d   1     -54.725-102.336 -41.038  0.00  0.00     0.050 A 
ATOM      8  C   UNL d   1     -54.757-102.518 -41.846  0.00  0.00     0.089 A 
ENDROOT
BRANCH   7   9
ATOM      9  C   UNL d   1     -54.711-102.878 -40.418  0.00  0.00     0.008 C 
BRANCH   9  10
ATOM     10  C   UNL d   1     -55.135-102.725 -39.730  0.00  0.00     0.001 A 
ATOM     11  C   UNL d   1     -54.749-102.415 -39.067  0.00  0.00     0.002 A 
ATOM     12  C   UNL d   1     -55.174-102.262 -38.378  0.00  0.00     0.030 A 
ATOM     13  C   UNL d   1     -55.983-102.416 -38.348  0.00  0.00     0.140 A 
ATOM     14  C   UNL d   1     -56.369-102.724 -39.007  0.00  0.00     0.030 A 
ATOM     15  F   UNL d   1     -56.407-102.259 -37.651  0.00  0.00    -0.204 F 
ATOM     16  C   UNL d   1     -55.945-102.879 -39.700  0.00  0.00     0.002 A 
ENDBRANCH   9  10
ENDBRANCH   7   9
BRANCH   4  17
ATOM     17  C   UNL d   1     -54.784-100.120 -43.560  0.00  0.00     0.019 A 
ATOM     18  C   UNL d   1     -54.734 -99.315 -43.409  0.00  0.00     0.002 A 
ATOM     19  C   UNL d   1     -54.749 -98.777 -44.032  0.00  0.00     0.000 A 
ATOM     20  C   UNL d   1     -54.814 -99.047 -44.810  0.00  0.00     0.000 A 
ATOM     21  C   UNL d   1     -54.864 -99.856 -44.962  0.00  0.00     0.000 A 
ATOM     22  C   UNL d   1     -54.850-100.395 -44.340  0.00  0.00     0.002 A 
ENDBRANCH   4  17
TORSDOF 3
ENDMDL
