MODEL 1
REMARK VINA RESULT:      97.8      0.000      0.000
REMARK  4 active torsions:
REMARK  status: ('A' for Active; 'I' for Inactive)
REMARK    1  A    between atoms: N_2  and  S_1 
REMARK    2  A    between atoms: C_4  and  S_1 
REMARK       I    between atoms: C_3  and  N_7 
REMARK    3  A    between atoms: C_6  and  C_3 
REMARK    4  A    between atoms: N_7  and  C_12 
ROOT
ATOM      1  N   UNL d   1     -47.210  31.065  35.436  0.00  0.00    -0.230 N 
ATOM      2  C   UNL d   1     -47.396  30.264  35.496  0.00  0.00     0.076 A 
ATOM      3  C   UNL d   1     -47.943  29.921  34.986  0.00  0.00     0.037 A 
ATOM      4  C   UNL d   1     -48.121  29.111  35.059  0.00  0.00     0.086 A 
ATOM      5  C   UNL d   1     -47.027  29.797  36.080  0.00  0.00     0.017 A 
ATOM      6  C   UNL d   1     -47.207  28.991  36.149  0.00  0.00     0.003 A 
ATOM      7  C   UNL d   1     -46.659  31.404  35.953  0.00  0.00     0.092 A 
ATOM      8  C   UNL d   1     -47.755  28.656  35.635  0.00  0.00     0.019 A 
ATOM      9  C   UNL d   1     -46.292  30.944  36.531  0.00  0.00     0.020 A 
ATOM     10  C   UNL d   1     -46.475  30.144  36.595  0.00  0.00     0.003 A 
ENDROOT
BRANCH   4  11
ATOM     11  N   UNL d   1     -48.671  28.766  34.546  0.00  0.00    -0.208 NA
ATOM     12  C   UNL d   1     -49.151  28.154  34.808  0.00  0.00     0.282 C 
ATOM     13  O   UNL d   1     -49.094  27.873  35.585  0.00  0.00    -0.265 OA
BRANCH  12  14
ATOM     14  C   UNL d   1     -49.697  27.806  34.312  0.00  0.00     0.096 A 
ATOM     15  C   UNL d   1     -49.753  26.973  34.281  0.00  0.00     0.065 A 
ATOM     16 CL   UNL d   1     -49.257  26.514  34.752  0.00  0.00    -0.082 Cl
ATOM     17  C   UNL d   1     -50.303  26.618  33.782  0.00  0.00     0.012 A 
ATOM     18  C   UNL d   1     -50.799  27.087  33.310  0.00  0.00     0.003 A 
ATOM     19  C   UNL d   1     -50.742  27.910  33.342  0.00  0.00     0.030 A 
ATOM     20  C   UNL d   1     -50.192  28.262  33.843  0.00  0.00     0.146 A 
ATOM     21  F   UNL d   1     -50.140  29.077  33.871  0.00  0.00    -0.204 F 
ENDBRANCH  12  14
ENDBRANCH   4  11
BRANCH   1  22
ATOM     22  S   UNL d   1     -47.583  31.521  34.852  0.00  0.00     0.277 S 
ATOM     23  O   UNL d   1     -46.843  31.635  34.495  0.00  0.00    -0.199 OA
ATOM     24  O   UNL d   1     -48.309  31.406  35.208  0.00  0.00    -0.199 OA
BRANCH  22  25
ATOM     25  C   UNL d   1     -47.939  31.974  34.267  0.00  0.00     0.133 A 
ATOM     26  S   UNL d   1     -47.658  32.689  33.968  0.00  0.00    -0.074 SA
ATOM     27  C   UNL d   1     -48.180  32.953  33.395  0.00  0.00     0.036 A 
ATOM     28  C   UNL d   1     -48.793  32.404  33.332  0.00  0.00     0.008 A 
ATOM     29  C   UNL d   1     -48.640  31.796  33.875  0.00  0.00     0.020 A 
ENDBRANCH  22  25
ENDBRANCH   1  22
TORSDOF 4
ENDMDL
MODEL 2
REMARK VINA RESULT:      99.9      2.906      5.772
REMARK  4 active torsions:
REMARK  status: ('A' for Active; 'I' for Inactive)
REMARK    1  A    between atoms: N_2  and  S_1 
REMARK    2  A    between atoms: C_4  and  S_1 
REMARK       I    between atoms: C_3  and  N_7 
REMARK    3  A    between atoms: C_6  and  C_3 
REMARK    4  A    between atoms: N_7  and  C_12 
ROOT
ATOM      1  N   UNL d   1     -51.053  25.731  33.488  0.00  0.00    -0.230 N 
ATOM      2  C   UNL d   1     -50.897  26.535  33.583  0.00  0.00     0.076 A 
ATOM      3  C   UNL d   1     -50.129  26.800  33.717  0.00  0.00     0.037 A 
ATOM      4  C   UNL d   1     -49.986  27.614  33.811  0.00  0.00     0.086 A 
ATOM      5  C   UNL d   1     -51.521  27.085  33.545  0.00  0.00     0.017 A 
ATOM      6  C   UNL d   1     -51.375  27.895  33.639  0.00  0.00     0.003 A 
ATOM      7  C   UNL d   1     -51.829  25.472  33.354  0.00  0.00     0.092 A 
ATOM      8  C   UNL d   1     -50.604  28.151  33.772  0.00  0.00     0.019 A 
ATOM      9  C   UNL d   1     -52.449  26.014  33.315  0.00  0.00     0.020 A 
ATOM     10  C   UNL d   1     -52.297  26.818  33.410  0.00  0.00     0.003 A 
ENDROOT
BRANCH   4  11
ATOM     11  N   UNL d   1     -49.214  27.880  33.945  0.00  0.00    -0.208 NA
ATOM     12  C   UNL d   1     -49.018  28.231  34.662  0.00  0.00     0.282 C 
ATOM     13  O   UNL d   1     -49.585  28.324  35.257  0.00  0.00    -0.265 OA
BRANCH  12  14
ATOM     14  C   UNL d   1     -48.261  28.497  34.806  0.00  0.00     0.096 A 
ATOM     15  C   UNL d   1     -48.124  29.314  34.911  0.00  0.00     0.065 A 
ATOM     16 CL   UNL d   1     -48.757  29.841  34.868  0.00  0.00    -0.082 Cl
ATOM     17  C   UNL d   1     -47.361  29.587  35.056  0.00  0.00     0.012 A 
ATOM     18  C   UNL d   1     -46.730  29.050  35.098  0.00  0.00     0.003 A 
ATOM     19  C   UNL d   1     -46.866  28.242  34.994  0.00  0.00     0.030 A 
ATOM     20  C   UNL d   1     -47.630  27.974  34.849  0.00  0.00     0.146 A 
ATOM     21  F   UNL d   1     -47.760  27.173  34.746  0.00  0.00    -0.204 F 
ENDBRANCH  12  14
ENDBRANCH   4  11
BRANCH   1  22
ATOM     22  S   UNL d   1     -50.425  25.192  33.529  0.00  0.00     0.277 S 
ATOM     23  O   UNL d   1     -49.909  25.805  33.314  0.00  0.00    -0.199 OA
ATOM     24  O   UNL d   1     -50.937  24.592  33.739  0.00  0.00    -0.199 OA
BRANCH  22  25
ATOM     25  C   UNL d   1     -49.793  24.669  33.565  0.00  0.00     0.133 A 
ATOM     26  S   UNL d   1     -49.796  23.885  33.311  0.00  0.00    -0.074 SA
ATOM     27  C   UNL d   1     -49.055  23.565  33.448  0.00  0.00     0.036 A 
ATOM     28  C   UNL d   1     -48.582  24.148  33.790  0.00  0.00     0.008 A 
ATOM     29  C   UNL d   1     -49.043  24.834  33.862  0.00  0.00     0.020 A 
ENDBRANCH  22  25
ENDBRANCH   1  22
TORSDOF 4
ENDMDL
