MODEL 1
REMARK VINA RESULT:      26.4      0.000      0.000
REMARK  3 active torsions:
REMARK  status: ('A' for Active; 'I' for Inactive)
REMARK    1  A    between atoms: S_3  and  N_1 
REMARK    2  A    between atoms: C_8  and  C_4 
REMARK    3  A    between atoms: C_7  and  C_5 
ROOT
ATOM      1  N   UNL d   1      14.343  12.490  -1.456  0.00  0.00    -0.155 N 
ATOM      2  N   UNL d   1      13.983  12.084  -2.090  0.00  0.00    -0.155 NA
ATOM      3  C   UNL d   1      14.417  13.267  -1.667  0.00  0.00     0.096 A 
ATOM      4  C   UNL d   1      13.846  12.636  -2.682  0.00  0.00     0.110 A 
ATOM      5  C   UNL d   1      14.119  13.390  -2.420  0.00  0.00     0.041 A 
ENDROOT
BRANCH   3   6
ATOM      6  C   UNL d   1      14.747  13.857  -1.193  0.00  0.00     0.018 A 
ATOM      7  C   UNL d   1      14.672  14.643  -1.402  0.00  0.00     0.002 A 
ATOM      8  C   UNL d   1      14.264  14.846  -2.089  0.00  0.00     0.000 C 
ATOM      9  C   UNL d   1      15.001  15.233  -0.928  0.00  0.00     0.000 A 
ATOM     10  C   UNL d   1      15.406  15.037  -0.246  0.00  0.00     0.000 A 
ATOM     11  C   UNL d   1      15.485  14.240  -0.029  0.00  0.00     0.000 A 
ATOM     12  C   UNL d   1      15.156  13.651  -0.503  0.00  0.00     0.002 A 
ENDBRANCH   3   6
BRANCH   1  13
ATOM     13  S   UNL d   1      14.570  12.145  -0.760  0.00  0.00     0.266 S 
ATOM     14  O   UNL d   1      15.297  11.983  -1.082  0.00  0.00    -0.203 OA
ATOM     15  O   UNL d   1      13.820  12.305  -0.410  0.00  0.00    -0.203 OA
ATOM     16  C   UNL d   1      14.802  11.779  -0.015  0.00  0.00     0.165 C 
ENDBRANCH   1  13
BRANCH   4  17
ATOM     17  C   UNL d   1      13.499  12.495  -3.417  0.00  0.00     0.049 A 
ATOM     18  S   UNL d   1      13.573  11.794  -3.826  0.00  0.00    -0.085 SA
ATOM     19  C   UNL d   1      13.148  11.877  -4.530  0.00  0.00     0.035 A 
ATOM     20  C   UNL d   1      12.809  12.633  -4.555  0.00  0.00     0.007 A 
ATOM     21  C   UNL d   1      13.027  13.003  -3.875  0.00  0.00     0.009 A 
ENDBRANCH   4  17
TORSDOF 3
ENDMDL
