MODEL 1
REMARK VINA RESULT:      10.1      0.000      0.000
REMARK  4 active torsions:
REMARK  status: ('A' for Active; 'I' for Inactive)
REMARK    1  A    between atoms: C_4  and  C_1 
REMARK    2  A    between atoms: N_7  and  C_2 
REMARK       I    between atoms: N_8  and  C_4 
REMARK       I    between atoms: C_11  and  N_7 
REMARK    3  A    between atoms: C_13  and  N_8 
REMARK    4  A    between atoms: C_22  and  C_11 
ROOT
ATOM      1  C   UNL d   1     -41.638-121.353 -51.711  0.00  0.00     0.175 A 
ATOM      2  C   UNL d   1     -42.092-121.618 -51.142  0.00  0.00     0.114 A 
ATOM      3  O   UNL d   1     -41.203-121.940 -51.960  0.00  0.00    -0.301 OA
ATOM      4  C   UNL d   1     -41.937-122.369 -51.038  0.00  0.00     0.043 A 
ATOM      5  C   UNL d   1     -41.386-122.569 -51.545  0.00  0.00     0.102 A 
ATOM      6  C   UNL d   1     -42.221-122.893 -50.555  0.00  0.00     0.004 A 
ATOM      7  C   UNL d   1     -41.123-123.289 -51.566  0.00  0.00     0.025 A 
ATOM      8  C   UNL d   1     -41.956-123.620 -50.575  0.00  0.00     0.000 A 
ATOM      9  C   UNL d   1     -41.408-123.815 -51.080  0.00  0.00     0.002 A 
ENDROOT
BRANCH   1  10
ATOM     10  C   UNL d   1     -41.624-120.638 -51.980  0.00  0.00     0.303 C 
ATOM     11  N   UNL d   1     -41.948-120.500 -53.435  0.00  0.00    -0.206 NA
ATOM     12  O   UNL d   1     -41.463-119.994 -51.594  0.00  0.00    -0.263 OA
BRANCH  11  13
ATOM     13  C   UNL d   1     -42.126-121.175 -53.884  0.00  0.00     0.087 A 
ATOM     14  C   UNL d   1     -41.536-121.739 -54.036  0.00  0.00     0.046 A 
ATOM     15  C   UNL d   1     -41.714-122.411 -54.483  0.00  0.00     0.124 A 
ATOM     16  O   UNL d   1     -41.126-122.981 -54.639  0.00  0.00    -0.301 OA
ATOM     17  C   UNL d   1     -42.485-122.535 -54.789  0.00  0.00     0.123 A 
ATOM     18  C   UNL d   1     -41.304-123.654 -55.086  0.00  0.00     0.149 A 
ATOM     19  C   UNL d   1     -42.067-123.769 -55.385  0.00  0.00     0.149 A 
ATOM     20  O   UNL d   1     -42.666-123.195 -55.230  0.00  0.00    -0.301 OA
ATOM     21  C   UNL d   1     -43.072-121.964 -54.632  0.00  0.00     0.028 A 
ATOM     22  C   UNL d   1     -42.892-121.279 -54.177  0.00  0.00     0.021 A 
ENDBRANCH  11  13
ENDBRANCH   1  10
BRANCH   2  23
ATOM     23  N   UNL d   1     -42.609-121.201 -50.748  0.00  0.00    -0.206 NA
ATOM     24  C   UNL d   1     -43.411-121.416 -50.754  0.00  0.00     0.279 C 
ATOM     25  O   UNL d   1     -43.662-122.087 -51.186  0.00  0.00    -0.265 OA
BRANCH  24  26
ATOM     26  C   UNL d   1     -43.967-120.961 -50.326  0.00  0.00     0.062 C 
ATOM     27  C   UNL d   1     -44.582-121.336 -49.922  0.00  0.00     0.005 C 
ENDBRANCH  24  26
ENDBRANCH   2  23
TORSDOF 4
ENDMDL
