MODEL 1
REMARK VINA RESULT:     107.3      0.000      0.000
REMARK  8 active torsions:
REMARK  status: ('A' for Active; 'I' for Inactive)
REMARK    1  A    between atoms: O_8  and  C_1 
REMARK    2  A    between atoms: C_10  and  C_5 
REMARK    3  A    between atoms: C_12  and  O_8 
REMARK    4  A    between atoms: N_9  and  C_10 
REMARK    5  A    between atoms: C_25  and  N_14 
REMARK    6  A    between atoms: O_24  and  C_17 
REMARK    7  A    between atoms: C_30  and  O_24 
REMARK    8  A    between atoms: C_29  and  C_25 
ROOT
ATOM      1  C   UNL d   1      61.554  46.066  50.682  0.00  0.00     0.161 A 
ATOM      2  C   UNL d   1      60.945  47.610  50.747  0.00  0.00     0.108 A 
ATOM      3  C   UNL d   1      61.490  47.405  50.151  0.00  0.00     0.064 A 
ATOM      4  C   UNL d   1      61.791  46.636  50.121  0.00  0.00     0.222 A 
ATOM      5  C   UNL d   1      60.642  48.379  50.778  0.00  0.00     0.079 A 
ATOM      6  O   UNL d   1      60.698  47.055  51.312  0.00  0.00    -0.305 OA
ATOM      7  C   UNL d   1      61.009  46.275  51.276  0.00  0.00     0.126 A 
ATOM      8  C   UNL d   1      61.722  47.965  49.601  0.00  0.00     0.009 A 
ATOM      9  C   UNL d   1      60.881  48.937  50.222  0.00  0.00     0.199 A 
ATOM     10  O   UNL d   1      62.332  46.429  49.532  0.00  0.00    -0.284 OA
ATOM     11  C   UNL d   1      61.421  48.730  49.633  0.00  0.00     0.042 A 
ATOM     12  O   UNL d   1      60.579  49.703  50.254  0.00  0.00    -0.286 OA
ATOM     13  C   UNL d   1      60.770  45.716  51.832  0.00  0.00     0.029 C 
ENDROOT
BRANCH   1  14
ATOM     14  O   UNL d   1      61.859  45.299  50.646  0.00  0.00    -0.300 OA
BRANCH  14  15
ATOM     15  C   UNL d   1      61.572  44.773  50.082  0.00  0.00     0.123 A 
ATOM     16  C   UNL d   1      61.637  43.962  50.208  0.00  0.00     0.123 A 
ATOM     17  C   UNL d   1      61.353  43.433  49.650  0.00  0.00     0.027 A 
ATOM     18  C   UNL d   1      61.000  43.710  48.959  0.00  0.00     0.002 A 
ATOM     19  C   UNL d   1      60.932  44.531  48.828  0.00  0.00     0.002 A 
ATOM     20  C   UNL d   1      61.219  45.058  49.392  0.00  0.00     0.027 A 
BRANCH  16  21
ATOM     21  O   UNL d   1      61.989  43.680  50.898  0.00  0.00    -0.303 OA
BRANCH  21  22
ATOM     22  C   UNL d   1      62.220  42.892  50.948  0.00  0.00     0.123 C 
ATOM     23  C   UNL d   1      62.968  42.659  50.697  0.00  0.00     0.029 C 
ENDBRANCH  21  22
ENDBRANCH  16  21
ENDBRANCH  14  15
ENDBRANCH   1  14
BRANCH   5  24
ATOM     24  C   UNL d   1      60.102  48.594  51.363  0.00  0.00     0.086 C 
BRANCH  24  25
ATOM     25  N   UNL d   1      59.353  48.872  51.141  0.00  0.00    -0.300 N 
ATOM     26  C   UNL d   1      59.128  48.874  50.345  0.00  0.00     0.100 A 
ATOM     27  C   UNL d   1      58.386  49.150  50.130  0.00  0.00     0.100 A 
ATOM     28  N   UNL d   1      57.860  49.426  50.703  0.00  0.00    -0.297 N 
ATOM     29  C   UNL d   1      58.085  49.423  51.500  0.00  0.00     0.100 A 
ATOM     30  C   UNL d   1      58.835  49.145  51.722  0.00  0.00     0.100 A 
BRANCH  28  31
ATOM     31  C   UNL d   1      57.116  49.702  50.487  0.00  0.00     0.126 C 
BRANCH  31  32
ATOM     32  C   UNL d   1      56.550  49.175  50.201  0.00  0.00     0.253 C 
ATOM     33  O   UNL d   1      56.058  49.400  49.581  0.00  0.00    -0.281 OA
ENDBRANCH  31  32
ENDBRANCH  28  31
ENDBRANCH  24  25
ENDBRANCH   5  24
TORSDOF 8
ENDMDL
