MODEL 1
REMARK VINA RESULT:      13.8      0.000      0.000
REMARK  2 active torsions:
REMARK  status: ('A' for Active; 'I' for Inactive)
REMARK    1  A    between atoms: C_7  and  C_1 
REMARK    2  A    between atoms: C_5  and  C_3 
ROOT
ATOM      1  C   UNL d   1      46.170 -18.374  43.046  0.00  0.00     0.067 A 
ATOM      2  N   UNL d   1      46.163 -18.020  44.659  0.00  0.00    -0.244 NA
ATOM      3  C   UNL d   1      46.005 -17.426  44.112  0.00  0.00     0.104 A 
ATOM      4  C   UNL d   1      46.009 -17.599  43.306  0.00  0.00     0.027 A 
ATOM      5  C   UNL d   1      46.328 -18.968  43.595  0.00  0.00     0.024 A 
ATOM      6  C   UNL d   1      46.324 -18.795  44.399  0.00  0.00     0.082 A 
ATOM      7  C   UNL d   1      46.488 -19.735  43.338  0.00  0.00     0.002 A 
ATOM      8  C   UNL d   1      46.482 -19.391  44.955  0.00  0.00     0.019 A 
ATOM      9  C   UNL d   1      46.645 -20.330  43.885  0.00  0.00     0.000 A 
ATOM     10  C   UNL d   1      46.643 -20.159  44.698  0.00  0.00     0.002 A 
ENDROOT
BRANCH   3  11
ATOM     11  C   UNL d   1      45.844 -16.655  44.370  0.00  0.00     0.118 A 
ATOM     12  O   UNL d   1      46.325 -15.986  44.322  0.00  0.00    -0.304 OA
ATOM     13  C   UNL d   1      45.909 -15.357  44.657  0.00  0.00     0.123 A 
ATOM     14  C   UNL d   1      45.186 -15.633  44.908  0.00  0.00     0.029 A 
ATOM     15  C   UNL d   1      45.146 -16.437  44.730  0.00  0.00     0.028 A 
ENDBRANCH   3  11
BRANCH   1  16
ATOM     16  C   UNL d   1      46.173 -18.548  42.228  0.00  0.00     0.211 C 
ATOM     17  O   UNL d   1      46.533 -18.022  41.705  0.00  0.00    -0.644 OA
ATOM     18  O   UNL d   1      45.818 -19.240  41.950  0.00  0.00    -0.644 OA
ENDBRANCH   1  16
TORSDOF 2
ENDMDL
