MODEL 1
REMARK VINA RESULT:      57.7      0.000      0.000
REMARK  8 active torsions:
REMARK  status: ('A' for Active; 'I' for Inactive)
REMARK    1  A    between atoms: N_4  and  S_1 
REMARK    2  A    between atoms: C_10  and  S_1 
REMARK    3  A    between atoms: C_7  and  N_2 
REMARK    4  A    between atoms: N_3  and  C_6 
REMARK    5  A    between atoms: C_5  and  N_4 
REMARK    6  A    between atoms: C_6  and  C_5 
REMARK    7  A    between atoms: C_11  and  C_6 
REMARK    8  A    between atoms: O_19  and  C_17 
ROOT
ATOM      1  C   UNL d   1      13.549  12.891  -3.517  0.00  0.00     0.086 C 
ENDROOT
BRANCH   1   2
ATOM      2  N   UNL d   1      13.839  13.645  -3.337  0.00  0.00    -0.300 N 
ATOM      3  C   UNL d   1      13.313  14.272  -3.212  0.00  0.00     0.100 A 
ATOM      4  C   UNL d   1      13.599  15.021  -3.033  0.00  0.00     0.100 A 
ATOM      5  N   UNL d   1      14.410  15.150  -2.978  0.00  0.00    -0.300 N 
ATOM      6  C   UNL d   1      14.935  14.530  -3.101  0.00  0.00     0.100 A 
ATOM      7  C   UNL d   1      14.650  13.774  -3.281  0.00  0.00     0.100 A 
BRANCH   5   8
ATOM      8  C   UNL d   1      14.696  15.899  -2.799  0.00  0.00     0.086 A 
ATOM      9  C   UNL d   1      14.951  16.395  -3.401  0.00  0.00     0.110 A 
ATOM     10  C   UNL d   1      15.238  17.148  -3.224  0.00  0.00     0.026 A 
ATOM     11  C   UNL d   1      15.269  17.404  -2.433  0.00  0.00     0.002 A 
ATOM     12  C   UNL d   1      15.012  16.904  -1.829  0.00  0.00     0.002 A 
ATOM     13  C   UNL d   1      14.727  16.155  -2.008  0.00  0.00     0.019 A 
BRANCH   9  14
ATOM     14  O   UNL d   1      14.921  16.142  -4.184  0.00  0.00    -0.327 OA
ATOM     15  C   UNL d   1      15.558  16.276  -4.685  0.00  0.00     0.181 C 
ENDBRANCH   9  14
ENDBRANCH   5   8
ENDBRANCH   1   2
BRANCH   1  16
ATOM     16  C   UNL d   1      13.472  12.319  -2.918  0.00  0.00     0.130 C 
BRANCH  16  17
ATOM     17  N   UNL d   1      13.845  12.435  -2.190  0.00  0.00    -0.155 NA
BRANCH  17  18
ATOM     18  S   UNL d   1      13.515  12.110  -1.504  0.00  0.00     0.285 S 
ATOM     19  O   UNL d   1      13.188  11.786  -0.818  0.00  0.00    -0.198 OA
ATOM     20  O   UNL d   1      12.825  11.938  -1.928  0.00  0.00    -0.198 OA
BRANCH  18  21
ATOM     21  C   UNL d   1      14.212  12.285  -1.083  0.00  0.00     0.105 A 
ATOM     22  C   UNL d   1      14.860  11.781  -1.140  0.00  0.00     0.013 A 
ATOM     23  C   UNL d   1      15.549  11.949  -0.728  0.00  0.00     0.001 A 
ATOM     24  C   UNL d   1      15.599  12.636  -0.245  0.00  0.00     0.000 A 
ATOM     25  C   UNL d   1      14.940  13.141  -0.192  0.00  0.00     0.001 A 
ATOM     26  C   UNL d   1      14.250  12.960  -0.613  0.00  0.00     0.013 A 
ENDBRANCH  18  21
ENDBRANCH  17  18
ENDBRANCH  16  17
ENDBRANCH   1  16
BRANCH   1  27
ATOM     27  C   UNL d   1      13.336  12.704  -4.289  0.00  0.00     0.037 A 
ATOM     28  C   UNL d   1      13.454  13.248  -4.893  0.00  0.00     0.100 A 
ATOM     29  N   UNL d   1      13.238  13.059  -5.673  0.00  0.00    -0.242 NA
ATOM     30  C   UNL d   1      12.906  12.327  -5.841  0.00  0.00     0.099 A 
ATOM     31  C   UNL d   1      12.788  11.782  -5.238  0.00  0.00     0.021 A 
ATOM     32  C   UNL d   1      13.003  11.971  -4.459  0.00  0.00     0.005 A 
ENDBRANCH   1  27
TORSDOF 8
ENDMDL
MODEL 2
REMARK VINA RESULT:      60.5      1.611      4.136
REMARK  8 active torsions:
REMARK  status: ('A' for Active; 'I' for Inactive)
REMARK    1  A    between atoms: N_4  and  S_1 
REMARK    2  A    between atoms: C_10  and  S_1 
REMARK    3  A    between atoms: C_7  and  N_2 
REMARK    4  A    between atoms: N_3  and  C_6 
REMARK    5  A    between atoms: C_5  and  N_4 
REMARK    6  A    between atoms: C_6  and  C_5 
REMARK    7  A    between atoms: C_11  and  C_6 
REMARK    8  A    between atoms: O_19  and  C_17 
ROOT
ATOM      1  C   UNL d   1      14.508  16.179  -3.194  0.00  0.00     0.086 C 
ENDROOT
BRANCH   1   2
ATOM      2  N   UNL d   1      14.220  15.443  -3.439  0.00  0.00    -0.300 N 
ATOM      3  C   UNL d   1      13.432  15.236  -3.288  0.00  0.00     0.100 A 
ATOM      4  C   UNL d   1      13.144  14.505  -3.530  0.00  0.00     0.100 A 
ATOM      5  N   UNL d   1      13.638  13.977  -3.923  0.00  0.00    -0.300 N 
ATOM      6  C   UNL d   1      14.420  14.179  -4.074  0.00  0.00     0.100 A 
ATOM      7  C   UNL d   1      14.714  14.915  -3.831  0.00  0.00     0.100 A 
BRANCH   5   8
ATOM      8  C   UNL d   1      13.350  13.247  -4.165  0.00  0.00     0.086 A 
ATOM      9  C   UNL d   1      13.348  12.614  -3.643  0.00  0.00     0.110 A 
ATOM     10  C   UNL d   1      13.059  11.880  -3.884  0.00  0.00     0.026 A 
ATOM     11  C   UNL d   1      12.769  11.782  -4.657  0.00  0.00     0.002 A 
ATOM     12  C   UNL d   1      12.771  12.420  -5.181  0.00  0.00     0.002 A 
ATOM     13  C   UNL d   1      13.059  13.150  -4.939  0.00  0.00     0.019 A 
BRANCH   9  14
ATOM     14  O   UNL d   1      13.635  12.710  -2.877  0.00  0.00    -0.327 OA
ATOM     15  C   UNL d   1      13.647  12.073  -2.359  0.00  0.00     0.181 C 
ENDBRANCH   9  14
ENDBRANCH   5   8
ENDBRANCH   1   2
BRANCH   1  16
ATOM     16  C   UNL d   1      14.495  16.386  -2.388  0.00  0.00     0.130 C 
BRANCH  16  17
ATOM     17  N   UNL d   1      14.933  15.945  -1.844  0.00  0.00    -0.155 NA
BRANCH  17  18
ATOM     18  S   UNL d   1      15.128  16.275  -1.110  0.00  0.00     0.285 S 
ATOM     19  O   UNL d   1      15.322  16.602  -0.378  0.00  0.00    -0.198 OA
ATOM     20  O   UNL d   1      15.122  17.027  -1.458  0.00  0.00    -0.198 OA
BRANCH  18  21
ATOM     21  C   UNL d   1      15.131  15.516  -0.768  0.00  0.00     0.105 A 
ATOM     22  C   UNL d   1      14.468  15.251  -0.358  0.00  0.00     0.013 A 
ATOM     23  C   UNL d   1      14.466  14.505  -0.018  0.00  0.00     0.001 A 
ATOM     24  C   UNL d   1      15.140  14.005  -0.086  0.00  0.00     0.000 A 
ATOM     25  C   UNL d   1      15.806  14.279  -0.501  0.00  0.00     0.001 A 
ATOM     26  C   UNL d   1      15.795  15.035  -0.840  0.00  0.00     0.013 A 
ENDBRANCH  18  21
ENDBRANCH  17  18
ENDBRANCH  16  17
ENDBRANCH   1  16
BRANCH   1  27
ATOM     27  C   UNL d   1      14.810  16.709  -3.746  0.00  0.00     0.037 A 
ATOM     28  C   UNL d   1      14.313  17.045  -4.308  0.00  0.00     0.100 A 
ATOM     29  N   UNL d   1      14.617  17.581  -4.866  0.00  0.00    -0.242 NA
ATOM     30  C   UNL d   1      15.415  17.776  -4.856  0.00  0.00     0.099 A 
ATOM     31  C   UNL d   1      15.912  17.441  -4.294  0.00  0.00     0.021 A 
ATOM     32  C   UNL d   1      15.608  16.905  -3.737  0.00  0.00     0.005 A 
ENDBRANCH   1  27
TORSDOF 8
ENDMDL
