MODEL 1
REMARK VINA RESULT:      96.4      0.000      0.000
REMARK  8 active torsions:
REMARK  status: ('A' for Active; 'I' for Inactive)
REMARK    1  A    between atoms: C_11  and  C_1 
REMARK    2  A    between atoms: C_10  and  C_2 
REMARK    3  A    between atoms: C_4  and  C_3 
REMARK    4  A    between atoms: C_14  and  C_9 
REMARK    5  A    between atoms: O_17  and  C_10 
REMARK    6  A    between atoms: O_18  and  C_11 
REMARK    7  A    between atoms: C_24  and  O_17 
REMARK    8  A    between atoms: C_23  and  O_18 
ROOT
ATOM      1  C   UNL d   1     -57.559 -99.075 -43.924  0.00  0.00     0.083 A 
ATOM      2  C   UNL d   1     -56.568 -99.200 -44.981  0.00  0.00     0.083 A 
ATOM      3  C   UNL d   1     -56.789 -99.213 -44.186  0.00  0.00     0.036 A 
ATOM      4  C   UNL d   1     -57.147 -99.041 -45.539  0.00  0.00     0.087 A 
ATOM      5  C   UNL d   1     -58.162 -98.907 -44.526  0.00  0.00     0.087 A 
ATOM      6  N   UNL d   1     -57.934 -98.895 -45.333  0.00  0.00    -0.245 NA
ATOM      7  C   UNL d   1     -56.939 -99.021 -46.386  0.00  0.00     0.021 C 
ATOM      8  C   UNL d   1     -58.944 -98.763 -44.318  0.00  0.00     0.021 C 
ENDROOT
BRANCH   3   9
ATOM      9  C   UNL d   1     -56.219 -99.372 -43.602  0.00  0.00     0.100 A 
ATOM     10  O   UNL d   1     -56.077-100.109 -43.229  0.00  0.00    -0.307 OA
ATOM     11  C   UNL d   1     -55.457 -99.978 -42.693  0.00  0.00     0.100 A 
ATOM     12  C   UNL d   1     -55.239 -99.185 -42.749  0.00  0.00     0.027 A 
ATOM     13  C   UNL d   1     -55.698 -98.818 -43.298  0.00  0.00     0.027 A 
BRANCH  11  14
ATOM     14  C   UNL d   1     -55.236-100.655 -42.265  0.00  0.00     0.023 A 
ATOM     15  C   UNL d   1     -55.331-100.645 -41.452  0.00  0.00     0.002 A 
ATOM     16  C   UNL d   1     -55.125-101.291 -41.007  0.00  0.00     0.000 A 
ATOM     17  C   UNL d   1     -54.802-101.987 -41.414  0.00  0.00     0.000 A 
ATOM     18  C   UNL d   1     -54.715-101.975 -42.229  0.00  0.00     0.000 A 
ATOM     19  C   UNL d   1     -54.940-101.294 -42.639  0.00  0.00     0.002 A 
ENDBRANCH  11  14
ENDBRANCH   3   9
BRANCH   2  20
ATOM     20  C   UNL d   1     -55.793 -99.339 -45.239  0.00  0.00     0.302 C 
ATOM     21  O   UNL d   1     -55.228 -98.763 -45.174  0.00  0.00    -0.259 OA
BRANCH  20  22
ATOM     22  O   UNL d   1     -55.578-100.064 -45.567  0.00  0.00    -0.271 OA
BRANCH  22  23
ATOM     23  C   UNL d   1     -54.722-100.520 -45.510  0.00  0.00     0.126 C 
ATOM     24  C   UNL d   1     -54.781-101.338 -45.542  0.00  0.00     0.029 C 
ENDBRANCH  22  23
ENDBRANCH  20  22
ENDBRANCH   2  20
BRANCH   1  25
ATOM     25  C   UNL d   1     -57.795 -99.087 -43.101  0.00  0.00     0.302 C 
ATOM     26  O   UNL d   1     -57.330 -98.756 -42.537  0.00  0.00    -0.259 OA
BRANCH  25  27
ATOM     27  O   UNL d   1     -58.521 -99.451 -42.911  0.00  0.00    -0.271 OA
BRANCH  27  28
ATOM     28  C   UNL d   1     -58.999 -99.205 -42.276  0.00  0.00     0.126 C 
ATOM     29  C   UNL d   1     -59.595 -99.827 -42.254  0.00  0.00     0.029 C 
ENDBRANCH  27  28
ENDBRANCH  25  27
ENDBRANCH   1  25
TORSDOF 8
ENDMDL
