MODEL 1
REMARK VINA RESULT:      51.1      0.000      0.000
REMARK  8 active torsions:
REMARK  status: ('A' for Active; 'I' for Inactive)
REMARK    1  A    between atoms: C_6  and  C_1 
REMARK    2  A    between atoms: C_7  and  C_2 
REMARK    3  A    between atoms: C_14  and  N_4 
REMARK    4  A    between atoms: C_8  and  C_6 
REMARK    5  A    between atoms: C_9  and  C_8 
REMARK    6  A    between atoms: C_12  and  C_9 
REMARK    7  A    between atoms: C_10  and  C_11 
REMARK    8  A    between atoms: C_11  and  C_14 
ROOT
ATOM      1  C   UNL d   1     -58.236 -98.761 -45.401  0.00  0.00     0.039 A 
ATOM      2  C   UNL d   1     -58.838 -98.759 -44.860  0.00  0.00     0.103 A 
ATOM      3  N   UNL d   1     -59.607 -98.758 -45.111  0.00  0.00    -0.165 NA
ATOM      4  N   UNL d   1     -59.170 -98.760 -46.450  0.00  0.00    -0.227 N 
ATOM      5  C   UNL d   1     -58.401 -98.762 -46.199  0.00  0.00     0.102 A 
ENDROOT
BRANCH   1   6
ATOM      6  C   UNL d   1     -57.450 -98.763 -45.152  0.00  0.00     0.006 C 
BRANCH   6   7
ATOM      7  C   UNL d   1     -56.997 -99.454 -45.196  0.00  0.00     0.042 C 
BRANCH   7   8
ATOM      8  C   UNL d   1     -56.164 -99.417 -45.155  0.00  0.00     0.196 C 
ATOM      9  O   UNL d   1     -55.774 -98.757 -45.458  0.00  0.00    -0.287 OA
BRANCH   8  10
ATOM     10  C   UNL d   1     -55.929-100.119 -44.786  0.00  0.00     0.039 A 
ATOM     11  C   UNL d   1     -55.271-100.132 -44.286  0.00  0.00     0.004 A 
ATOM     12  C   UNL d   1     -55.035-100.835 -43.916  0.00  0.00     0.011 A 
ATOM     13  C   UNL d   1     -55.461-101.532 -44.047  0.00  0.00     0.058 A 
ATOM     14  C   UNL d   1     -56.127-101.512 -44.554  0.00  0.00     0.011 A 
ATOM     15 CL   UNL d   1     -55.229-102.235 -43.680  0.00  0.00    -0.082 Cl
ATOM     16  C   UNL d   1     -56.364-100.814 -44.924  0.00  0.00     0.004 A 
ENDBRANCH   8  10
ENDBRANCH   7   8
ENDBRANCH   6   7
ENDBRANCH   1   6
BRANCH   2  17
ATOM     17  C   UNL d   1     -58.679 -98.759 -44.059  0.00  0.00     0.020 A 
ATOM     18  C   UNL d   1     -59.285 -98.760 -43.520  0.00  0.00     0.008 A 
ATOM     19  C   UNL d   1     -59.117 -98.760 -42.716  0.00  0.00     0.035 A 
ATOM     20 BR   UNL d   1     -59.735 -98.761 -42.178  0.00  0.00    -0.049 Br
ATOM     21  C   UNL d   1     -58.352 -98.758 -42.467  0.00  0.00     0.007 A 
ATOM     22  C   UNL d   1     -57.745 -98.756 -43.013  0.00  0.00     0.001 A 
ATOM     23  C   UNL d   1     -57.907 -98.757 -43.807  0.00  0.00     0.002 A 
ENDBRANCH   2  17
BRANCH   4  24
ATOM     24  C   UNL d   1     -59.538 -98.760 -47.175  0.00  0.00     0.107 C 
BRANCH  24  25
ATOM     25  C   UNL d   1     -59.886 -99.513 -47.233  0.00  0.00     0.091 C 
BRANCH  25  26
ATOM     26  C   UNL d   1     -59.912 -99.671 -48.045  0.00  0.00     0.213 C 
ATOM     27  O   UNL d   1     -59.917-100.463 -48.325  0.00  0.00    -0.644 OA
ATOM     28  O   UNL d   1     -59.933 -99.051 -48.581  0.00  0.00    -0.644 OA
ENDBRANCH  25  26
ENDBRANCH  24  25
ENDBRANCH   4  24
TORSDOF 8
ENDMDL
