MODEL 1
REMARK VINA RESULT:      56.1      0.000      0.000
REMARK  5 active torsions:
REMARK  status: ('A' for Active; 'I' for Inactive)
REMARK    1  A    between atoms: C_20  and  C_3 
REMARK    2  A    between atoms: C_6  and  C_8 
REMARK       I    between atoms: C_8  and  N_17 
REMARK    3  A    between atoms: N_17  and  C_21 
REMARK    4  A    between atoms: O_22  and  C_18 
REMARK    5  A    between atoms: C_21  and  C_20 
ROOT
ATOM      1  N   UNL d   1      61.449  48.150  49.858  0.00  0.00    -0.208 NA
ATOM      2  C   UNL d   1      61.079  48.862  50.052  0.00  0.00     0.279 A 
ATOM      3  C   UNL d   1      60.487  48.877  50.638  0.00  0.00     0.059 A 
ATOM      4  C   UNL d   1      61.228  47.448  50.250  0.00  0.00     0.087 A 
ATOM      5  C   UNL d   1      60.271  48.179  51.023  0.00  0.00     0.006 A 
ATOM      6  C   UNL d   1      60.641  47.470  50.829  0.00  0.00     0.018 A 
ATOM      7  C   UNL d   1      61.603  46.739  50.049  0.00  0.00     0.043 A 
ATOM      8  O   UNL d   1      61.295  49.557  49.667  0.00  0.00    -0.265 OA
ATOM      9  C   UNL d   1      60.426  46.768  51.215  0.00  0.00     0.004 A 
ATOM     10  C   UNL d   1      61.387  46.045  50.434  0.00  0.00     0.096 A 
ATOM     11  C   UNL d   1      60.795  46.059  51.020  0.00  0.00     0.024 A 
ENDROOT
BRANCH   3  12
ATOM     12  C   UNL d   1      60.123  49.585  50.827  0.00  0.00     0.026 C 
BRANCH  12  13
ATOM     13  C   UNL d   1      59.325  49.612  51.015  0.00  0.00     0.102 C 
BRANCH  13  14
ATOM     14  N   UNL d   1      58.748  49.626  50.425  0.00  0.00    -0.206 NA
ATOM     15  C   UNL d   1      57.947  49.627  50.626  0.00  0.00     0.285 C 
ATOM     16  O   UNL d   1      57.717  49.613  51.413  0.00  0.00    -0.265 OA
BRANCH  15  17
ATOM     17  C   UNL d   1      57.376  49.641  50.029  0.00  0.00     0.087 A 
ATOM     18  S   UNL d   1      57.520  49.600  49.226  0.00  0.00    -0.082 SA
ATOM     19  C   UNL d   1      56.815  49.631  48.828  0.00  0.00     0.036 A 
ATOM     20  C   UNL d   1      56.210  49.693  49.392  0.00  0.00     0.008 A 
ATOM     21  C   UNL d   1      56.561  49.699  50.138  0.00  0.00     0.012 A 
ENDBRANCH  15  17
ENDBRANCH  13  14
ENDBRANCH  12  13
ENDBRANCH   3  12
BRANCH  10  22
ATOM     22  O   UNL d   1      61.757  45.335  50.240  0.00  0.00    -0.328 OA
ATOM     23  C   UNL d   1      62.102  45.242  49.498  0.00  0.00     0.181 C 
ENDBRANCH  10  22
TORSDOF 5
ENDMDL
