MODEL 1
REMARK VINA RESULT:      -3.0      0.000      0.000
REMARK  8 active torsions:
REMARK  status: ('A' for Active; 'I' for Inactive)
REMARK    1  A    between atoms: C_8  and  C_5 
REMARK    2  A    between atoms: S_22  and  C_6 
REMARK    3  A    between atoms: C_9  and  C_7 
REMARK    4  A    between atoms: C_12  and  C_9 
REMARK    5  A    between atoms: C_25  and  S_22 
REMARK    6  A    between atoms: O_24  and  C_26 
REMARK    7  A    between atoms: C_27  and  O_24 
REMARK    8  A    between atoms: C_26  and  C_25 
ROOT
ATOM      1  C   UNL d   1     -40.939  14.233  20.801  0.00  0.00     0.082 A 
ATOM      2  N   UNL d   1     -40.845  14.687  20.096  0.00  0.00    -0.238 NA
ATOM      3  C   UNL d   1     -39.519  15.077  20.549  0.00  0.00     0.092 A 
ATOM      4  C   UNL d   1     -40.330  14.213  21.356  0.00  0.00     0.019 A 
ATOM      5  C   UNL d   1     -39.626  14.630  21.233  0.00  0.00     0.019 A 
ATOM      6  C   UNL d   1     -40.143  15.103  19.973  0.00  0.00     0.120 A 
ATOM      7  C   UNL d   1     -41.563  13.768  21.074  0.00  0.00     0.018 A 
ATOM      8  C   UNL d   1     -38.795  15.501  20.433  0.00  0.00     0.103 C 
ATOM      9  N   UNL d   1     -38.078  15.921  20.317  0.00  0.00    -0.191 NA
ATOM     10  C   UNL d   1     -40.581  13.730  21.976  0.00  0.00     0.002 A 
ATOM     11  C   UNL d   1     -41.348  13.451  21.807  0.00  0.00     0.002 A 
ENDROOT
BRANCH   5  12
ATOM     12  C   UNL d   1     -39.018  14.598  21.807  0.00  0.00     0.030 A 
ATOM     13  S   UNL d   1     -39.045  15.104  22.441  0.00  0.00    -0.086 SA
ATOM     14  C   UNL d   1     -38.392  14.962  22.916  0.00  0.00     0.035 A 
ATOM     15  C   UNL d   1     -37.970  14.359  22.558  0.00  0.00     0.007 A 
ATOM     16  C   UNL d   1     -38.364  14.142  21.875  0.00  0.00     0.007 A 
ENDBRANCH   5  12
BRANCH   6  17
ATOM     17  S   UNL d   1     -40.051  15.546  19.285  0.00  0.00    -0.065 SA
BRANCH  17  18
ATOM     18  C   UNL d   1     -40.283  15.235  18.549  0.00  0.00     0.064 C 
BRANCH  18  19
ATOM     19  C   UNL d   1     -40.083  15.637  17.832  0.00  0.00     0.130 C 
BRANCH  19  20
ATOM     20  O   UNL d   1     -40.316  15.308  17.107  0.00  0.00    -0.303 OA
BRANCH  20  21
ATOM     21  C   UNL d   1     -39.744  15.227  16.489  0.00  0.00     0.123 C 
ATOM     22  C   UNL d   1     -39.351  14.525  16.399  0.00  0.00     0.029 C 
ENDBRANCH  20  21
ENDBRANCH  19  20
ENDBRANCH  18  19
ENDBRANCH  17  18
ENDBRANCH   6  17
BRANCH   7  23
ATOM     23  C   UNL d   1     -42.304  13.625  20.690  0.00  0.00     0.008 C 
BRANCH  23  24
ATOM     24  C   UNL d   1     -42.906  13.218  21.099  0.00  0.00     0.029 A 
ATOM     25  S   UNL d   1     -42.960  12.445  21.352  0.00  0.00    -0.086 SA
ATOM     26  C   UNL d   1     -43.693  12.365  21.729  0.00  0.00     0.035 A 
ATOM     27  C   UNL d   1     -44.061  13.082  21.695  0.00  0.00     0.007 A 
ATOM     28  C   UNL d   1     -43.595  13.613  21.315  0.00  0.00     0.007 A 
ENDBRANCH  23  24
ENDBRANCH   7  23
TORSDOF 8
ENDMDL
MODEL 2
REMARK VINA RESULT:      -1.9      5.801      9.060
REMARK  8 active torsions:
REMARK  status: ('A' for Active; 'I' for Inactive)
REMARK    1  A    between atoms: C_8  and  C_5 
REMARK    2  A    between atoms: S_22  and  C_6 
REMARK    3  A    between atoms: C_9  and  C_7 
REMARK    4  A    between atoms: C_12  and  C_9 
REMARK    5  A    between atoms: C_25  and  S_22 
REMARK    6  A    between atoms: O_24  and  C_26 
REMARK    7  A    between atoms: C_27  and  O_24 
REMARK    8  A    between atoms: C_26  and  C_25 
ROOT
ATOM      1  C   UNL d   1     -47.669  13.402  23.004  0.00  0.00     0.082 A 
ATOM      2  N   UNL d   1     -47.567  12.603  23.252  0.00  0.00    -0.238 NA
ATOM      3  C   UNL d   1     -48.973  12.356  22.972  0.00  0.00     0.092 A 
ATOM      4  C   UNL d   1     -48.411  13.656  22.748  0.00  0.00     0.019 A 
ATOM      5  C   UNL d   1     -49.058  13.140  22.732  0.00  0.00     0.019 A 
ATOM      6  C   UNL d   1     -48.211  12.087  23.236  0.00  0.00     0.120 A 
ATOM      7  C   UNL d   1     -47.142  14.034  22.958  0.00  0.00     0.018 A 
ATOM      8  C   UNL d   1     -49.640  11.835  22.952  0.00  0.00     0.103 C 
ATOM      9  N   UNL d   1     -50.302  11.319  22.931  0.00  0.00    -0.191 NA
ATOM     10  C   UNL d   1     -48.339  14.452  22.544  0.00  0.00     0.002 A 
ATOM     11  C   UNL d   1     -47.551  14.693  22.672  0.00  0.00     0.002 A 
ENDROOT
BRANCH   5  12
ATOM     12  C   UNL d   1     -49.802  13.415  22.470  0.00  0.00     0.030 A 
ATOM     13  S   UNL d   1     -49.995  13.348  21.684  0.00  0.00    -0.086 SA
ATOM     14  C   UNL d   1     -50.747  13.655  21.573  0.00  0.00     0.035 A 
ATOM     15  C   UNL d   1     -51.007  13.910  22.307  0.00  0.00     0.007 A 
ATOM     16  C   UNL d   1     -50.417  13.757  22.853  0.00  0.00     0.007 A 
ENDBRANCH   5  12
BRANCH   6  17
ATOM     17  S   UNL d   1     -48.111  11.306  23.479  0.00  0.00    -0.065 SA
BRANCH  17  18
ATOM     18  C   UNL d   1     -47.359  11.026  23.698  0.00  0.00     0.064 C 
BRANCH  18  19
ATOM     19  C   UNL d   1     -46.994  10.398  23.265  0.00  0.00     0.130 C 
BRANCH  19  20
ATOM     20  O   UNL d   1     -46.396   9.951  23.628  0.00  0.00    -0.303 OA
BRANCH  20  21
ATOM     21  C   UNL d   1     -45.621  10.282  23.698  0.00  0.00     0.123 C 
ATOM     22  C   UNL d   1     -44.988   9.882  23.391  0.00  0.00     0.029 C 
ENDBRANCH  20  21
ENDBRANCH  19  20
ENDBRANCH  18  19
ENDBRANCH  17  18
ENDBRANCH   6  17
BRANCH   7  23
ATOM     23  C   UNL d   1     -46.320  14.033  23.162  0.00  0.00     0.008 C 
BRANCH  23  24
ATOM     24  C   UNL d   1     -45.749  13.915  22.566  0.00  0.00     0.029 A 
ATOM     25  S   UNL d   1     -45.649  14.267  21.837  0.00  0.00    -0.086 SA
ATOM     26  C   UNL d   1     -44.982  13.918  21.491  0.00  0.00     0.035 A 
ATOM     27  C   UNL d   1     -44.699  13.371  22.011  0.00  0.00     0.007 A 
ATOM     28  C   UNL d   1     -45.155  13.356  22.671  0.00  0.00     0.007 A 
ENDBRANCH  23  24
ENDBRANCH   7  23
TORSDOF 8
ENDMDL
MODEL 3
REMARK VINA RESULT:      -1.8      5.548      8.151
REMARK  8 active torsions:
REMARK  status: ('A' for Active; 'I' for Inactive)
REMARK    1  A    between atoms: C_8  and  C_5 
REMARK    2  A    between atoms: S_22  and  C_6 
REMARK    3  A    between atoms: C_9  and  C_7 
REMARK    4  A    between atoms: C_12  and  C_9 
REMARK    5  A    between atoms: C_25  and  S_22 
REMARK    6  A    between atoms: O_24  and  C_26 
REMARK    7  A    between atoms: C_27  and  O_24 
REMARK    8  A    between atoms: C_26  and  C_25 
ROOT
ATOM      1  C   UNL d   1     -47.133  13.690  23.009  0.00  0.00     0.082 A 
ATOM      2  N   UNL d   1     -47.547  13.018  23.304  0.00  0.00    -0.238 NA
ATOM      3  C   UNL d   1     -46.394  12.192  22.984  0.00  0.00     0.092 A 
ATOM      4  C   UNL d   1     -46.369  13.599  22.711  0.00  0.00     0.019 A 
ATOM      5  C   UNL d   1     -46.001  12.857  22.698  0.00  0.00     0.019 A 
ATOM      6  C   UNL d   1     -47.181  12.279  23.292  0.00  0.00     0.120 A 
ATOM      7  C   UNL d   1     -47.347  14.484  22.949  0.00  0.00     0.018 A 
ATOM      8  C   UNL d   1     -46.009  11.437  22.966  0.00  0.00     0.103 C 
ATOM      9  N   UNL d   1     -45.628  10.690  22.949  0.00  0.00    -0.191 NA
ATOM     10  C   UNL d   1     -46.112  14.343  22.466  0.00  0.00     0.002 A 
ATOM     11  C   UNL d   1     -46.717  14.898  22.612  0.00  0.00     0.002 A 
ENDROOT
BRANCH   5  12
ATOM     12  C   UNL d   1     -45.227  12.783  22.393  0.00  0.00     0.030 A 
ATOM     13  S   UNL d   1     -45.112  12.824  21.590  0.00  0.00    -0.086 SA
ATOM     14  C   UNL d   1     -44.311  12.737  21.436  0.00  0.00     0.035 A 
ATOM     15  C   UNL d   1     -43.943  12.642  22.161  0.00  0.00     0.007 A 
ATOM     16  C   UNL d   1     -44.516  12.672  22.745  0.00  0.00     0.007 A 
ENDBRANCH   5  12
BRANCH   6  17
ATOM     17  S   UNL d   1     -47.586  11.621  23.581  0.00  0.00    -0.065 SA
BRANCH  17  18
ATOM     18  C   UNL d   1     -48.302  11.380  23.232  0.00  0.00     0.064 C 
BRANCH  18  19
ATOM     19  C   UNL d   1     -49.005  11.316  23.698  0.00  0.00     0.130 C 
BRANCH  19  20
ATOM     20  O   UNL d   1     -49.735  11.224  23.315  0.00  0.00    -0.303 OA
BRANCH  20  21
ATOM     21  C   UNL d   1     -50.429  11.552  23.670  0.00  0.00     0.123 C 
ATOM     22  C   UNL d   1     -50.909  12.037  23.235  0.00  0.00     0.029 C 
ENDBRANCH  20  21
ENDBRANCH  19  20
ENDBRANCH  18  19
ENDBRANCH  17  18
ENDBRANCH   6  17
BRANCH   7  23
ATOM     23  C   UNL d   1     -48.081  14.837  23.185  0.00  0.00     0.008 C 
BRANCH  23  24
ATOM     24  C   UNL d   1     -48.631  15.067  22.602  0.00  0.00     0.029 A 
ATOM     25  S   UNL d   1     -48.529  15.373  21.853  0.00  0.00    -0.086 SA
ATOM     26  C   UNL d   1     -49.285  15.492  21.536  0.00  0.00     0.035 A 
ATOM     27  C   UNL d   1     -49.819  15.258  22.093  0.00  0.00     0.007 A 
ATOM     28  C   UNL d   1     -49.437  14.997  22.748  0.00  0.00     0.007 A 
ENDBRANCH  23  24
ENDBRANCH   7  23
TORSDOF 8
ENDMDL
MODEL 4
REMARK VINA RESULT:      -1.3      1.570      4.199
REMARK  8 active torsions:
REMARK  status: ('A' for Active; 'I' for Inactive)
REMARK    1  A    between atoms: C_8  and  C_5 
REMARK    2  A    between atoms: S_22  and  C_6 
REMARK    3  A    between atoms: C_9  and  C_7 
REMARK    4  A    between atoms: C_12  and  C_9 
REMARK    5  A    between atoms: C_25  and  S_22 
REMARK    6  A    between atoms: O_24  and  C_26 
REMARK    7  A    between atoms: C_27  and  O_24 
REMARK    8  A    between atoms: C_26  and  C_25 
ROOT
ATOM      1  C   UNL d   1     -39.842  14.549  19.404  0.00  0.00     0.082 A 
ATOM      2  N   UNL d   1     -40.649  14.408  19.603  0.00  0.00    -0.238 NA
ATOM      3  C   UNL d   1     -40.374  14.852  20.960  0.00  0.00     0.092 A 
ATOM      4  C   UNL d   1     -39.326  14.834  19.981  0.00  0.00     0.019 A 
ATOM      5  C   UNL d   1     -39.587  14.985  20.752  0.00  0.00     0.019 A 
ATOM      6  C   UNL d   1     -40.911  14.558  20.370  0.00  0.00     0.120 A 
ATOM      7  C   UNL d   1     -39.425  14.454  18.700  0.00  0.00     0.018 A 
ATOM      8  C   UNL d   1     -40.632  15.010  21.751  0.00  0.00     0.103 C 
ATOM      9  N   UNL d   1     -40.888  15.166  22.535  0.00  0.00    -0.191 NA
ATOM     10  C   UNL d   1     -38.586  14.915  19.627  0.00  0.00     0.002 A 
ATOM     11  C   UNL d   1     -38.641  14.680  18.830  0.00  0.00     0.002 A 
ENDROOT
BRANCH   5  12
ATOM     12  C   UNL d   1     -39.051  15.274  21.324  0.00  0.00     0.030 A 
ATOM     13  S   UNL d   1     -38.366  14.862  21.469  0.00  0.00    -0.086 SA
ATOM     14  C   UNL d   1     -37.940  15.257  22.046  0.00  0.00     0.035 A 
ATOM     15  C   UNL d   1     -38.379  15.918  22.249  0.00  0.00     0.007 A 
ATOM     16  C   UNL d   1     -39.062  15.919  21.798  0.00  0.00     0.007 A 
ENDBRANCH   5  12
BRANCH   6  17
ATOM     17  S   UNL d   1     -41.700  14.421  20.564  0.00  0.00    -0.065 SA
BRANCH  17  18
ATOM     18  C   UNL d   1     -42.000  13.645  20.585  0.00  0.00     0.064 C 
BRANCH  18  19
ATOM     19  C   UNL d   1     -42.595  13.431  21.146  0.00  0.00     0.130 C 
BRANCH  19  20
ATOM     20  O   UNL d   1     -43.248  12.988  20.892  0.00  0.00    -0.303 OA
BRANCH  20  21
ATOM     21  C   UNL d   1     -43.965  13.018  21.341  0.00  0.00     0.123 C 
ATOM     22  C   UNL d   1     -44.314  12.328  21.582  0.00  0.00     0.029 C 
ENDBRANCH  20  21
ENDBRANCH  19  20
ENDBRANCH  18  19
ENDBRANCH  17  18
ENDBRANCH   6  17
BRANCH   7  23
ATOM     23  C   UNL d   1     -39.727  14.175  17.958  0.00  0.00     0.008 C 
BRANCH  23  24
ATOM     24  C   UNL d   1     -39.340  14.390  17.252  0.00  0.00     0.029 A 
ATOM     25  S   UNL d   1     -39.286  15.103  16.861  0.00  0.00    -0.086 SA
ATOM     26  C   UNL d   1     -38.825  14.974  16.185  0.00  0.00     0.035 A 
ATOM     27  C   UNL d   1     -38.614  14.196  16.183  0.00  0.00     0.007 A 
ATOM     28  C   UNL d   1     -38.919  13.826  16.826  0.00  0.00     0.007 A 
ENDBRANCH  23  24
ENDBRANCH   7  23
TORSDOF 8
ENDMDL
MODEL 5
REMARK VINA RESULT:      -0.7      4.683      7.937
REMARK  8 active torsions:
REMARK  status: ('A' for Active; 'I' for Inactive)
REMARK    1  A    between atoms: C_8  and  C_5 
REMARK    2  A    between atoms: S_22  and  C_6 
REMARK    3  A    between atoms: C_9  and  C_7 
REMARK    4  A    between atoms: C_12  and  C_9 
REMARK    5  A    between atoms: C_25  and  S_22 
REMARK    6  A    between atoms: O_24  and  C_26 
REMARK    7  A    between atoms: C_27  and  O_24 
REMARK    8  A    between atoms: C_26  and  C_25 
ROOT
ATOM      1  C   UNL d   1     -46.048  12.939  22.623  0.00  0.00     0.082 A 
ATOM      2  N   UNL d   1     -46.059  12.149  22.914  0.00  0.00    -0.238 NA
ATOM      3  C   UNL d   1     -47.511  12.157  22.826  0.00  0.00     0.092 A 
ATOM      4  C   UNL d   1     -46.760  13.316  22.442  0.00  0.00     0.019 A 
ATOM      5  C   UNL d   1     -47.485  12.930  22.543  0.00  0.00     0.019 A 
ATOM      6  C   UNL d   1     -46.782  11.763  23.014  0.00  0.00     0.120 A 
ATOM      7  C   UNL d   1     -45.427  13.459  22.467  0.00  0.00     0.018 A 
ATOM      8  C   UNL d   1     -48.258  11.770  22.926  0.00  0.00     0.103 C 
ATOM      9  N   UNL d   1     -48.998  11.387  23.024  0.00  0.00    -0.191 NA
ATOM     10  C   UNL d   1     -46.573  14.073  22.174  0.00  0.00     0.002 A 
ATOM     11  C   UNL d   1     -45.745  14.168  22.187  0.00  0.00     0.002 A 
ENDROOT
BRANCH   5  12
ATOM     12  C   UNL d   1     -48.196  13.327  22.355  0.00  0.00     0.030 A 
ATOM     13  S   UNL d   1     -48.501  13.260  21.605  0.00  0.00    -0.086 SA
ATOM     14  C   UNL d   1     -49.193  13.697  21.565  0.00  0.00     0.035 A 
ATOM     15  C   UNL d   1     -49.302  14.031  22.304  0.00  0.00     0.007 A 
ATOM     16  C   UNL d   1     -48.682  13.797  22.784  0.00  0.00     0.007 A 
ENDBRANCH   5  12
BRANCH   6  17
ATOM     17  S   UNL d   1     -46.792  10.990  23.299  0.00  0.00    -0.065 SA
BRANCH  17  18
ATOM     18  C   UNL d   1     -46.131  10.679  23.698  0.00  0.00     0.064 C 
BRANCH  18  19
ATOM     19  C   UNL d   1     -45.689  10.041  23.360  0.00  0.00     0.130 C 
BRANCH  19  20
ATOM     20  O   UNL d   1     -44.888   9.957  23.559  0.00  0.00    -0.303 OA
BRANCH  20  21
ATOM     21  C   UNL d   1     -44.515   9.206  23.450  0.00  0.00     0.123 C 
ATOM     22  C   UNL d   1     -43.722   9.129  23.595  0.00  0.00     0.029 C 
ENDBRANCH  20  21
ENDBRANCH  19  20
ENDBRANCH  18  19
ENDBRANCH  17  18
ENDBRANCH   6  17
BRANCH   7  23
ATOM     23  C   UNL d   1     -44.598  13.313  22.569  0.00  0.00     0.008 C 
BRANCH  23  24
ATOM     24  C   UNL d   1     -44.111  13.232  21.898  0.00  0.00     0.029 A 
ATOM     25  S   UNL d   1     -43.985  13.723  21.260  0.00  0.00    -0.086 SA
ATOM     26  C   UNL d   1     -43.437  13.343  20.767  0.00  0.00     0.035 A 
ATOM     27  C   UNL d   1     -43.249  12.641  21.114  0.00  0.00     0.007 A 
ATOM     28  C   UNL d   1     -43.650  12.557  21.804  0.00  0.00     0.007 A 
ENDBRANCH  23  24
ENDBRANCH   7  23
TORSDOF 8
ENDMDL
MODEL 6
REMARK VINA RESULT:      -0.6      3.400      4.819
REMARK  8 active torsions:
REMARK  status: ('A' for Active; 'I' for Inactive)
REMARK    1  A    between atoms: C_8  and  C_5 
REMARK    2  A    between atoms: S_22  and  C_6 
REMARK    3  A    between atoms: C_9  and  C_7 
REMARK    4  A    between atoms: C_12  and  C_9 
REMARK    5  A    between atoms: C_25  and  S_22 
REMARK    6  A    between atoms: O_24  and  C_26 
REMARK    7  A    between atoms: C_27  and  O_24 
REMARK    8  A    between atoms: C_26  and  C_25 
ROOT
ATOM      1  C   UNL d   1     -38.384  12.627  17.495  0.00  0.00     0.082 A 
ATOM      2  N   UNL d   1     -38.116  12.947  16.763  0.00  0.00    -0.238 NA
ATOM      3  C   UNL d   1     -38.693  14.229  17.134  0.00  0.00     0.092 A 
ATOM      4  C   UNL d   1     -38.796  13.109  18.022  0.00  0.00     0.019 A 
ATOM      5  C   UNL d   1     -38.950  13.903  17.845  0.00  0.00     0.019 A 
ATOM      6  C   UNL d   1     -38.268  13.738  16.585  0.00  0.00     0.120 A 
ATOM      7  C   UNL d   1     -38.318  11.873  17.821  0.00  0.00     0.018 A 
ATOM      8  C   UNL d   1     -38.855  15.043  16.961  0.00  0.00     0.103 C 
ATOM      9  N   UNL d   1     -39.016  15.848  16.791  0.00  0.00    -0.191 NA
ATOM     10  C   UNL d   1     -38.984  12.647  18.679  0.00  0.00     0.002 A 
ATOM     11  C   UNL d   1     -38.689  11.877  18.560  0.00  0.00     0.002 A 
ENDROOT
BRANCH   5  12
ATOM     12  C   UNL d   1     -39.368  14.377  18.392  0.00  0.00     0.030 A 
ATOM     13  S   UNL d   1     -38.973  14.692  19.027  0.00  0.00    -0.086 SA
ATOM     14  C   UNL d   1     -39.502  15.129  19.474  0.00  0.00     0.035 A 
ATOM     15  C   UNL d   1     -40.227  15.074  19.098  0.00  0.00     0.007 A 
ATOM     16  C   UNL d   1     -40.134  14.607  18.431  0.00  0.00     0.007 A 
ENDBRANCH   5  12
BRANCH   6  17
ATOM     17  S   UNL d   1     -38.006  14.051  15.870  0.00  0.00    -0.065 SA
BRANCH  17  18
ATOM     18  C   UNL d   1     -38.015  13.587  15.178  0.00  0.00     0.064 C 
BRANCH  18  19
ATOM     19  C   UNL d   1     -38.239  13.929  14.437  0.00  0.00     0.130 C 
BRANCH  19  20
ATOM     20  O   UNL d   1     -37.940  13.602  13.736  0.00  0.00    -0.303 OA
BRANCH  20  21
ATOM     21  C   UNL d   1     -38.468  13.204  13.210  0.00  0.00     0.123 C 
ATOM     22  C   UNL d   1     -38.198  12.582  12.768  0.00  0.00     0.029 C 
ENDBRANCH  20  21
ENDBRANCH  19  20
ENDBRANCH  18  19
ENDBRANCH  17  18
ENDBRANCH   6  17
BRANCH   7  23
ATOM     23  C   UNL d   1     -37.940  11.196  17.479  0.00  0.00     0.008 C 
BRANCH  23  24
ATOM     24  C   UNL d   1     -38.018  10.453  17.848  0.00  0.00     0.029 A 
ATOM     25  S   UNL d   1     -37.940  10.226  18.627  0.00  0.00    -0.086 SA
ATOM     26  C   UNL d   1     -38.083   9.410  18.656  0.00  0.00     0.035 A 
ATOM     27  C   UNL d   1     -38.241   9.167  17.904  0.00  0.00     0.007 A 
ATOM     28  C   UNL d   1     -38.206   9.789  17.400  0.00  0.00     0.007 A 
ENDBRANCH  23  24
ENDBRANCH   7  23
TORSDOF 8
ENDMDL
MODEL 7
REMARK VINA RESULT:      -0.4      4.655      7.641
REMARK  8 active torsions:
REMARK  status: ('A' for Active; 'I' for Inactive)
REMARK    1  A    between atoms: C_8  and  C_5 
REMARK    2  A    between atoms: S_22  and  C_6 
REMARK    3  A    between atoms: C_9  and  C_7 
REMARK    4  A    between atoms: C_12  and  C_9 
REMARK    5  A    between atoms: C_25  and  S_22 
REMARK    6  A    between atoms: O_24  and  C_26 
REMARK    7  A    between atoms: C_27  and  O_24 
REMARK    8  A    between atoms: C_26  and  C_25 
ROOT
ATOM      1  C   UNL d   1     -47.626  13.773  22.784  0.00  0.00     0.082 A 
ATOM      2  N   UNL d   1     -46.826  14.031  22.716  0.00  0.00    -0.238 NA
ATOM      3  C   UNL d   1     -46.391  12.648  22.817  0.00  0.00     0.092 A 
ATOM      4  C   UNL d   1     -47.787  12.969  22.866  0.00  0.00     0.019 A 
ATOM      5  C   UNL d   1     -47.178  12.410  22.882  0.00  0.00     0.019 A 
ATOM      6  C   UNL d   1     -46.218  13.475  22.732  0.00  0.00     0.120 A 
ATOM      7  C   UNL d   1     -48.338  14.188  22.786  0.00  0.00     0.018 A 
ATOM      8  C   UNL d   1     -45.774  12.068  22.835  0.00  0.00     0.103 C 
ATOM      9  N   UNL d   1     -45.162  11.494  22.852  0.00  0.00    -0.191 NA
ATOM     10  C   UNL d   1     -48.607  12.889  22.919  0.00  0.00     0.002 A 
ATOM     11  C   UNL d   1     -48.955  13.645  22.870  0.00  0.00     0.002 A 
ENDROOT
BRANCH   5  12
ATOM     12  C   UNL d   1     -47.360  11.598  22.966  0.00  0.00     0.030 A 
ATOM     13  S   UNL d   1     -47.568  11.313  23.697  0.00  0.00    -0.086 SA
ATOM     14  C   UNL d   1     -47.718  10.509  23.631  0.00  0.00     0.035 A 
ATOM     15  C   UNL d   1     -47.597  10.313  22.845  0.00  0.00     0.007 A 
ATOM     16  C   UNL d   1     -47.376  10.992  22.444  0.00  0.00     0.007 A 
ENDBRANCH   5  12
BRANCH   6  17
ATOM     17  S   UNL d   1     -45.436  13.727  22.665  0.00  0.00    -0.065 SA
BRANCH  17  18
ATOM     18  C   UNL d   1     -45.070  13.771  21.919  0.00  0.00     0.064 C 
BRANCH  18  19
ATOM     19  C   UNL d   1     -44.255  13.991  21.854  0.00  0.00     0.130 C 
BRANCH  19  20
ATOM     20  O   UNL d   1     -43.745  13.517  21.404  0.00  0.00    -0.303 OA
BRANCH  20  21
ATOM     21  C   UNL d   1     -42.913  13.667  21.433  0.00  0.00     0.123 C 
ATOM     22  C   UNL d   1     -42.394  13.070  21.261  0.00  0.00     0.029 C 
ENDBRANCH  20  21
ENDBRANCH  19  20
ENDBRANCH  18  19
ENDBRANCH  17  18
ENDBRANCH   6  17
BRANCH   7  23
ATOM     23  C   UNL d   1     -48.445  15.026  22.716  0.00  0.00     0.008 C 
BRANCH  23  24
ATOM     24  C   UNL d   1     -49.196  15.357  22.862  0.00  0.00     0.029 A 
ATOM     25  S   UNL d   1     -49.842  15.466  22.376  0.00  0.00    -0.086 SA
ATOM     26  C   UNL d   1     -50.431  15.824  22.835  0.00  0.00     0.035 A 
ATOM     27  C   UNL d   1     -50.132  15.922  23.577  0.00  0.00     0.007 A 
ATOM     28  C   UNL d   1     -49.381  15.642  23.611  0.00  0.00     0.007 A 
ENDBRANCH  23  24
ENDBRANCH   7  23
TORSDOF 8
ENDMDL
MODEL 8
REMARK VINA RESULT:      -0.3      2.814      3.913
REMARK  8 active torsions:
REMARK  status: ('A' for Active; 'I' for Inactive)
REMARK    1  A    between atoms: C_8  and  C_5 
REMARK    2  A    between atoms: S_22  and  C_6 
REMARK    3  A    between atoms: C_9  and  C_7 
REMARK    4  A    between atoms: C_12  and  C_9 
REMARK    5  A    between atoms: C_25  and  S_22 
REMARK    6  A    between atoms: O_24  and  C_26 
REMARK    7  A    between atoms: C_27  and  O_24 
REMARK    8  A    between atoms: C_26  and  C_25 
ROOT
ATOM      1  C   UNL d   1     -38.176  12.944  18.732  0.00  0.00     0.082 A 
ATOM      2  N   UNL d   1     -38.291  13.621  18.243  0.00  0.00    -0.238 NA
ATOM      3  C   UNL d   1     -38.473  14.429  19.438  0.00  0.00     0.092 A 
ATOM      4  C   UNL d   1     -38.212  13.025  19.553  0.00  0.00     0.019 A 
ATOM      5  C   UNL d   1     -38.359  13.759  19.904  0.00  0.00     0.019 A 
ATOM      6  C   UNL d   1     -38.438  14.354  18.593  0.00  0.00     0.120 A 
ATOM      7  C   UNL d   1     -38.023  12.155  18.550  0.00  0.00     0.018 A 
ATOM      8  C   UNL d   1     -38.623  15.177  19.807  0.00  0.00     0.103 C 
ATOM      9  N   UNL d   1     -38.771  15.918  20.173  0.00  0.00    -0.191 NA
ATOM     10  C   UNL d   1     -38.080  12.278  19.877  0.00  0.00     0.002 A 
ATOM     11  C   UNL d   1     -37.962  11.732  19.258  0.00  0.00     0.002 A 
ENDROOT
BRANCH   5  12
ATOM     12  C   UNL d   1     -38.392  13.822  20.737  0.00  0.00     0.030 A 
ATOM     13  S   UNL d   1     -38.896  13.340  21.151  0.00  0.00    -0.086 SA
ATOM     14  C   UNL d   1     -38.824  13.509  21.950  0.00  0.00     0.035 A 
ATOM     15  C   UNL d   1     -38.265  14.104  22.012  0.00  0.00     0.007 A 
ATOM     16  C   UNL d   1     -38.005  14.290  21.258  0.00  0.00     0.007 A 
ENDBRANCH   5  12
BRANCH   6  17
ATOM     17  S   UNL d   1     -38.550  15.016  18.115  0.00  0.00    -0.065 SA
BRANCH  17  18
ATOM     18  C   UNL d   1     -38.401  14.974  17.297  0.00  0.00     0.064 C 
BRANCH  18  19
ATOM     19  C   UNL d   1     -38.857  15.437  16.755  0.00  0.00     0.130 C 
BRANCH  19  20
ATOM     20  O   UNL d   1     -38.538  15.617  16.011  0.00  0.00    -0.303 OA
BRANCH  20  21
ATOM     21  C   UNL d   1     -38.768  15.154  15.342  0.00  0.00     0.123 C 
ATOM     22  C   UNL d   1     -38.363  15.231  14.645  0.00  0.00     0.029 C 
ENDBRANCH  20  21
ENDBRANCH  19  20
ENDBRANCH  18  19
ENDBRANCH  17  18
ENDBRANCH   6  17
BRANCH   7  23
ATOM     23  C   UNL d   1     -37.940  11.813  17.779  0.00  0.00     0.008 C 
BRANCH  23  24
ATOM     24  C   UNL d   1     -37.976  10.984  17.693  0.00  0.00     0.029 A 
ATOM     25  S   UNL d   1     -37.965  10.383  18.243  0.00  0.00    -0.086 SA
ATOM     26  C   UNL d   1     -38.017   9.670  17.823  0.00  0.00     0.035 A 
ATOM     27  C   UNL d   1     -38.057   9.856  17.039  0.00  0.00     0.007 A 
ATOM     28  C   UNL d   1     -38.034  10.652  16.943  0.00  0.00     0.007 A 
ENDBRANCH  23  24
ENDBRANCH   7  23
TORSDOF 8
ENDMDL
