MODEL 1
REMARK VINA RESULT:      -5.5      0.000      0.000
REMARK  5 active torsions:
REMARK  status: ('A' for Active; 'I' for Inactive)
REMARK    1  A    between atoms: N_2  and  C_1 
REMARK    2  A    between atoms: N_3  and  C_1 
REMARK       I    between atoms: C_6  and  N_3 
REMARK    3  A    between atoms: C_12  and  C_6 
REMARK    4  A    between atoms: O_11  and  C_12 
REMARK    5  A    between atoms: C_13  and  O_11 
ROOT
ATOM      1  C   UNL d   1     -41.501-123.175 -50.394  0.00  0.00     0.209 C 
ATOM      2  S   UNL d   1     -41.123-123.756 -50.828  0.00  0.00    -0.038 SA
ENDROOT
BRANCH   1   3
ATOM      3  N   UNL d   1     -42.040-123.398 -49.805  0.00  0.00    -0.282 N 
ATOM      4  C   UNL d   1     -41.895-123.428 -48.998  0.00  0.00     0.066 A 
ATOM      5  C   UNL d   1     -42.581-123.677 -48.620  0.00  0.00     0.018 A 
ATOM      6  C   UNL d   1     -41.216-123.258 -48.558  0.00  0.00     0.018 A 
ATOM      7  C   UNL d   1     -42.592-123.757 -47.799  0.00  0.00     0.002 A 
ATOM      8  C   UNL d   1     -43.150-123.801 -49.192  0.00  0.00     0.021 A 
ATOM      9  C   UNL d   1     -41.911-123.587 -47.345  0.00  0.00     0.000 A 
ATOM     10  C   UNL d   1     -41.225-123.339 -47.723  0.00  0.00     0.002 A 
ATOM     11  C   UNL d   1     -42.819-123.629 -49.928  0.00  0.00     0.082 A 
ENDBRANCH   1   3
BRANCH   1  12
ATOM     12  N   UNL d   1     -41.350-122.385 -50.538  0.00  0.00    -0.178 NA
ATOM     13  C   UNL d   1     -41.275-122.112 -51.317  0.00  0.00     0.306 C 
ATOM     14  O   UNL d   1     -41.123-121.314 -51.458  0.00  0.00    -0.263 OA
BRANCH  13  15
ATOM     15  C   UNL d   1     -41.352-122.632 -51.940  0.00  0.00     0.185 C 
BRANCH  15  16
ATOM     16  O   UNL d   1     -41.814-122.426 -52.591  0.00  0.00    -0.300 OA
BRANCH  16  17
ATOM     17  C   UNL d   1     -41.619-122.723 -53.341  0.00  0.00     0.100 A 
ATOM     18  C   UNL d   1     -41.409-123.509 -53.424  0.00  0.00     0.025 A 
ATOM     19  C   UNL d   1     -41.214-123.808 -54.168  0.00  0.00     0.002 A 
ATOM     20  C   UNL d   1     -41.232-123.312 -54.829  0.00  0.00     0.000 A 
ATOM     21  C   UNL d   1     -41.444-122.521 -54.743  0.00  0.00     0.002 A 
ATOM     22  C   UNL d   1     -41.639-122.222 -53.998  0.00  0.00     0.025 A 
ENDBRANCH  16  17
ENDBRANCH  15  16
ENDBRANCH  13  15
ENDBRANCH   1  12
TORSDOF 5
ENDMDL
MODEL 2
REMARK VINA RESULT:      -5.4      0.922      1.283
REMARK  5 active torsions:
REMARK  status: ('A' for Active; 'I' for Inactive)
REMARK    1  A    between atoms: N_2  and  C_1 
REMARK    2  A    between atoms: N_3  and  C_1 
REMARK       I    between atoms: C_6  and  N_3 
REMARK    3  A    between atoms: C_12  and  C_6 
REMARK    4  A    between atoms: O_11  and  C_12 
REMARK    5  A    between atoms: C_13  and  O_11 
ROOT
ATOM      1  C   UNL d   1     -42.023-122.415 -50.993  0.00  0.00     0.209 C 
ATOM      2  S   UNL d   1     -42.603-122.670 -51.510  0.00  0.00    -0.038 SA
ENDROOT
BRANCH   1   3
ATOM      3  N   UNL d   1     -41.791-122.909 -50.369  0.00  0.00    -0.282 N 
ATOM      4  C   UNL d   1     -42.159-122.978 -49.640  0.00  0.00     0.066 A 
ATOM      5  C   UNL d   1     -41.746-123.530 -49.191  0.00  0.00     0.018 A 
ATOM      6  C   UNL d   1     -42.826-122.603 -49.326  0.00  0.00     0.018 A 
ATOM      7  C   UNL d   1     -41.998-123.709 -48.427  0.00  0.00     0.002 A 
ATOM      8  C   UNL d   1     -41.123-123.802 -49.643  0.00  0.00     0.021 A 
ATOM      9  C   UNL d   1     -42.671-123.335 -48.101  0.00  0.00     0.000 A 
ATOM     10  C   UNL d   1     -43.084-122.784 -48.549  0.00  0.00     0.002 A 
ATOM     11  C   UNL d   1     -41.147-123.420 -50.374  0.00  0.00     0.082 A 
ENDBRANCH   1   3
BRANCH   1  12
ATOM     12  N   UNL d   1     -41.675-121.681 -51.090  0.00  0.00    -0.178 NA
ATOM     13  C   UNL d   1     -41.473-121.414 -51.848  0.00  0.00     0.306 C 
ATOM     14  O   UNL d   1     -41.123-120.674 -51.941  0.00  0.00    -0.263 OA
BRANCH  13  15
ATOM     15  C   UNL d   1     -41.622-121.883 -52.498  0.00  0.00     0.185 C 
BRANCH  15  16
ATOM     16  O   UNL d   1     -41.248-121.720 -53.215  0.00  0.00    -0.300 OA
BRANCH  16  17
ATOM     17  C   UNL d   1     -41.556-122.038 -53.918  0.00  0.00     0.100 A 
ATOM     18  C   UNL d   1     -41.259-122.742 -54.208  0.00  0.00     0.025 A 
ATOM     19  C   UNL d   1     -41.562-123.061 -54.907  0.00  0.00     0.002 A 
ATOM     20  C   UNL d   1     -42.167-122.667 -55.311  0.00  0.00     0.000 A 
ATOM     21  C   UNL d   1     -42.464-121.958 -55.015  0.00  0.00     0.002 A 
ATOM     22  C   UNL d   1     -42.161-121.639 -54.317  0.00  0.00     0.025 A 
ENDBRANCH  16  17
ENDBRANCH  15  16
ENDBRANCH  13  15
ENDBRANCH   1  12
TORSDOF 5
ENDMDL
