MODEL 1
REMARK VINA RESULT:      50.7      0.000      0.000
REMARK  6 active torsions:
REMARK  status: ('A' for Active; 'I' for Inactive)
REMARK    1  A    between atoms: C_5  and  C_1 
REMARK    2  A    between atoms: N_4  and  C_2 
REMARK       I    between atoms: C_3  and  N_4 
REMARK    3  A    between atoms: C_10  and  C_3 
REMARK    4  A    between atoms: O_15  and  C_5 
REMARK    5  A    between atoms: C_6  and  C_7 
REMARK    6  A    between atoms: O_16  and  C_6 
ROOT
ATOM      1  C   UNL d   1     -51.814  26.187  33.801  0.00  0.00     0.093 A 
ATOM      2  C   UNL d   1     -51.025  25.948  33.763  0.00  0.00     0.140 A 
ATOM      3  C   UNL d   1     -51.444  24.590  33.616  0.00  0.00     0.066 A 
ATOM      4  C   UNL d   1     -50.840  25.147  33.671  0.00  0.00     0.038 A 
ATOM      5  C   UNL d   1     -52.418  25.625  33.745  0.00  0.00     0.008 A 
ATOM      6  C   UNL d   1     -52.232  24.829  33.653  0.00  0.00     0.006 A 
ENDROOT
BRANCH   2   7
ATOM      7  N   UNL d   1     -50.418  26.504  33.818  0.00  0.00    -0.368 NA
ATOM      8  C   UNL d   1     -49.816  27.058  33.871  0.00  0.00     0.303 C 
ATOM      9  O   UNL d   1     -49.758  27.664  33.317  0.00  0.00    -0.256 OA
BRANCH   8  10
ATOM     10  C   UNL d   1     -49.265  27.005  34.484  0.00  0.00     0.085 C 
ATOM     11  C   UNL d   1     -49.444  26.606  35.186  0.00  0.00     0.011 C 
ATOM     12  C   UNL d   1     -48.884  27.437  33.892  0.00  0.00     0.011 C 
ATOM     13  C   UNL d   1     -48.520  27.354  34.401  0.00  0.00     0.011 C 
ENDBRANCH   8  10
ENDBRANCH   2   7
BRANCH   1  14
ATOM     14  C   UNL d   1     -51.999  26.983  33.893  0.00  0.00     0.298 C 
ATOM     15  O   UNL d   1     -51.739  27.394  34.560  0.00  0.00    -0.259 OA
BRANCH  14  16
ATOM     16  O   UNL d   1     -52.446  27.370  33.320  0.00  0.00    -0.296 OA
ATOM     17  C   UNL d   1     -52.494  28.199  33.316  0.00  0.00     0.185 C 
ENDBRANCH  14  16
ENDBRANCH   1  14
BRANCH   3  18
ATOM     18  C   UNL d   1     -51.257  23.793  33.523  0.00  0.00     0.296 C 
ATOM     19  O   UNL d   1     -50.484  23.532  33.643  0.00  0.00    -0.259 OA
BRANCH  18  20
ATOM     20  O   UNL d   1     -51.848  23.249  33.309  0.00  0.00    -0.296 OA
ATOM     21  C   UNL d   1     -52.640  23.474  33.319  0.00  0.00     0.185 C 
ENDBRANCH  18  20
ENDBRANCH   3  18
TORSDOF 6
ENDMDL
MODEL 2
REMARK VINA RESULT:      51.4      4.235      6.926
REMARK  6 active torsions:
REMARK  status: ('A' for Active; 'I' for Inactive)
REMARK    1  A    between atoms: C_5  and  C_1 
REMARK    2  A    between atoms: N_4  and  C_2 
REMARK       I    between atoms: C_3  and  N_4 
REMARK    3  A    between atoms: C_10  and  C_3 
REMARK    4  A    between atoms: O_15  and  C_5 
REMARK    5  A    between atoms: C_6  and  C_7 
REMARK    6  A    between atoms: O_16  and  C_6 
ROOT
ATOM      1  C   UNL d   1     -47.258  30.972  35.848  0.00  0.00     0.093 A 
ATOM      2  C   UNL d   1     -47.579  30.682  35.145  0.00  0.00     0.140 A 
ATOM      3  C   UNL d   1     -47.503  31.988  34.570  0.00  0.00     0.066 A 
ATOM      4  C   UNL d   1     -47.702  31.192  34.505  0.00  0.00     0.038 A 
ATOM      5  C   UNL d   1     -47.059  31.773  35.910  0.00  0.00     0.008 A 
ATOM      6  C   UNL d   1     -47.181  32.278  35.272  0.00  0.00     0.006 A 
ENDROOT
BRANCH   2   7
ATOM      7  N   UNL d   1     -47.780  29.884  35.077  0.00  0.00    -0.368 NA
ATOM      8  C   UNL d   1     -47.977  29.092  35.011  0.00  0.00     0.303 C 
ATOM      9  O   UNL d   1     -47.480  28.512  35.317  0.00  0.00    -0.256 OA
BRANCH   8  10
ATOM     10  C   UNL d   1     -48.679  28.876  34.634  0.00  0.00     0.085 C 
ATOM     11  C   UNL d   1     -49.134  29.434  34.226  0.00  0.00     0.011 C 
ATOM     12  C   UNL d   1     -48.395  28.178  34.970  0.00  0.00     0.011 C 
ATOM     13  C   UNL d   1     -48.938  28.091  34.660  0.00  0.00     0.011 C 
ENDBRANCH   8  10
ENDBRANCH   2   7
BRANCH   1  14
ATOM     14  C   UNL d   1     -47.136  30.467  36.485  0.00  0.00     0.298 C 
ATOM     15  O   UNL d   1     -47.773  30.231  36.953  0.00  0.00    -0.259 OA
BRANCH  14  16
ATOM     16  O   UNL d   1     -46.377  30.197  36.655  0.00  0.00    -0.296 OA
ATOM     17  C   UNL d   1     -46.162  30.020  37.438  0.00  0.00     0.185 C 
ENDBRANCH  14  16
ENDBRANCH   1  14
BRANCH   3  18
ATOM     18  C   UNL d   1     -47.625  32.494  33.931  0.00  0.00     0.296 C 
ATOM     19  O   UNL d   1     -47.014  32.639  33.396  0.00  0.00    -0.259 OA
BRANCH  18  20
ATOM     20  O   UNL d   1     -48.364  32.859  33.825  0.00  0.00    -0.296 OA
ATOM     21  C   UNL d   1     -48.431  33.520  33.339  0.00  0.00     0.185 C 
ENDBRANCH  18  20
ENDBRANCH   3  18
TORSDOF 6
ENDMDL
MODEL 3
REMARK VINA RESULT:      51.8      3.758      5.650
REMARK  6 active torsions:
REMARK  status: ('A' for Active; 'I' for Inactive)
REMARK    1  A    between atoms: C_5  and  C_1 
REMARK    2  A    between atoms: N_4  and  C_2 
REMARK       I    between atoms: C_3  and  N_4 
REMARK    3  A    between atoms: C_10  and  C_3 
REMARK    4  A    between atoms: O_15  and  C_5 
REMARK    5  A    between atoms: C_6  and  C_7 
REMARK    6  A    between atoms: O_16  and  C_6 
ROOT
ATOM      1  C   UNL d   1     -47.704  29.714  35.436  0.00  0.00     0.093 A 
ATOM      2  C   UNL d   1     -48.080  30.185  34.873  0.00  0.00     0.140 A 
ATOM      3  C   UNL d   1     -48.832  29.054  34.430  0.00  0.00     0.066 A 
ATOM      4  C   UNL d   1     -48.646  29.853  34.369  0.00  0.00     0.038 A 
ATOM      5  C   UNL d   1     -47.893  28.912  35.495  0.00  0.00     0.008 A 
ATOM      6  C   UNL d   1     -48.456  28.583  34.993  0.00  0.00     0.006 A 
ENDROOT
BRANCH   2   7
ATOM      7  N   UNL d   1     -47.895  30.987  34.809  0.00  0.00    -0.368 NA
ATOM      8  C   UNL d   1     -47.711  31.783  34.748  0.00  0.00     0.303 C 
ATOM      9  O   UNL d   1     -47.206  32.136  35.293  0.00  0.00    -0.256 OA
BRANCH   8  10
ATOM     10  C   UNL d   1     -48.034  32.231  34.134  0.00  0.00     0.085 C 
ATOM     11  C   UNL d   1     -48.810  32.105  33.877  0.00  0.00     0.011 C 
ATOM     12  C   UNL d   1     -47.265  32.518  34.225  0.00  0.00     0.011 C 
ATOM     13  C   UNL d   1     -47.580  32.817  33.767  0.00  0.00     0.011 C 
ENDBRANCH   8  10
ENDBRANCH   2   7
BRANCH   1  14
ATOM     14  C   UNL d   1     -47.141  30.043  35.938  0.00  0.00     0.298 C 
ATOM     15  O   UNL d   1     -46.377  30.190  35.663  0.00  0.00    -0.259 OA
BRANCH  14  16
ATOM     16  O   UNL d   1     -47.341  30.225  36.716  0.00  0.00    -0.296 OA
ATOM     17  C   UNL d   1     -46.802  30.080  37.331  0.00  0.00     0.185 C 
ENDBRANCH  14  16
ENDBRANCH   1  14
BRANCH   3  18
ATOM     18  C   UNL d   1     -49.396  28.725  33.927  0.00  0.00     0.296 C 
ATOM     19  O   UNL d   1     -49.918  29.214  33.515  0.00  0.00    -0.259 OA
BRANCH  18  20
ATOM     20  O   UNL d   1     -49.441  27.901  33.833  0.00  0.00    -0.296 OA
ATOM     21  C   UNL d   1     -50.019  27.572  33.348  0.00  0.00     0.185 C 
ENDBRANCH  18  20
ENDBRANCH   3  18
TORSDOF 6
ENDMDL
