MODEL 1
REMARK VINA RESULT:      -9.1      0.000      0.000
REMARK  3 active torsions:
REMARK  status: ('A' for Active; 'I' for Inactive)
REMARK    1  A    between atoms: C_6  and  C_16 
REMARK    2  A    between atoms: S_14  and  C_8 
REMARK    3  A    between atoms: C_16  and  S_14 
ROOT
ATOM      1  C   UNL d   1      52.471  32.583  53.176  0.00  0.00     0.141 A 
ATOM      2  O   UNL d   1      52.141  31.887  52.879  0.00  0.00    -0.303 OA
ATOM      3  C   UNL d   1      53.184  32.391  53.543  0.00  0.00     0.110 A 
ATOM      4  C   UNL d   1      53.296  31.576  53.473  0.00  0.00     0.043 A 
ATOM      5  C   UNL d   1      52.213  33.367  53.160  0.00  0.00     0.137 A 
ATOM      6  C   UNL d   1      52.652  31.265  53.063  0.00  0.00     0.102 A 
ATOM      7  N   UNL d   1      52.670  33.958  53.511  0.00  0.00    -0.215 NA
ATOM      8  N   UNL d   1      53.641  32.982  53.894  0.00  0.00    -0.222 NA
ATOM      9  C   UNL d   1      53.383  33.767  53.878  0.00  0.00     0.200 A 
ATOM     10  C   UNL d   1      53.902  31.078  53.730  0.00  0.00     0.004 A 
ATOM     11  C   UNL d   1      52.612  30.455  52.909  0.00  0.00     0.025 A 
ATOM     12  C   UNL d   1      53.862  30.268  53.576  0.00  0.00     0.000 A 
ATOM     13  C   UNL d   1      53.217  29.956  53.166  0.00  0.00     0.002 A 
ENDROOT
BRANCH   5  14
ATOM     14  S   UNL d   1      51.498  33.559  52.793  0.00  0.00    -0.062 SA
BRANCH  14  15
ATOM     15  C   UNL d   1      51.150  34.294  52.930  0.00  0.00     0.076 C 
BRANCH  15  16
ATOM     16  C   UNL d   1      50.427  34.478  52.578  0.00  0.00     0.169 A 
ATOM     17  N   UNL d   1      50.200  34.291  51.806  0.00  0.00    -0.225 NA
ATOM     18  C   UNL d   1      49.437  34.578  51.688  0.00  0.00     0.101 A 
ATOM     19  C   UNL d   1      48.933  34.556  51.035  0.00  0.00     0.021 A 
ATOM     20  C   UNL d   1      49.189  34.944  52.386  0.00  0.00     0.101 A 
ATOM     21  C   UNL d   1      48.183  34.898  51.080  0.00  0.00     0.002 A 
ATOM     22  C   UNL d   1      47.937  35.262  51.776  0.00  0.00     0.002 A 
ATOM     23  C   UNL d   1      48.441  35.285  52.430  0.00  0.00     0.021 A 
ATOM     24  N   UNL d   1      49.802  34.881  52.935  0.00  0.00    -0.225 NA
ENDBRANCH  15  16
ENDBRANCH  14  15
ENDBRANCH   5  14
TORSDOF 3
ENDMDL
MODEL 2
REMARK VINA RESULT:      -9.0      1.278      2.141
REMARK  3 active torsions:
REMARK  status: ('A' for Active; 'I' for Inactive)
REMARK    1  A    between atoms: C_6  and  C_16 
REMARK    2  A    between atoms: S_14  and  C_8 
REMARK    3  A    between atoms: C_16  and  S_14 
ROOT
ATOM      1  C   UNL d   1      52.500  33.497  53.599  0.00  0.00     0.141 A 
ATOM      2  O   UNL d   1      52.672  34.104  54.132  0.00  0.00    -0.303 OA
ATOM      3  C   UNL d   1      53.116  32.950  53.627  0.00  0.00     0.110 A 
ATOM      4  C   UNL d   1      53.670  33.218  54.177  0.00  0.00     0.043 A 
ATOM      5  C   UNL d   1      51.860  33.372  53.092  0.00  0.00     0.137 A 
ATOM      6  C   UNL d   1      53.395  33.931  54.488  0.00  0.00     0.102 A 
ATOM      7  N   UNL d   1      51.839  32.700  52.613  0.00  0.00    -0.215 NA
ATOM      8  N   UNL d   1      53.095  32.278  53.149  0.00  0.00    -0.222 NA
ATOM      9  C   UNL d   1      52.455  32.153  52.641  0.00  0.00     0.200 A 
ATOM     10  C   UNL d   1      54.389  32.905  54.434  0.00  0.00     0.004 A 
ATOM     11  C   UNL d   1      53.840  34.331  55.058  0.00  0.00     0.025 A 
ATOM     12  C   UNL d   1      54.833  33.306  55.003  0.00  0.00     0.000 A 
ATOM     13  C   UNL d   1      54.559  34.019  55.315  0.00  0.00     0.002 A 
ENDROOT
BRANCH   5  14
ATOM     14  S   UNL d   1      51.242  33.920  53.064  0.00  0.00    -0.062 SA
BRANCH  14  15
ATOM     15  C   UNL d   1      50.721  33.920  52.425  0.00  0.00     0.076 C 
BRANCH  15  16
ATOM     16  C   UNL d   1      50.042  34.387  52.449  0.00  0.00     0.169 A 
ATOM     17  N   UNL d   1      49.782  34.836  53.091  0.00  0.00    -0.225 NA
ATOM     18  C   UNL d   1      49.083  35.213  52.874  0.00  0.00     0.101 A 
ATOM     19  C   UNL d   1      48.581  35.725  53.282  0.00  0.00     0.021 A 
ATOM     20  C   UNL d   1      48.908  34.999  52.096  0.00  0.00     0.101 A 
ATOM     21  C   UNL d   1      47.905  36.022  52.913  0.00  0.00     0.002 A 
ATOM     22  C   UNL d   1      47.731  35.808  52.137  0.00  0.00     0.002 A 
ATOM     23  C   UNL d   1      48.233  35.296  51.728  0.00  0.00     0.021 A 
ATOM     24  N   UNL d   1      49.500  34.489  51.834  0.00  0.00    -0.225 NA
ENDBRANCH  15  16
ENDBRANCH  14  15
ENDBRANCH   5  14
TORSDOF 3
ENDMDL
MODEL 3
REMARK VINA RESULT:      -8.4      1.666      5.577
REMARK  3 active torsions:
REMARK  status: ('A' for Active; 'I' for Inactive)
REMARK    1  A    between atoms: C_6  and  C_16 
REMARK    2  A    between atoms: S_14  and  C_8 
REMARK    3  A    between atoms: C_16  and  S_14 
ROOT
ATOM      1  C   UNL d   1      49.232  35.065  52.602  0.00  0.00     0.141 A 
ATOM      2  O   UNL d   1      49.100  35.469  53.310  0.00  0.00    -0.303 OA
ATOM      3  C   UNL d   1      48.601  35.224  52.096  0.00  0.00     0.110 A 
ATOM      4  C   UNL d   1      48.078  35.727  52.490  0.00  0.00     0.043 A 
ATOM      5  C   UNL d   1      49.846  34.572  52.353  0.00  0.00     0.137 A 
ATOM      6  C   UNL d   1      48.387  35.878  53.240  0.00  0.00     0.102 A 
ATOM      7  N   UNL d   1      49.827  34.239  51.598  0.00  0.00    -0.215 NA
ATOM      8  N   UNL d   1      48.581  34.892  51.341  0.00  0.00    -0.222 NA
ATOM      9  C   UNL d   1      49.196  34.398  51.092  0.00  0.00     0.200 A 
ATOM     10  C   UNL d   1      47.361  36.067  52.263  0.00  0.00     0.004 A 
ATOM     11  C   UNL d   1      47.979  36.370  53.763  0.00  0.00     0.025 A 
ATOM     12  C   UNL d   1      46.953  36.558  52.786  0.00  0.00     0.000 A 
ATOM     13  C   UNL d   1      47.262  36.709  53.537  0.00  0.00     0.002 A 
ENDROOT
BRANCH   5  14
ATOM     14  S   UNL d   1      50.478  34.412  52.860  0.00  0.00    -0.062 SA
BRANCH  14  15
ATOM     15  C   UNL d   1      51.193  34.137  52.553  0.00  0.00     0.076 C 
BRANCH  15  16
ATOM     16  C   UNL d   1      51.820  33.969  53.061  0.00  0.00     0.169 A 
ATOM     17  N   UNL d   1      52.220  34.512  53.537  0.00  0.00    -0.225 NA
ATOM     18  C   UNL d   1      52.805  34.107  53.952  0.00  0.00     0.101 A 
ATOM     19  C   UNL d   1      53.368  34.358  54.501  0.00  0.00     0.021 A 
ATOM     20  C   UNL d   1      52.769  33.312  53.734  0.00  0.00     0.101 A 
ATOM     21  C   UNL d   1      53.893  33.814  54.832  0.00  0.00     0.002 A 
ATOM     22  C   UNL d   1      53.857  33.021  54.613  0.00  0.00     0.002 A 
ATOM     23  C   UNL d   1      53.294  32.769  54.064  0.00  0.00     0.021 A 
ATOM     24  N   UNL d   1      52.161  33.227  53.183  0.00  0.00    -0.225 NA
ENDBRANCH  15  16
ENDBRANCH  14  15
ENDBRANCH   5  14
TORSDOF 3
ENDMDL
MODEL 4
REMARK VINA RESULT:      -6.7     10.588     11.042
REMARK  3 active torsions:
REMARK  status: ('A' for Active; 'I' for Inactive)
REMARK    1  A    between atoms: C_6  and  C_16 
REMARK    2  A    between atoms: S_14  and  C_8 
REMARK    3  A    between atoms: C_16  and  S_14 
ROOT
ATOM      1  C   UNL d   1      44.486  29.832  61.423  0.00  0.00     0.141 A 
ATOM      2  O   UNL d   1      44.495  29.007  61.443  0.00  0.00    -0.303 OA
ATOM      3  C   UNL d   1      44.424  30.106  62.198  0.00  0.00     0.110 A 
ATOM      4  C   UNL d   1      44.394  29.451  62.698  0.00  0.00     0.043 A 
ATOM      5  C   UNL d   1      44.527  30.371  60.797  0.00  0.00     0.137 A 
ATOM      6  C   UNL d   1      44.438  28.773  62.232  0.00  0.00     0.102 A 
ATOM      7  N   UNL d   1      44.505  31.181  60.949  0.00  0.00    -0.215 NA
ATOM      8  N   UNL d   1      44.402  30.917  62.350  0.00  0.00    -0.222 NA
ATOM      9  C   UNL d   1      44.443  31.455  61.724  0.00  0.00     0.200 A 
ATOM     10  C   UNL d   1      44.332  29.385  63.519  0.00  0.00     0.004 A 
ATOM     11  C   UNL d   1      44.420  28.027  62.586  0.00  0.00     0.025 A 
ATOM     12  C   UNL d   1      44.314  28.639  63.873  0.00  0.00     0.000 A 
ATOM     13  C   UNL d   1      44.359  27.959  63.406  0.00  0.00     0.002 A 
ENDROOT
BRANCH   5  14
ATOM     14  S   UNL d   1      44.590  30.096  60.021  0.00  0.00    -0.062 SA
BRANCH  14  15
ATOM     15  C   UNL d   1      44.966  30.558  59.450  0.00  0.00     0.076 C 
BRANCH  15  16
ATOM     16  C   UNL d   1      44.906  30.355  58.653  0.00  0.00     0.169 A 
ATOM     17  N   UNL d   1      44.604  30.831  58.050  0.00  0.00    -0.225 NA
ATOM     18  C   UNL d   1      44.649  30.410  57.344  0.00  0.00     0.101 A 
ATOM     19  C   UNL d   1      44.433  30.602  56.571  0.00  0.00     0.021 A 
ATOM     20  C   UNL d   1      44.980  29.672  57.507  0.00  0.00     0.101 A 
ATOM     21  C   UNL d   1      44.547  30.056  55.962  0.00  0.00     0.002 A 
ATOM     22  C   UNL d   1      44.877  29.319  56.126  0.00  0.00     0.002 A 
ATOM     23  C   UNL d   1      45.094  29.127  56.899  0.00  0.00     0.021 A 
ATOM     24  N   UNL d   1      45.139  29.638  58.316  0.00  0.00    -0.225 NA
ENDBRANCH  15  16
ENDBRANCH  14  15
ENDBRANCH   5  14
TORSDOF 3
ENDMDL
MODEL 5
REMARK VINA RESULT:      -6.4     10.134     10.793
REMARK  3 active torsions:
REMARK  status: ('A' for Active; 'I' for Inactive)
REMARK    1  A    between atoms: C_6  and  C_16 
REMARK    2  A    between atoms: S_14  and  C_8 
REMARK    3  A    between atoms: C_16  and  S_14 
ROOT
ATOM      1  C   UNL d   1      44.672  29.251  58.465  0.00  0.00     0.141 A 
ATOM      2  O   UNL d   1      44.638  28.504  58.813  0.00  0.00    -0.303 OA
ATOM      3  C   UNL d   1      44.735  29.150  57.649  0.00  0.00     0.110 A 
ATOM      4  C   UNL d   1      44.741  28.340  57.492  0.00  0.00     0.043 A 
ATOM      5  C   UNL d   1      44.652  30.012  58.787  0.00  0.00     0.137 A 
ATOM      6  C   UNL d   1      44.681  27.941  58.211  0.00  0.00     0.102 A 
ATOM      7  N   UNL d   1      44.697  30.670  58.290  0.00  0.00    -0.215 NA
ATOM      8  N   UNL d   1      44.780  29.808  57.153  0.00  0.00    -0.222 NA
ATOM      9  C   UNL d   1      44.760  30.569  57.475  0.00  0.00     0.200 A 
ATOM     10  C   UNL d   1      44.793  27.915  56.787  0.00  0.00     0.004 A 
ATOM     11  C   UNL d   1      44.673  27.116  58.226  0.00  0.00     0.025 A 
ATOM     12  C   UNL d   1      44.785  27.089  56.802  0.00  0.00     0.000 A 
ATOM     13  C   UNL d   1      44.725  26.689  57.522  0.00  0.00     0.002 A 
ENDROOT
BRANCH   5  14
ATOM     14  S   UNL d   1      44.589  30.113  59.603  0.00  0.00    -0.062 SA
BRANCH  14  15
ATOM     15  C   UNL d   1      44.729  30.854  59.939  0.00  0.00     0.076 C 
BRANCH  15  16
ATOM     16  C   UNL d   1      44.632  30.962  60.751  0.00  0.00     0.169 A 
ATOM     17  N   UNL d   1      44.575  31.686  61.142  0.00  0.00    -0.225 NA
ATOM     18  C   UNL d   1      44.483  31.536  61.947  0.00  0.00     0.101 A 
ATOM     19  C   UNL d   1      44.399  32.037  62.597  0.00  0.00     0.021 A 
ATOM     20  C   UNL d   1      44.483  30.718  62.056  0.00  0.00     0.101 A 
ATOM     21  C   UNL d   1      44.316  31.721  63.355  0.00  0.00     0.002 A 
ATOM     22  C   UNL d   1      44.316  30.904  63.463  0.00  0.00     0.002 A 
ATOM     23  C   UNL d   1      44.400  30.402  62.813  0.00  0.00     0.021 A 
ATOM     24  N   UNL d   1      44.575  30.364  61.316  0.00  0.00    -0.225 NA
ENDBRANCH  15  16
ENDBRANCH  14  15
ENDBRANCH   5  14
TORSDOF 3
ENDMDL
MODEL 6
REMARK VINA RESULT:      -6.4      2.102      5.220
REMARK  3 active torsions:
REMARK  status: ('A' for Active; 'I' for Inactive)
REMARK    1  A    between atoms: C_6  and  C_16 
REMARK    2  A    between atoms: S_14  and  C_8 
REMARK    3  A    between atoms: C_16  and  S_14 
ROOT
ATOM      1  C   UNL d   1      52.833  33.410  53.452  0.00  0.00     0.141 A 
ATOM      2  O   UNL d   1      53.363  33.500  54.078  0.00  0.00    -0.303 OA
ATOM      3  C   UNL d   1      52.456  34.134  53.331  0.00  0.00     0.110 A 
ATOM      4  C   UNL d   1      52.752  34.671  53.882  0.00  0.00     0.043 A 
ATOM      5  C   UNL d   1      52.645  32.762  52.975  0.00  0.00     0.137 A 
ATOM      6  C   UNL d   1      53.312  34.279  54.344  0.00  0.00     0.102 A 
ATOM      7  N   UNL d   1      52.081  32.840  52.378  0.00  0.00    -0.215 NA
ATOM      8  N   UNL d   1      51.892  34.211  52.734  0.00  0.00    -0.222 NA
ATOM      9  C   UNL d   1      51.704  33.563  52.257  0.00  0.00     0.200 A 
ATOM     10  C   UNL d   1      52.584  35.467  54.023  0.00  0.00     0.004 A 
ATOM     11  C   UNL d   1      53.705  34.683  54.948  0.00  0.00     0.025 A 
ATOM     12  C   UNL d   1      52.977  35.871  54.627  0.00  0.00     0.000 A 
ATOM     13  C   UNL d   1      53.537  35.478  55.090  0.00  0.00     0.002 A 
ENDROOT
BRANCH   5  14
ATOM     14  S   UNL d   1      53.023  32.038  53.096  0.00  0.00    -0.062 SA
BRANCH  14  15
ATOM     15  C   UNL d   1      52.603  31.334  53.001  0.00  0.00     0.076 C 
BRANCH  15  16
ATOM     16  C   UNL d   1      52.828  30.662  53.423  0.00  0.00     0.169 A 
ATOM     17  N   UNL d   1      52.666  30.508  54.217  0.00  0.00    -0.225 NA
ATOM     18  C   UNL d   1      52.993  29.776  54.409  0.00  0.00     0.101 A 
ATOM     19  C   UNL d   1      53.006  29.343  55.110  0.00  0.00     0.021 A 
ATOM     20  C   UNL d   1      53.359  29.475  53.732  0.00  0.00     0.101 A 
ATOM     21  C   UNL d   1      53.385  28.610  55.137  0.00  0.00     0.002 A 
ATOM     22  C   UNL d   1      53.749  28.310  54.462  0.00  0.00     0.002 A 
ATOM     23  C   UNL d   1      53.736  28.743  53.759  0.00  0.00     0.021 A 
ATOM     24  N   UNL d   1      53.256  30.022  53.124  0.00  0.00    -0.225 NA
ENDBRANCH  15  16
ENDBRANCH  14  15
ENDBRANCH   5  14
TORSDOF 3
ENDMDL
MODEL 7
REMARK VINA RESULT:      -6.4      9.717     10.826
REMARK  3 active torsions:
REMARK  status: ('A' for Active; 'I' for Inactive)
REMARK    1  A    between atoms: C_6  and  C_16 
REMARK    2  A    between atoms: S_14  and  C_8 
REMARK    3  A    between atoms: C_16  and  S_14 
ROOT
ATOM      1  C   UNL d   1      44.906  27.942  57.215  0.00  0.00     0.141 A 
ATOM      2  O   UNL d   1      44.819  28.364  56.511  0.00  0.00    -0.303 OA
ATOM      3  C   UNL d   1      44.912  28.484  57.837  0.00  0.00     0.110 A 
ATOM      4  C   UNL d   1      44.829  29.240  57.518  0.00  0.00     0.043 A 
ATOM      5  C   UNL d   1      44.980  27.134  57.371  0.00  0.00     0.137 A 
ATOM      6  C   UNL d   1      44.772  29.165  56.699  0.00  0.00     0.102 A 
ATOM      7  N   UNL d   1      45.060  26.870  58.148  0.00  0.00    -0.215 NA
ATOM      8  N   UNL d   1      44.992  28.219  58.615  0.00  0.00    -0.222 NA
ATOM      9  C   UNL d   1      45.066  27.411  58.770  0.00  0.00     0.200 A 
ATOM     10  C   UNL d   1      44.799  29.987  57.868  0.00  0.00     0.004 A 
ATOM     11  C   UNL d   1      44.684  29.838  56.228  0.00  0.00     0.025 A 
ATOM     12  C   UNL d   1      44.711  30.660  57.397  0.00  0.00     0.000 A 
ATOM     13  C   UNL d   1      44.654  30.585  56.577  0.00  0.00     0.002 A 
ENDROOT
BRANCH   5  14
ATOM     14  S   UNL d   1      44.974  26.592  56.748  0.00  0.00    -0.062 SA
BRANCH  14  15
ATOM     15  C   UNL d   1      44.662  25.837  56.862  0.00  0.00     0.076 C 
BRANCH  15  16
ATOM     16  C   UNL d   1      44.686  25.286  56.249  0.00  0.00     0.169 A 
ATOM     17  N   UNL d   1      45.035  24.539  56.279  0.00  0.00    -0.225 NA
ATOM     18  C   UNL d   1      44.929  24.176  55.547  0.00  0.00     0.101 A 
ATOM     19  C   UNL d   1      45.157  23.438  55.257  0.00  0.00     0.021 A 
ATOM     20  C   UNL d   1      44.513  24.699  55.062  0.00  0.00     0.101 A 
ATOM     21  C   UNL d   1      44.968  23.223  54.483  0.00  0.00     0.002 A 
ATOM     22  C   UNL d   1      44.553  23.744  53.999  0.00  0.00     0.002 A 
ATOM     23  C   UNL d   1      44.325  24.483  54.289  0.00  0.00     0.021 A 
ATOM     24  N   UNL d   1      44.363  25.384  55.496  0.00  0.00    -0.225 NA
ENDBRANCH  15  16
ENDBRANCH  14  15
ENDBRANCH   5  14
TORSDOF 3
ENDMDL
MODEL 8
REMARK VINA RESULT:      -6.4      9.938     10.796
REMARK  3 active torsions:
REMARK  status: ('A' for Active; 'I' for Inactive)
REMARK    1  A    between atoms: C_6  and  C_16 
REMARK    2  A    between atoms: S_14  and  C_8 
REMARK    3  A    between atoms: C_16  and  S_14 
ROOT
ATOM      1  C   UNL d   1      44.778  29.766  59.562  0.00  0.00     0.141 A 
ATOM      2  O   UNL d   1      44.622  29.261  60.196  0.00  0.00    -0.303 OA
ATOM      3  C   UNL d   1      44.795  30.539  59.849  0.00  0.00     0.110 A 
ATOM      4  C   UNL d   1      44.649  30.512  60.660  0.00  0.00     0.043 A 
ATOM      5  C   UNL d   1      44.907  29.621  58.758  0.00  0.00     0.137 A 
ATOM      6  C   UNL d   1      44.543  29.723  60.874  0.00  0.00     0.102 A 
ATOM      7  N   UNL d   1      45.053  30.250  58.245  0.00  0.00    -0.215 NA
ATOM      8  N   UNL d   1      44.940  31.168  59.335  0.00  0.00    -0.222 NA
ATOM      9  C   UNL d   1      45.069  31.023  58.532  0.00  0.00     0.200 A 
ATOM     10  C   UNL d   1      44.600  31.106  61.232  0.00  0.00     0.004 A 
ATOM     11  C   UNL d   1      44.386  29.526  61.661  0.00  0.00     0.025 A 
ATOM     12  C   UNL d   1      44.444  30.909  62.019  0.00  0.00     0.000 A 
ATOM     13  C   UNL d   1      44.337  30.119  62.233  0.00  0.00     0.002 A 
ENDROOT
BRANCH   5  14
ATOM     14  S   UNL d   1      44.890  28.847  58.471  0.00  0.00    -0.062 SA
BRANCH  14  15
ATOM     15  C   UNL d   1      45.120  28.691  57.694  0.00  0.00     0.076 C 
BRANCH  15  16
ATOM     16  C   UNL d   1      44.990  27.945  57.369  0.00  0.00     0.169 A 
ATOM     17  N   UNL d   1      45.202  27.223  57.707  0.00  0.00    -0.225 NA
ATOM     18  C   UNL d   1      44.967  26.621  57.195  0.00  0.00     0.101 A 
ATOM     19  C   UNL d   1      45.032  25.800  57.240  0.00  0.00     0.021 A 
ATOM     20  C   UNL d   1      44.608  26.970  56.539  0.00  0.00     0.101 A 
ATOM     21  C   UNL d   1      44.739  25.328  56.629  0.00  0.00     0.002 A 
ATOM     22  C   UNL d   1      44.381  25.677  55.975  0.00  0.00     0.002 A 
ATOM     23  C   UNL d   1      44.315  26.499  55.929  0.00  0.00     0.021 A 
ATOM     24  N   UNL d   1      44.622  27.788  56.647  0.00  0.00    -0.225 NA
ENDBRANCH  15  16
ENDBRANCH  14  15
ENDBRANCH   5  14
TORSDOF 3
ENDMDL
MODEL 9
REMARK VINA RESULT:      -6.3      9.099     10.382
REMARK  3 active torsions:
REMARK  status: ('A' for Active; 'I' for Inactive)
REMARK    1  A    between atoms: C_6  and  C_16 
REMARK    2  A    between atoms: S_14  and  C_8 
REMARK    3  A    between atoms: C_16  and  S_14 
ROOT
ATOM      1  C   UNL d   1      44.809  29.897  57.711  0.00  0.00     0.141 A 
ATOM      2  O   UNL d   1      44.654  30.059  56.917  0.00  0.00    -0.303 OA
ATOM      3  C   UNL d   1      44.802  30.610  58.124  0.00  0.00     0.110 A 
ATOM      4  C   UNL d   1      44.643  31.215  57.585  0.00  0.00     0.043 A 
ATOM      5  C   UNL d   1      44.955  29.189  58.112  0.00  0.00     0.137 A 
ATOM      6  C   UNL d   1      44.552  30.874  56.840  0.00  0.00     0.102 A 
ATOM      7  N   UNL d   1      45.095  29.198  58.926  0.00  0.00    -0.215 NA
ATOM      8  N   UNL d   1      44.941  30.620  58.937  0.00  0.00    -0.222 NA
ATOM      9  C   UNL d   1      45.088  29.912  59.338  0.00  0.00     0.200 A 
ATOM     10  C   UNL d   1      44.570  32.032  57.678  0.00  0.00     0.004 A 
ATOM     11  C   UNL d   1      44.387  31.351  56.186  0.00  0.00     0.025 A 
ATOM     12  C   UNL d   1      44.405  32.508  57.024  0.00  0.00     0.000 A 
ATOM     13  C   UNL d   1      44.314  32.167  56.277  0.00  0.00     0.002 A 
ENDROOT
BRANCH   5  14
ATOM     14  S   UNL d   1      44.962  28.475  57.699  0.00  0.00    -0.062 SA
BRANCH  14  15
ATOM     15  C   UNL d   1      45.007  27.761  58.111  0.00  0.00     0.076 C 
BRANCH  15  16
ATOM     16  C   UNL d   1      44.897  27.049  57.710  0.00  0.00     0.169 A 
ATOM     17  N   UNL d   1      45.029  26.917  56.906  0.00  0.00    -0.225 NA
ATOM     18  C   UNL d   1      44.850  26.129  56.743  0.00  0.00     0.101 A 
ATOM     19  C   UNL d   1      44.876  25.689  56.046  0.00  0.00     0.021 A 
ATOM     20  C   UNL d   1      44.607  25.771  57.447  0.00  0.00     0.101 A 
ATOM     21  C   UNL d   1      44.660  24.892  56.052  0.00  0.00     0.002 A 
ATOM     22  C   UNL d   1      44.418  24.536  56.754  0.00  0.00     0.002 A 
ATOM     23  C   UNL d   1      44.392  24.976  57.452  0.00  0.00     0.021 A 
ATOM     24  N   UNL d   1      44.637  26.340  58.044  0.00  0.00    -0.225 NA
ENDBRANCH  15  16
ENDBRANCH  14  15
ENDBRANCH   5  14
TORSDOF 3
ENDMDL
