MODEL 1
REMARK VINA RESULT:      36.9      0.000      0.000
REMARK  4 active torsions:
REMARK  status: ('A' for Active; 'I' for Inactive)
REMARK    1  A    between atoms: C_8  and  C_1 
REMARK    2  A    between atoms: S_4  and  N_7 
REMARK    3  A    between atoms: C_14  and  S_4 
REMARK    4  A    between atoms: N_7  and  C_13 
ROOT
ATOM      1  C   UNL d   1      59.575  49.667  50.100  0.00  0.00     0.025 A 
ATOM      2  C   UNL d   1      59.993  49.666  50.804  0.00  0.00     0.022 A 
ATOM      3  C   UNL d   1      60.814  49.686  50.803  0.00  0.00     0.094 A 
ATOM      4  C   UNL d   1      59.970  49.687  49.372  0.00  0.00     0.002 A 
ATOM      5  C   UNL d   1      60.788  49.707  49.358  0.00  0.00     0.002 A 
ATOM      6  C   UNL d   1      61.213  49.707  50.081  0.00  0.00     0.020 A 
ENDROOT
BRANCH   1   7
ATOM      7  C   UNL d   1      58.746  49.646  50.107  0.00  0.00     0.112 A 
ATOM      8  S   UNL d   1      58.254  49.560  49.439  0.00  0.00    -0.047 SA
ATOM      9  C   UNL d   1      57.458  49.567  49.686  0.00  0.00     0.130 A 
ATOM     10  N   UNL d   1      56.745  49.505  49.290  0.00  0.00    -0.236 NA
ATOM     11  C   UNL d   1      57.463  49.659  50.520  0.00  0.00     0.106 A 
ATOM     12  C   UNL d   1      56.036  49.533  49.703  0.00  0.00     0.100 A 
ATOM     13  C   UNL d   1      56.033  49.623  50.523  0.00  0.00     0.022 A 
ATOM     14  C   UNL d   1      56.743  49.686  50.932  0.00  0.00     0.023 A 
ATOM     15  N   UNL d   1      58.252  49.708  50.778  0.00  0.00    -0.237 NA
ENDBRANCH   1   7
BRANCH   3  16
ATOM     16  N   UNL d   1      61.235  49.686  51.505  0.00  0.00    -0.158 NA
BRANCH  16  17
ATOM     17  S   UNL d   1      61.100  49.099  52.068  0.00  0.00     0.286 S 
ATOM     18  O   UNL d   1      60.856  49.674  52.612  0.00  0.00    -0.198 OA
ATOM     19  O   UNL d   1      61.342  48.525  51.527  0.00  0.00    -0.198 OA
BRANCH  17  20
ATOM     20  C   UNL d   1      60.967  48.510  52.624  0.00  0.00     0.117 C 
ATOM     21  C   UNL d   1      61.177  47.727  52.458  0.00  0.00     0.014 C 
ENDBRANCH  17  20
ENDBRANCH  16  17
ENDBRANCH   3  16
TORSDOF 4
ENDMDL
