MODEL 1
REMARK VINA RESULT:      59.3      0.000      0.000
REMARK  6 active torsions:
REMARK  status: ('A' for Active; 'I' for Inactive)
REMARK    1  A    between atoms: C_5  and  S_1 
REMARK    2  A    between atoms: N_6  and  S_1 
REMARK       I    between atoms: N_2  and  C_3 
REMARK    3  A    between atoms: C_3  and  C_14 
REMARK    4  A    between atoms: C_4  and  C_7 
REMARK    5  A    between atoms: C_23  and  N_6 
REMARK    6  A    between atoms: C_24  and  C_23 
ROOT
ATOM      1  C   UNL d   1     -51.036  26.613  33.713  0.00  0.00     0.057 A 
ATOM      2  C   UNL d   1     -50.383  26.421  34.180  0.00  0.00     0.005 A 
ATOM      3  C   UNL d   1     -51.052  27.331  33.306  0.00  0.00     0.005 A 
ATOM      4  C   UNL d   1     -49.769  27.658  33.833  0.00  0.00     0.020 A 
ATOM      5  C   UNL d   1     -49.752  26.941  34.241  0.00  0.00     0.002 A 
ATOM      6  C   UNL d   1     -50.418  27.854  33.366  0.00  0.00     0.002 A 
ENDROOT
BRANCH   4   7
ATOM      7  C   UNL d   1     -49.135  28.181  33.893  0.00  0.00     0.112 C 
BRANCH   7   8
ATOM      8  N   UNL d   1     -48.521  28.023  34.415  0.00  0.00    -0.157 NA
BRANCH   8   9
ATOM      9  S   UNL d   1     -48.183  28.648  34.853  0.00  0.00     0.285 S 
ATOM     10  O   UNL d   1     -48.022  29.052  34.139  0.00  0.00    -0.198 OA
ATOM     11  O   UNL d   1     -48.343  28.246  35.554  0.00  0.00    -0.198 OA
BRANCH   9  12
ATOM     12  C   UNL d   1     -47.847  29.270  35.277  0.00  0.00     0.105 A 
ATOM     13  C   UNL d   1     -47.848  30.029  34.967  0.00  0.00     0.017 A 
ATOM     14  C   UNL d   1     -47.511  30.652  35.391  0.00  0.00     0.072 A 
ATOM     15  C   UNL d   1     -47.172  30.505  36.133  0.00  0.00     0.004 A 
ATOM     16  C   UNL d   1     -47.171  29.746  36.444  0.00  0.00     0.001 A 
ATOM     17  C   UNL d   1     -47.509  29.130  36.014  0.00  0.00     0.013 A 
BRANCH  14  18
ATOM     18  C   UNL d   1     -47.510  31.413  35.083  0.00  0.00     0.419 C 
ATOM     19  F   UNL d   1     -47.032  31.667  35.708  0.00  0.00    -0.166 F 
ATOM     20  F   UNL d   1     -47.990  31.163  34.455  0.00  0.00    -0.166 F 
ATOM     21  F   UNL d   1     -47.510  32.183  34.771  0.00  0.00    -0.166 F 
ENDBRANCH  14  18
ENDBRANCH   9  12
ENDBRANCH   8   9
ENDBRANCH   7   8
ENDBRANCH   4   7
BRANCH   1  22
ATOM     22  C   UNL d   1     -51.681  26.083  33.651  0.00  0.00     0.265 C 
ATOM     23  N   UNL d   1     -51.539  25.274  33.541  0.00  0.00    -0.268 N 
ATOM     24  C   UNL d   1     -50.764  24.993  33.492  0.00  0.00     0.108 A 
ATOM     25  C   UNL d   1     -52.175  24.754  33.480  0.00  0.00     0.108 A 
ATOM     26  C   UNL d   1     -50.626  24.181  33.381  0.00  0.00     0.118 A 
ATOM     27  C   UNL d   1     -49.847  23.898  33.332  0.00  0.00     0.028 C 
ATOM     28  O   UNL d   1     -51.263  23.660  33.320  0.00  0.00    -0.304 OA
ATOM     29  C   UNL d   1     -52.040  23.938  33.369  0.00  0.00     0.118 A 
ATOM     30  C   UNL d   1     -52.676  23.411  33.307  0.00  0.00     0.028 C 
ATOM     31  O   UNL d   1     -52.456  26.369  33.701  0.00  0.00    -0.267 OA
ENDBRANCH   1  22
TORSDOF 6
ENDMDL
