MODEL 1
REMARK VINA RESULT:      83.3      0.000      0.000
REMARK  6 active torsions:
REMARK  status: ('A' for Active; 'I' for Inactive)
REMARK    1  A    between atoms: N_6  and  C_1 
REMARK    2  A    between atoms: C_3  and  N_6 
REMARK    3  A    between atoms: N_4  and  C_3 
REMARK       I    between atoms: C_9  and  N_4 
REMARK    4  A    between atoms: C_12  and  C_9 
REMARK    5  A    between atoms: C_10  and  C_13 
REMARK    6  A    between atoms: C_16  and  C_10 
ROOT
ATOM      1  N   UNL d   1     -55.847-101.991 -41.586  0.00  0.00    -0.179 NA
ATOM      2  C   UNL d   1     -55.498-101.652 -42.221  0.00  0.00     0.281 C 
ATOM      3  O   UNL d   1     -54.729-101.909 -42.453  0.00  0.00    -0.265 OA
ENDROOT
BRANCH   2   4
ATOM      4  C   UNL d   1     -55.852-101.059 -42.664  0.00  0.00     0.058 A 
ATOM      5  C   UNL d   1     -55.943-101.126 -43.481  0.00  0.00     0.005 A 
ATOM      6  C   UNL d   1     -56.282-100.560 -43.904  0.00  0.00     0.003 A 
ATOM      7  C   UNL d   1     -56.563 -99.871 -43.553  0.00  0.00     0.039 A 
ATOM      8  C   UNL d   1     -56.474 -99.799 -42.734  0.00  0.00     0.003 A 
ATOM      9  C   UNL d   1     -56.135-100.365 -42.311  0.00  0.00     0.005 A 
BRANCH   7  10
ATOM     10  C   UNL d   1     -56.917 -99.278 -43.997  0.00  0.00     0.196 C 
ATOM     11  O   UNL d   1     -56.491 -98.826 -44.542  0.00  0.00    -0.287 OA
BRANCH  10  12
ATOM     12  C   UNL d   1     -57.726 -99.100 -43.922  0.00  0.00     0.039 A 
ATOM     13  C   UNL d   1     -58.064 -99.011 -43.221  0.00  0.00     0.003 A 
ATOM     14  C   UNL d   1     -58.865 -98.835 -43.151  0.00  0.00     0.000 A 
ATOM     15  C   UNL d   1     -59.298 -98.755 -43.850  0.00  0.00     0.000 A 
ATOM     16  C   UNL d   1     -58.959 -98.843 -44.550  0.00  0.00     0.000 A 
ATOM     17  C   UNL d   1     -58.152 -99.021 -44.626  0.00  0.00     0.003 A 
ENDBRANCH  10  12
ENDBRANCH   7  10
ENDBRANCH   2   4
BRANCH   1  18
ATOM     18  C   UNL d   1     -55.473-102.555 -41.189  0.00  0.00     0.225 C 
ATOM     19  S   UNL d   1     -54.783-102.879 -41.446  0.00  0.00    -0.037 SA
BRANCH  18  20
ATOM     20  N   UNL d   1     -55.792-102.847 -40.461  0.00  0.00    -0.192 NA
BRANCH  20  21
ATOM     21  C   UNL d   1     -55.549-102.489 -39.756  0.00  0.00     0.196 A 
ATOM     22  N   UNL d   1     -55.227-101.768 -39.661  0.00  0.00    -0.221 NA
ATOM     23  C   UNL d   1     -55.090-101.685 -38.859  0.00  0.00     0.090 A 
ATOM     24  C   UNL d   1     -54.769-101.069 -38.412  0.00  0.00     0.020 A 
ATOM     25  C   UNL d   1     -55.347-102.387 -38.501  0.00  0.00     0.050 A 
ATOM     26  C   UNL d   1     -54.712-101.178 -37.591  0.00  0.00     0.002 A 
ATOM     27  C   UNL d   1     -54.969-101.880 -37.233  0.00  0.00     0.001 A 
ATOM     28  C   UNL d   1     -55.280-102.467 -37.701  0.00  0.00     0.008 A 
ATOM     29  S   UNL d   1     -55.629-102.865 -39.102  0.00  0.00    -0.047 SA
ENDBRANCH  20  21
ENDBRANCH  18  20
ENDBRANCH   1  18
TORSDOF 6
ENDMDL
MODEL 2
REMARK VINA RESULT:      84.1      1.786      5.715
REMARK  6 active torsions:
REMARK  status: ('A' for Active; 'I' for Inactive)
REMARK    1  A    between atoms: N_6  and  C_1 
REMARK    2  A    between atoms: C_3  and  N_6 
REMARK    3  A    between atoms: N_4  and  C_3 
REMARK       I    between atoms: C_9  and  N_4 
REMARK    4  A    between atoms: C_12  and  C_9 
REMARK    5  A    between atoms: C_10  and  C_13 
REMARK    6  A    between atoms: C_16  and  C_10 
ROOT
ATOM      1  N   UNL d   1     -55.145-101.209 -42.594  0.00  0.00    -0.179 NA
ATOM      2  C   UNL d   1     -55.554-101.877 -42.435  0.00  0.00     0.281 C 
ATOM      3  O   UNL d   1     -55.740-102.405 -43.066  0.00  0.00    -0.265 OA
ENDROOT
BRANCH   2   4
ATOM      4  C   UNL d   1     -55.807-102.080 -41.682  0.00  0.00     0.058 A 
ATOM      5  C   UNL d   1     -56.576-102.340 -41.538  0.00  0.00     0.005 A 
ATOM      6  C   UNL d   1     -56.817-102.534 -40.818  0.00  0.00     0.003 A 
ATOM      7  C   UNL d   1     -56.313-102.486 -40.169  0.00  0.00     0.039 A 
ATOM      8  C   UNL d   1     -55.541-102.226 -40.307  0.00  0.00     0.003 A 
ATOM      9  C   UNL d   1     -55.299-102.032 -41.028  0.00  0.00     0.005 A 
BRANCH   7  10
ATOM     10  C   UNL d   1     -56.566-102.689 -39.415  0.00  0.00     0.196 C 
ATOM     11  O   UNL d   1     -57.355-102.878 -39.254  0.00  0.00    -0.287 OA
BRANCH  10  12
ATOM     12  C   UNL d   1     -56.042-102.715 -38.771  0.00  0.00     0.039 A 
ATOM     13  C   UNL d   1     -56.292-102.850 -38.041  0.00  0.00     0.003 A 
ATOM     14  C   UNL d   1     -55.770-102.875 -37.406  0.00  0.00     0.000 A 
ATOM     15  C   UNL d   1     -54.969-102.753 -37.569  0.00  0.00     0.000 A 
ATOM     16  C   UNL d   1     -54.719-102.619 -38.299  0.00  0.00     0.000 A 
ATOM     17  C   UNL d   1     -55.242-102.592 -38.942  0.00  0.00     0.003 A 
ENDBRANCH  10  12
ENDBRANCH   7  10
ENDBRANCH   2   4
BRANCH   1  18
ATOM     18  C   UNL d   1     -54.922-101.053 -43.330  0.00  0.00     0.225 C 
ATOM     19  S   UNL d   1     -54.721-101.631 -43.852  0.00  0.00    -0.037 SA
BRANCH  18  20
ATOM     20  N   UNL d   1     -54.886-100.252 -43.603  0.00  0.00    -0.192 NA
BRANCH  20  21
ATOM     21  C   UNL d   1     -55.546 -99.939 -43.990  0.00  0.00     0.196 A 
ATOM     22  N   UNL d   1     -55.686 -99.915 -44.773  0.00  0.00    -0.221 NA
ATOM     23  C   UNL d   1     -56.413 -99.551 -44.862  0.00  0.00     0.090 A 
ATOM     24  C   UNL d   1     -56.861 -99.364 -45.531  0.00  0.00     0.020 A 
ATOM     25  C   UNL d   1     -56.682 -99.370 -44.099  0.00  0.00     0.050 A 
ATOM     26  C   UNL d   1     -57.591 -98.986 -45.411  0.00  0.00     0.002 A 
ATOM     27  C   UNL d   1     -57.859 -98.804 -44.648  0.00  0.00     0.001 A 
ATOM     28  C   UNL d   1     -57.395 -99.002 -44.012  0.00  0.00     0.008 A 
ATOM     29  S   UNL d   1     -56.105 -99.631 -43.581  0.00  0.00    -0.047 SA
ENDBRANCH  20  21
ENDBRANCH  18  20
ENDBRANCH   1  18
TORSDOF 6
ENDMDL
MODEL 3
REMARK VINA RESULT:      84.1      1.661      2.165
REMARK  6 active torsions:
REMARK  status: ('A' for Active; 'I' for Inactive)
REMARK    1  A    between atoms: N_6  and  C_1 
REMARK    2  A    between atoms: C_3  and  N_6 
REMARK    3  A    between atoms: N_4  and  C_3 
REMARK       I    between atoms: C_9  and  N_4 
REMARK    4  A    between atoms: C_12  and  C_9 
REMARK    5  A    between atoms: C_10  and  C_13 
REMARK    6  A    between atoms: C_16  and  C_10 
ROOT
ATOM      1  N   UNL d   1     -54.889-100.627 -40.262  0.00  0.00    -0.179 NA
ATOM      2  C   UNL d   1     -54.887 -99.877 -40.539  0.00  0.00     0.281 C 
ATOM      3  O   UNL d   1     -54.762 -99.240 -40.001  0.00  0.00    -0.265 OA
ENDROOT
BRANCH   2   4
ATOM      4  C   UNL d   1     -55.001 -99.691 -41.330  0.00  0.00     0.058 A 
ATOM      5  C   UNL d   1     -55.343 -98.978 -41.562  0.00  0.00     0.005 A 
ATOM      6  C   UNL d   1     -55.452 -98.800 -42.317  0.00  0.00     0.003 A 
ATOM      7  C   UNL d   1     -55.229 -99.318 -42.916  0.00  0.00     0.039 A 
ATOM      8  C   UNL d   1     -54.885-100.035 -42.690  0.00  0.00     0.003 A 
ATOM      9  C   UNL d   1     -54.776-100.213 -41.934  0.00  0.00     0.005 A 
BRANCH   7  10
ATOM     10  C   UNL d   1     -55.344 -99.132 -43.708  0.00  0.00     0.196 C 
ATOM     11  O   UNL d   1     -54.712 -98.951 -44.210  0.00  0.00    -0.287 OA
BRANCH  10  12
ATOM     12  C   UNL d   1     -56.102 -99.115 -44.048  0.00  0.00     0.039 A 
ATOM     13  C   UNL d   1     -56.711 -98.790 -43.679  0.00  0.00     0.003 A 
ATOM     14  C   UNL d   1     -57.460 -98.776 -44.019  0.00  0.00     0.000 A 
ATOM     15  C   UNL d   1     -57.544 -99.119 -44.766  0.00  0.00     0.000 A 
ATOM     16  C   UNL d   1     -56.935 -99.444 -45.135  0.00  0.00     0.000 A 
ATOM     17  C   UNL d   1     -56.177 -99.461 -44.795  0.00  0.00     0.003 A 
ENDBRANCH  10  12
ENDBRANCH   7  10
ENDBRANCH   2   4
BRANCH   1  18
ATOM     18  C   UNL d   1     -54.775-100.761 -39.496  0.00  0.00     0.225 C 
ATOM     19  S   UNL d   1     -54.711-100.167 -38.959  0.00  0.00    -0.037 SA
BRANCH  18  20
ATOM     20  N   UNL d   1     -54.716-101.555 -39.208  0.00  0.00    -0.192 NA
BRANCH  20  21
ATOM     21  C   UNL d   1     -54.777-101.682 -38.393  0.00  0.00     0.196 A 
ATOM     22  N   UNL d   1     -54.899-102.371 -38.015  0.00  0.00    -0.221 NA
ATOM     23  C   UNL d   1     -54.913-102.192 -37.217  0.00  0.00     0.090 A 
ATOM     24  C   UNL d   1     -55.017-102.661 -36.545  0.00  0.00     0.020 A 
ATOM     25  C   UNL d   1     -54.796-101.374 -37.156  0.00  0.00     0.050 A 
ATOM     26  C   UNL d   1     -55.000-102.284 -35.806  0.00  0.00     0.002 A 
ATOM     27  C   UNL d   1     -54.882-101.466 -35.745  0.00  0.00     0.001 A 
ATOM     28  C   UNL d   1     -54.783-101.033 -36.425  0.00  0.00     0.008 A 
ATOM     29  S   UNL d   1     -54.715-101.093 -37.920  0.00  0.00    -0.047 SA
ENDBRANCH  20  21
ENDBRANCH  18  20
ENDBRANCH   1  18
TORSDOF 6
ENDMDL
