MODEL 1
REMARK VINA RESULT:      -2.4      0.000      0.000
REMARK  8 active torsions:
REMARK  status: ('A' for Active; 'I' for Inactive)
REMARK    1  A    between atoms: C_6  and  N_1 
REMARK    2  A    between atoms: C_7  and  C_2 
REMARK    3  A    between atoms: C_3  and  C_9 
REMARK    4  A    between atoms: O_5  and  C_3 
REMARK    5  A    between atoms: C_4  and  O_5 
REMARK    6  A    between atoms: C_8  and  C_7 
REMARK    7  A    between atoms: C_12  and  C_8 
REMARK    8  A    between atoms: C_10  and  C_12 
ROOT
ATOM      1  C   UNL d   1      31.755  17.252 -24.447  0.00  0.00     0.064 A 
ATOM      2  C   UNL d   1      32.334  17.620 -23.986  0.00  0.00     0.106 A 
ATOM      3  C   UNL d   1      31.921  16.525 -24.818  0.00  0.00     0.035 A 
ATOM      4  C   UNL d   1      33.080  17.261 -23.896  0.00  0.00     0.027 A 
ATOM      5  C   UNL d   1      32.662  16.173 -24.726  0.00  0.00     0.140 A 
ATOM      6  C   UNL d   1      33.241  16.540 -24.266  0.00  0.00     0.032 A 
ATOM      7  F   UNL d   1      32.822  15.453 -25.096  0.00  0.00    -0.204 F 
ENDROOT
BRANCH   2   8
ATOM      8  O   UNL d   1      32.176  18.342 -23.614  0.00  0.00    -0.273 OA
BRANCH   8   9
ATOM      9  C   UNL d   1      32.770  18.915 -23.563  0.00  0.00     0.300 C 
ATOM     10  O   UNL d   1      33.234  19.094 -24.219  0.00  0.00    -0.259 OA
BRANCH   9  11
ATOM     11  C   UNL d   1      32.895  19.306 -22.848  0.00  0.00     0.065 A 
ATOM     12  C   UNL d   1      32.806  20.124 -22.809  0.00  0.00     0.029 A 
ATOM     13  C   UNL d   1      32.928  20.519 -22.101  0.00  0.00     0.127 A 
ATOM     14  C   UNL d   1      33.147  20.066 -21.419  0.00  0.00     0.024 A 
ATOM     15  C   UNL d   1      33.233  19.278 -21.461  0.00  0.00     0.002 A 
ATOM     16  C   UNL d   1      33.109  18.878 -22.176  0.00  0.00     0.005 A 
BRANCH  13  17
ATOM     17  N   UNL d   1      32.841  21.348 -22.046  0.00  0.00    -0.114 N 
ATOM     18  O   UNL d   1      33.098  21.830 -22.656  0.00  0.00    -0.532 OA
ATOM     19  O   UNL d   1      32.495  21.673 -21.371  0.00  0.00    -0.532 OA
ENDBRANCH  13  17
ENDBRANCH   9  11
ENDBRANCH   8   9
ENDBRANCH   2   8
BRANCH   1  20
ATOM     20  C   UNL d   1      31.012  17.607 -24.538  0.00  0.00     0.198 C 
ATOM     21  O   UNL d   1      30.914  18.229 -25.073  0.00  0.00    -0.286 OA
BRANCH  20  22
ATOM     22  C   UNL d   1      30.370  17.339 -24.094  0.00  0.00     0.043 C 
BRANCH  22  23
ATOM     23  C   UNL d   1      29.603  17.432 -24.385  0.00  0.00     0.010 C 
BRANCH  23  24
ATOM     24  C   UNL d   1      28.972  17.057 -24.006  0.00  0.00     0.030 A 
ATOM     25  S   UNL d   1      28.481  17.383 -23.426  0.00  0.00    -0.086 SA
ATOM     26  C   UNL d   1      27.926  16.815 -23.201  0.00  0.00     0.035 A 
ATOM     27  C   UNL d   1      28.068  16.131 -23.641  0.00  0.00     0.007 A 
ATOM     28  C   UNL d   1      28.714  16.279 -24.138  0.00  0.00     0.007 A 
ENDBRANCH  23  24
ENDBRANCH  22  23
ENDBRANCH  20  22
ENDBRANCH   1  20
TORSDOF 8
ENDMDL
