MODEL 1
REMARK VINA RESULT:      -8.1      0.000      0.000
REMARK  9 active torsions:
REMARK  status: ('A' for Active; 'I' for Inactive)
REMARK    1  A    between atoms: C_19  and  N_1 
REMARK    2  A    between atoms: S_15  and  C_2 
REMARK    3  A    between atoms: C_7  and  C_10 
REMARK       I    between atoms: N_12  and  C_7 
REMARK    4  A    between atoms: C_20  and  N_12 
REMARK    5  A    between atoms: C_22  and  S_15 
REMARK    6  A    between atoms: C_24  and  C_19 
REMARK    7  A    between atoms: C_21  and  C_20 
REMARK    8  A    between atoms: C_27  and  C_24 
REMARK    9  A    between atoms: C_26  and  C_27 
ROOT
ATOM      1  N   UNL d   1      52.859  29.552  53.290  0.00  0.00    -0.195 NA
ATOM      2  C   UNL d   1      52.668  30.337  53.113  0.00  0.00     0.086 C 
ATOM      3  C   UNL d   1      52.475  31.117  52.935  0.00  0.00     0.170 C 
ENDROOT
BRANCH   3   4
ATOM      4  S   UNL d   1      52.866  31.733  53.311  0.00  0.00    -0.060 SA
BRANCH   4   5
ATOM      5  C   UNL d   1      52.583  32.525  53.229  0.00  0.00     0.178 A 
ATOM      6  N   UNL d   1      53.073  33.164  53.413  0.00  0.00    -0.253 N 
ATOM      7  C   UNL d   1      52.796  33.934  53.332  0.00  0.00     0.268 A 
ATOM      8  C   UNL d   1      52.016  34.063  53.063  0.00  0.00     0.074 A 
ATOM      9  O   UNL d   1      53.280  34.576  53.514  0.00  0.00    -0.267 OA
ATOM     10  C   UNL d   1      51.532  33.431  52.882  0.00  0.00     0.088 A 
ATOM     11  C   UNL d   1      51.737  34.837  52.982  0.00  0.00     0.006 A 
ATOM     12  C   UNL d   1      50.762  33.565  52.616  0.00  0.00     0.024 A 
ATOM     13  N   UNL d   1      51.811  32.661  52.963  0.00  0.00    -0.222 NA
ATOM     14  C   UNL d   1      50.484  34.334  52.535  0.00  0.00     0.059 A 
ATOM     15  C   UNL d   1      50.969  34.966  52.717  0.00  0.00     0.005 A 
BRANCH   6  16
ATOM     16  C   UNL d   1      53.854  33.022  53.682  0.00  0.00     0.085 C 
BRANCH  16  17
ATOM     17  C   UNL d   1      54.054  33.248  54.450  0.00  0.00     0.019 C 
BRANCH  17  18
ATOM     18  C   UNL d   1      54.853  33.198  54.687  0.00  0.00     0.002 C 
BRANCH  18  19
ATOM     19  C   UNL d   1      55.067  33.454  55.454  0.00  0.00     0.000 C 
ATOM     20  C   UNL d   1      55.611  34.062  55.533  0.00  0.00     0.000 C 
ENDBRANCH  18  19
ENDBRANCH  17  18
ENDBRANCH  16  17
ENDBRANCH   6  16
BRANCH  14  21
ATOM     21  C   UNL d   1      49.716  34.466  52.271  0.00  0.00     0.279 C 
ATOM     22  N   UNL d   1      49.221  34.992  52.668  0.00  0.00    -0.204 NA
ATOM     23  O   UNL d   1      49.435  34.071  51.602  0.00  0.00    -0.265 OA
BRANCH  22  24
ATOM     24  C   UNL d   1      48.449  35.125  52.401  0.00  0.00     0.127 C 
BRANCH  24  25
ATOM     25  C   UNL d   1      47.983  35.715  52.755  0.00  0.00     0.119 A 
ATOM     26  O   UNL d   1      48.018  35.947  53.543  0.00  0.00    -0.304 OA
ATOM     27  C   UNL d   1      47.461  36.547  53.658  0.00  0.00     0.123 A 
ATOM     28  C   UNL d   1      47.084  36.683  52.933  0.00  0.00     0.029 A 
ATOM     29  C   UNL d   1      47.407  36.169  52.381  0.00  0.00     0.028 A 
ENDBRANCH  24  25
ENDBRANCH  22  24
ENDBRANCH  14  21
ENDBRANCH   4   5
ENDBRANCH   3   4
TORSDOF 9
ENDMDL
MODEL 2
REMARK VINA RESULT:      -7.7      1.305      2.511
REMARK  9 active torsions:
REMARK  status: ('A' for Active; 'I' for Inactive)
REMARK    1  A    between atoms: C_19  and  N_1 
REMARK    2  A    between atoms: S_15  and  C_2 
REMARK    3  A    between atoms: C_7  and  C_10 
REMARK       I    between atoms: N_12  and  C_7 
REMARK    4  A    between atoms: C_20  and  N_12 
REMARK    5  A    between atoms: C_22  and  S_15 
REMARK    6  A    between atoms: C_24  and  C_19 
REMARK    7  A    between atoms: C_21  and  C_20 
REMARK    8  A    between atoms: C_27  and  C_24 
REMARK    9  A    between atoms: C_26  and  C_27 
ROOT
ATOM      1  N   UNL d   1      55.385  33.760  55.534  0.00  0.00    -0.195 NA
ATOM      2  C   UNL d   1      54.649  33.724  55.159  0.00  0.00     0.086 C 
ATOM      3  C   UNL d   1      53.916  33.691  54.787  0.00  0.00     0.170 C 
ENDROOT
BRANCH   3   4
ATOM      4  S   UNL d   1      53.710  33.033  54.343  0.00  0.00    -0.060 SA
BRANCH   4   5
ATOM      5  C   UNL d   1      53.007  33.042  53.875  0.00  0.00     0.178 A 
ATOM      6  N   UNL d   1      52.847  32.426  53.349  0.00  0.00    -0.253 N 
ATOM      7  C   UNL d   1      52.161  32.438  52.895  0.00  0.00     0.268 A 
ATOM      8  C   UNL d   1      51.630  33.077  52.970  0.00  0.00     0.074 A 
ATOM      9  O   UNL d   1      51.996  31.825  52.368  0.00  0.00    -0.267 OA
ATOM     10  C   UNL d   1      51.788  33.687  53.490  0.00  0.00     0.088 A 
ATOM     11  C   UNL d   1      50.941  33.089  52.513  0.00  0.00     0.006 A 
ATOM     12  C   UNL d   1      51.260  34.317  53.560  0.00  0.00     0.024 A 
ATOM     13  N   UNL d   1      52.475  33.673  53.944  0.00  0.00    -0.222 NA
ATOM     14  C   UNL d   1      50.575  34.329  53.106  0.00  0.00     0.059 A 
ATOM     15  C   UNL d   1      50.416  33.719  52.586  0.00  0.00     0.005 A 
BRANCH   6  16
ATOM     16  C   UNL d   1      53.387  31.789  53.282  0.00  0.00     0.085 C 
BRANCH  16  17
ATOM     17  C   UNL d   1      53.110  31.022  53.408  0.00  0.00     0.019 C 
BRANCH  17  18
ATOM     18  C   UNL d   1      53.666  30.409  53.519  0.00  0.00     0.002 C 
BRANCH  18  19
ATOM     19  C   UNL d   1      53.395  29.619  53.579  0.00  0.00     0.000 C 
ATOM     20  C   UNL d   1      53.427  29.241  54.305  0.00  0.00     0.000 C 
ENDBRANCH  18  19
ENDBRANCH  17  18
ENDBRANCH  16  17
ENDBRANCH   6  16
BRANCH  14  21
ATOM     21  C   UNL d   1      50.047  34.958  53.176  0.00  0.00     0.279 C 
ATOM     22  N   UNL d   1      49.347  34.967  52.744  0.00  0.00    -0.204 NA
ATOM     23  O   UNL d   1      50.219  35.587  53.684  0.00  0.00    -0.265 OA
BRANCH  22  24
ATOM     24  C   UNL d   1      48.818  35.599  52.815  0.00  0.00     0.127 C 
BRANCH  24  25
ATOM     25  C   UNL d   1      48.136  35.625  52.341  0.00  0.00     0.119 A 
ATOM     26  O   UNL d   1      48.061  35.306  51.587  0.00  0.00    -0.304 OA
ATOM     27  C   UNL d   1      47.293  35.457  51.319  0.00  0.00     0.123 A 
ATOM     28  C   UNL d   1      46.896  35.872  51.916  0.00  0.00     0.029 A 
ATOM     29  C   UNL d   1      47.416  35.973  52.543  0.00  0.00     0.028 A 
ENDBRANCH  24  25
ENDBRANCH  22  24
ENDBRANCH  14  21
ENDBRANCH   4   5
ENDBRANCH   3   4
TORSDOF 9
ENDMDL
MODEL 3
REMARK VINA RESULT:      -6.5      1.441      2.587
REMARK  9 active torsions:
REMARK  status: ('A' for Active; 'I' for Inactive)
REMARK    1  A    between atoms: C_19  and  N_1 
REMARK    2  A    between atoms: S_15  and  C_2 
REMARK    3  A    between atoms: C_7  and  C_10 
REMARK       I    between atoms: N_12  and  C_7 
REMARK    4  A    between atoms: C_20  and  N_12 
REMARK    5  A    between atoms: C_22  and  S_15 
REMARK    6  A    between atoms: C_24  and  C_19 
REMARK    7  A    between atoms: C_21  and  C_20 
REMARK    8  A    between atoms: C_27  and  C_24 
REMARK    9  A    between atoms: C_26  and  C_27 
ROOT
ATOM      1  N   UNL d   1      54.399  34.498  55.600  0.00  0.00    -0.195 NA
ATOM      2  C   UNL d   1      53.718  34.485  55.132  0.00  0.00     0.086 C 
ATOM      3  C   UNL d   1      53.038  34.473  54.668  0.00  0.00     0.170 C 
ENDROOT
BRANCH   3   4
ATOM      4  S   UNL d   1      52.846  33.802  54.237  0.00  0.00    -0.060 SA
BRANCH   4   5
ATOM      5  C   UNL d   1      52.178  33.810  53.719  0.00  0.00     0.178 A 
ATOM      6  N   UNL d   1      52.131  33.276  53.091  0.00  0.00    -0.253 N 
ATOM      7  C   UNL d   1      51.481  33.285  52.588  0.00  0.00     0.268 A 
ATOM      8  C   UNL d   1      50.869  33.838  52.719  0.00  0.00     0.074 A 
ATOM      9  O   UNL d   1      51.428  32.755  51.959  0.00  0.00    -0.267 OA
ATOM     10  C   UNL d   1      50.916  34.366  53.340  0.00  0.00     0.088 A 
ATOM     11  C   UNL d   1      50.215  33.848  52.214  0.00  0.00     0.006 A 
ATOM     12  C   UNL d   1      50.308  34.911  53.465  0.00  0.00     0.024 A 
ATOM     13  N   UNL d   1      51.568  34.355  53.843  0.00  0.00    -0.222 NA
ATOM     14  C   UNL d   1      49.657  34.921  52.963  0.00  0.00     0.059 A 
ATOM     15  C   UNL d   1      49.611  34.393  52.341  0.00  0.00     0.005 A 
BRANCH   6  16
ATOM     16  C   UNL d   1      52.751  32.725  52.969  0.00  0.00     0.085 C 
BRANCH  16  17
ATOM     17  C   UNL d   1      52.601  31.925  53.105  0.00  0.00     0.019 C 
BRANCH  17  18
ATOM     18  C   UNL d   1      53.233  31.384  53.051  0.00  0.00     0.002 C 
BRANCH  18  19
ATOM     19  C   UNL d   1      53.066  30.568  52.970  0.00  0.00     0.000 C 
ATOM     20  C   UNL d   1      53.371  30.043  53.521  0.00  0.00     0.000 C 
ENDBRANCH  18  19
ENDBRANCH  17  18
ENDBRANCH  16  17
ENDBRANCH   6  16
BRANCH  14  21
ATOM     21  C   UNL d   1      49.052  35.465  53.088  0.00  0.00     0.279 C 
ATOM     22  N   UNL d   1      48.367  35.440  52.631  0.00  0.00    -0.204 NA
ATOM     23  O   UNL d   1      49.128  36.041  53.675  0.00  0.00    -0.265 OA
BRANCH  22  24
ATOM     24  C   UNL d   1      47.759  35.987  52.757  0.00  0.00     0.127 C 
BRANCH  24  25
ATOM     25  C   UNL d   1      47.027  35.890  52.375  0.00  0.00     0.119 A 
ATOM     26  O   UNL d   1      46.350  35.561  52.706  0.00  0.00    -0.304 OA
ATOM     27  C   UNL d   1      45.754  35.572  52.134  0.00  0.00     0.123 A 
ATOM     28  C   UNL d   1      46.070  35.911  51.447  0.00  0.00     0.029 A 
ATOM     29  C   UNL d   1      46.852  36.105  51.599  0.00  0.00     0.028 A 
ENDBRANCH  24  25
ENDBRANCH  22  24
ENDBRANCH  14  21
ENDBRANCH   4   5
ENDBRANCH   3   4
TORSDOF 9
ENDMDL
MODEL 4
REMARK VINA RESULT:      -5.5      2.054      6.251
REMARK  9 active torsions:
REMARK  status: ('A' for Active; 'I' for Inactive)
REMARK    1  A    between atoms: C_19  and  N_1 
REMARK    2  A    between atoms: S_15  and  C_2 
REMARK    3  A    between atoms: C_7  and  C_10 
REMARK       I    between atoms: N_12  and  C_7 
REMARK    4  A    between atoms: C_20  and  N_12 
REMARK    5  A    between atoms: C_22  and  S_15 
REMARK    6  A    between atoms: C_24  and  C_19 
REMARK    7  A    between atoms: C_21  and  C_20 
REMARK    8  A    between atoms: C_27  and  C_24 
REMARK    9  A    between atoms: C_26  and  C_27 
ROOT
ATOM      1  N   UNL d   1      45.188  35.235  50.672  0.00  0.00    -0.195 NA
ATOM      2  C   UNL d   1      45.951  35.353  50.967  0.00  0.00     0.086 C 
ATOM      3  C   UNL d   1      46.711  35.469  51.260  0.00  0.00     0.170 C 
ENDROOT
BRANCH   3   4
ATOM      4  S   UNL d   1      46.822  35.863  51.971  0.00  0.00    -0.060 SA
BRANCH   4   5
ATOM      5  C   UNL d   1      47.534  35.748  52.412  0.00  0.00     0.178 A 
ATOM      6  N   UNL d   1      47.623  36.090  53.159  0.00  0.00    -0.253 N 
ATOM      7  C   UNL d   1      48.317  35.976  53.585  0.00  0.00     0.268 A 
ATOM      8  C   UNL d   1      48.929  35.514  53.256  0.00  0.00     0.074 A 
ATOM      9  O   UNL d   1      48.412  36.314  54.331  0.00  0.00    -0.267 OA
ATOM     10  C   UNL d   1      48.842  35.177  52.517  0.00  0.00     0.088 A 
ATOM     11  C   UNL d   1      49.627  35.400  53.685  0.00  0.00     0.006 A 
ATOM     12  C   UNL d   1      49.451  34.721  52.198  0.00  0.00     0.024 A 
ATOM     13  N   UNL d   1      48.146  35.291  52.092  0.00  0.00    -0.222 NA
ATOM     14  C   UNL d   1      50.145  34.607  52.623  0.00  0.00     0.059 A 
ATOM     15  C   UNL d   1      50.232  34.944  53.362  0.00  0.00     0.005 A 
BRANCH   6  16
ATOM     16  C   UNL d   1      47.001  36.551  53.478  0.00  0.00     0.085 C 
BRANCH  16  17
ATOM     17  C   UNL d   1      46.621  36.283  54.160  0.00  0.00     0.019 C 
BRANCH  17  18
ATOM     18  C   UNL d   1      45.959  36.706  54.442  0.00  0.00     0.002 C 
BRANCH  18  19
ATOM     19  C   UNL d   1      45.638  36.511  55.190  0.00  0.00     0.000 C 
ATOM     20  C   UNL d   1      44.845  36.309  55.242  0.00  0.00     0.000 C 
ENDBRANCH  18  19
ENDBRANCH  17  18
ENDBRANCH  16  17
ENDBRANCH   6  16
BRANCH  14  21
ATOM     21  C   UNL d   1      50.752  34.152  52.303  0.00  0.00     0.279 C 
ATOM     22  N   UNL d   1      51.239  33.702  52.791  0.00  0.00    -0.204 NA
ATOM     23  O   UNL d   1      50.876  34.144  51.487  0.00  0.00    -0.265 OA
BRANCH  22  24
ATOM     24  C   UNL d   1      51.849  33.245  52.469  0.00  0.00     0.127 C 
BRANCH  24  25
ATOM     25  C   UNL d   1      52.414  32.896  52.968  0.00  0.00     0.119 A 
ATOM     26  O   UNL d   1      52.888  33.292  53.511  0.00  0.00    -0.304 OA
ATOM     27  C   UNL d   1      53.368  32.734  53.888  0.00  0.00     0.123 A 
ATOM     28  C   UNL d   1      53.184  31.990  53.573  0.00  0.00     0.029 A 
ATOM     29  C   UNL d   1      52.597  32.094  53.008  0.00  0.00     0.028 A 
ENDBRANCH  24  25
ENDBRANCH  22  24
ENDBRANCH  14  21
ENDBRANCH   4   5
ENDBRANCH   3   4
TORSDOF 9
ENDMDL
