MODEL 1
REMARK VINA RESULT:      -7.6      0.000      0.000
REMARK  4 active torsions:
REMARK  status: ('A' for Active; 'I' for Inactive)
REMARK    1  A    between atoms: C_2  and  S_1 
REMARK    2  A    between atoms: N_5  and  S_1 
REMARK    3  A    between atoms: C_12  and  N_5 
REMARK    4  A    between atoms: C_13  and  C_12 
ROOT
ATOM      1  S   UNL d   1     -48.132  13.145  22.925  0.00  0.00     0.285 S 
ATOM      2  O   UNL d   1     -48.125  13.433  23.698  0.00  0.00    -0.198 OA
ATOM      3  O   UNL d   1     -48.138  12.858  22.152  0.00  0.00    -0.198 OA
ENDROOT
BRANCH   1   4
ATOM      4  C   UNL d   1     -47.530  12.615  23.118  0.00  0.00     0.105 A 
ATOM      5  C   UNL d   1     -47.704  11.870  23.409  0.00  0.00     0.012 A 
ATOM      6  C   UNL d   1     -47.103  11.340  23.601  0.00  0.00     0.001 A 
ATOM      7  C   UNL d   1     -48.502  11.654  23.508  0.00  0.00     0.001 C 
ATOM      8  C   UNL d   1     -46.321  11.550  23.505  0.00  0.00     0.000 A 
ATOM      9  C   UNL d   1     -46.134  12.298  23.212  0.00  0.00     0.001 A 
ATOM     10  C   UNL d   1     -45.720  11.019  23.697  0.00  0.00     0.000 C 
ATOM     11  C   UNL d   1     -46.735  12.828  23.020  0.00  0.00     0.012 A 
ATOM     12  C   UNL d   1     -46.553  13.581  22.726  0.00  0.00     0.001 C 
ENDBRANCH   1   4
BRANCH   1  13
ATOM     13  N   UNL d   1     -48.728  13.671  22.734  0.00  0.00    -0.157 NA
BRANCH  13  14
ATOM     14  C   UNL d   1     -49.144  14.054  23.322  0.00  0.00     0.112 C 
BRANCH  14  15
ATOM     15  C   UNL d   1     -49.757  14.559  23.127  0.00  0.00     0.023 A 
ATOM     16  C   UNL d   1     -49.705  15.363  23.286  0.00  0.00     0.022 A 
ATOM     17  C   UNL d   1     -50.319  15.872  23.090  0.00  0.00     0.099 A 
ATOM     18  N   UNL d   1     -50.997  15.571  22.729  0.00  0.00    -0.242 NA
ATOM     19  C   UNL d   1     -51.064  14.771  22.563  0.00  0.00     0.099 A 
ATOM     20  C   UNL d   1     -50.440  14.256  22.762  0.00  0.00     0.022 A 
ENDBRANCH  14  15
ENDBRANCH  13  14
ENDBRANCH   1  13
TORSDOF 4
ENDMDL
MODEL 2
REMARK VINA RESULT:      -7.3      1.332      4.312
REMARK  4 active torsions:
REMARK  status: ('A' for Active; 'I' for Inactive)
REMARK    1  A    between atoms: C_2  and  S_1 
REMARK    2  A    between atoms: N_5  and  S_1 
REMARK    3  A    between atoms: C_12  and  N_5 
REMARK    4  A    between atoms: C_13  and  C_12 
ROOT
ATOM      1  S   UNL d   1     -48.273  13.869  22.698  0.00  0.00     0.285 S 
ATOM      2  O   UNL d   1     -47.956  14.090  23.427  0.00  0.00    -0.198 OA
ATOM      3  O   UNL d   1     -48.591  13.648  21.970  0.00  0.00    -0.198 OA
ENDROOT
BRANCH   1   4
ATOM      4  C   UNL d   1     -48.969  14.274  22.879  0.00  0.00     0.105 A 
ATOM      5  C   UNL d   1     -49.048  15.071  22.706  0.00  0.00     0.012 A 
ATOM      6  C   UNL d   1     -49.743  15.475  22.886  0.00  0.00     0.001 A 
ATOM      7  C   UNL d   1     -48.413  15.468  22.343  0.00  0.00     0.001 C 
ATOM      8  C   UNL d   1     -50.367  15.087  23.241  0.00  0.00     0.000 A 
ATOM      9  C   UNL d   1     -50.297  14.285  23.420  0.00  0.00     0.001 A 
ATOM     10  C   UNL d   1     -51.062  15.492  23.422  0.00  0.00     0.000 C 
ATOM     11  C   UNL d   1     -49.602  13.880  23.240  0.00  0.00     0.012 A 
ATOM     12  C   UNL d   1     -49.528  13.074  23.417  0.00  0.00     0.001 C 
ENDBRANCH   1   4
BRANCH   1  13
ATOM     13  N   UNL d   1     -47.583  13.468  22.520  0.00  0.00    -0.157 NA
BRANCH  13  14
ATOM     14  C   UNL d   1     -46.918  13.565  22.983  0.00  0.00     0.112 C 
BRANCH  14  15
ATOM     15  C   UNL d   1     -46.232  13.159  22.801  0.00  0.00     0.023 A 
ATOM     16  C   UNL d   1     -46.082  12.422  23.127  0.00  0.00     0.022 A 
ATOM     17  C   UNL d   1     -45.392  12.012  22.946  0.00  0.00     0.099 A 
ATOM     18  N   UNL d   1     -44.844  12.348  22.429  0.00  0.00    -0.242 NA
ATOM     19  C   UNL d   1     -44.980  13.085  22.095  0.00  0.00     0.099 A 
ATOM     20  C   UNL d   1     -45.679  13.498  22.279  0.00  0.00     0.022 A 
ENDBRANCH  14  15
ENDBRANCH  13  14
ENDBRANCH   1  13
TORSDOF 4
ENDMDL
MODEL 3
REMARK VINA RESULT:      -7.3      1.337      4.158
REMARK  4 active torsions:
REMARK  status: ('A' for Active; 'I' for Inactive)
REMARK    1  A    between atoms: C_2  and  S_1 
REMARK    2  A    between atoms: N_5  and  S_1 
REMARK    3  A    between atoms: C_12  and  N_5 
REMARK    4  A    between atoms: C_13  and  C_12 
ROOT
ATOM      1  S   UNL d   1     -48.255  13.934  22.659  0.00  0.00     0.285 S 
ATOM      2  O   UNL d   1     -47.899  14.215  23.348  0.00  0.00    -0.198 OA
ATOM      3  O   UNL d   1     -48.611  13.652  21.971  0.00  0.00    -0.198 OA
ENDROOT
BRANCH   1   4
ATOM      4  C   UNL d   1     -48.955  14.320  22.863  0.00  0.00     0.105 A 
ATOM      5  C   UNL d   1     -49.561  13.919  23.241  0.00  0.00     0.012 A 
ATOM      6  C   UNL d   1     -50.260  14.305  23.445  0.00  0.00     0.001 A 
ATOM      7  C   UNL d   1     -49.460  13.112  23.418  0.00  0.00     0.001 C 
ATOM      8  C   UNL d   1     -50.361  15.095  23.273  0.00  0.00     0.000 A 
ATOM      9  C   UNL d   1     -49.757  15.509  22.893  0.00  0.00     0.001 A 
ATOM     10  C   UNL d   1     -51.061  15.482  23.477  0.00  0.00     0.000 C 
ATOM     11  C   UNL d   1     -49.058  15.123  22.689  0.00  0.00     0.012 A 
ATOM     12  C   UNL d   1     -48.448  15.534  22.306  0.00  0.00     0.001 C 
ENDBRANCH   1   4
BRANCH   1  13
ATOM     13  N   UNL d   1     -47.561  13.551  22.457  0.00  0.00    -0.157 NA
BRANCH  13  14
ATOM     14  C   UNL d   1     -46.921  13.565  22.962  0.00  0.00     0.112 C 
BRANCH  14  15
ATOM     15  C   UNL d   1     -46.237  13.161  22.765  0.00  0.00     0.023 A 
ATOM     16  C   UNL d   1     -45.691  13.489  22.248  0.00  0.00     0.022 A 
ATOM     17  C   UNL d   1     -45.003  13.085  22.049  0.00  0.00     0.099 A 
ATOM     18  N   UNL d   1     -44.860  12.341  22.374  0.00  0.00    -0.242 NA
ATOM     19  C   UNL d   1     -45.397  12.000  22.893  0.00  0.00     0.099 A 
ATOM     20  C   UNL d   1     -46.093  12.410  23.093  0.00  0.00     0.022 A 
ENDBRANCH  14  15
ENDBRANCH  13  14
ENDBRANCH   1  13
TORSDOF 4
ENDMDL
MODEL 4
REMARK VINA RESULT:      -6.5      1.439      2.277
REMARK  4 active torsions:
REMARK  status: ('A' for Active; 'I' for Inactive)
REMARK    1  A    between atoms: C_2  and  S_1 
REMARK    2  A    between atoms: N_5  and  S_1 
REMARK    3  A    between atoms: C_12  and  N_5 
REMARK    4  A    between atoms: C_13  and  C_12 
ROOT
ATOM      1  S   UNL d   1     -47.379  12.824  23.048  0.00  0.00     0.285 S 
ATOM      2  O   UNL d   1     -47.593  12.363  22.398  0.00  0.00    -0.198 OA
ATOM      3  O   UNL d   1     -47.165  13.285  23.698  0.00  0.00    -0.198 OA
ENDROOT
BRANCH   1   4
ATOM      4  C   UNL d   1     -46.604  12.860  22.767  0.00  0.00     0.105 A 
ATOM      5  C   UNL d   1     -46.352  13.493  22.312  0.00  0.00     0.012 A 
ATOM      6  C   UNL d   1     -45.578  13.529  22.031  0.00  0.00     0.001 A 
ATOM      7  C   UNL d   1     -46.892  14.102  22.136  0.00  0.00     0.001 C 
ATOM      8  C   UNL d   1     -45.048  12.933  22.202  0.00  0.00     0.000 A 
ATOM      9  C   UNL d   1     -45.292  12.292  22.660  0.00  0.00     0.001 A 
ATOM     10  C   UNL d   1     -44.274  12.970  21.921  0.00  0.00     0.000 C 
ATOM     11  C   UNL d   1     -46.066  12.255  22.941  0.00  0.00     0.012 A 
ATOM     12  C   UNL d   1     -46.316  11.613  23.401  0.00  0.00     0.001 C 
ENDBRANCH   1   4
BRANCH   1  13
ATOM     13  N   UNL d   1     -48.147  12.788  23.327  0.00  0.00    -0.157 NA
BRANCH  13  14
ATOM     14  C   UNL d   1     -48.756  12.566  22.831  0.00  0.00     0.112 C 
BRANCH  14  15
ATOM     15  C   UNL d   1     -49.520  12.519  23.118  0.00  0.00     0.023 A 
ATOM     16  C   UNL d   1     -49.985  13.192  23.184  0.00  0.00     0.022 A 
ATOM     17  C   UNL d   1     -50.753  13.148  23.472  0.00  0.00     0.099 A 
ATOM     18  N   UNL d   1     -51.061  12.416  23.697  0.00  0.00    -0.242 NA
ATOM     19  C   UNL d   1     -50.609  11.735  23.637  0.00  0.00     0.099 A 
ATOM     20  C   UNL d   1     -49.830  11.782  23.345  0.00  0.00     0.022 A 
ENDBRANCH  14  15
ENDBRANCH  13  14
ENDBRANCH   1  13
TORSDOF 4
ENDMDL
MODEL 5
REMARK VINA RESULT:      -6.0      8.929     10.316
REMARK  4 active torsions:
REMARK  status: ('A' for Active; 'I' for Inactive)
REMARK    1  A    between atoms: C_2  and  S_1 
REMARK    2  A    between atoms: N_5  and  S_1 
REMARK    3  A    between atoms: C_12  and  N_5 
REMARK    4  A    between atoms: C_13  and  C_12 
ROOT
ATOM      1  S   UNL d   1     -39.633  14.247  18.087  0.00  0.00     0.285 S 
ATOM      2  O   UNL d   1     -39.078  14.822  18.294  0.00  0.00    -0.198 OA
ATOM      3  O   UNL d   1     -40.187  13.673  17.879  0.00  0.00    -0.198 OA
ENDROOT
BRANCH   1   4
ATOM      4  C   UNL d   1     -39.226  14.109  17.382  0.00  0.00     0.105 A 
ATOM      5  C   UNL d   1     -38.691  13.493  17.320  0.00  0.00     0.012 A 
ATOM      6  C   UNL d   1     -38.285  13.355  16.616  0.00  0.00     0.001 A 
ATOM      7  C   UNL d   1     -38.562  13.004  17.982  0.00  0.00     0.001 C 
ATOM      8  C   UNL d   1     -38.410  13.832  15.967  0.00  0.00     0.000 A 
ATOM      9  C   UNL d   1     -38.947  14.456  16.019  0.00  0.00     0.001 A 
ATOM     10  C   UNL d   1     -38.003  13.694  15.263  0.00  0.00     0.000 C 
ATOM     11  C   UNL d   1     -39.353  14.594  16.722  0.00  0.00     0.012 A 
ATOM     12  C   UNL d   1     -39.894  15.220  16.779  0.00  0.00     0.001 C 
ENDBRANCH   1   4
BRANCH   1  13
ATOM     13  N   UNL d   1     -40.036  14.384  18.785  0.00  0.00    -0.157 NA
BRANCH  13  14
ATOM     14  C   UNL d   1     -39.830  15.012  19.263  0.00  0.00     0.112 C 
BRANCH  14  15
ATOM     15  C   UNL d   1     -40.246  15.154  19.952  0.00  0.00     0.023 A 
ATOM     16  C   UNL d   1     -40.781  15.776  19.998  0.00  0.00     0.022 A 
ATOM     17  C   UNL d   1     -41.201  15.921  20.690  0.00  0.00     0.099 A 
ATOM     18  N   UNL d   1     -41.083  15.435  21.346  0.00  0.00    -0.242 NA
ATOM     19  C   UNL d   1     -40.553  14.810  21.316  0.00  0.00     0.099 A 
ATOM     20  C   UNL d   1     -40.128  14.665  20.614  0.00  0.00     0.022 A 
ENDBRANCH  14  15
ENDBRANCH  13  14
ENDBRANCH   1  13
TORSDOF 4
ENDMDL
MODEL 6
REMARK VINA RESULT:      -5.6      8.831      9.805
REMARK  4 active torsions:
REMARK  status: ('A' for Active; 'I' for Inactive)
REMARK    1  A    between atoms: C_2  and  S_1 
REMARK    2  A    between atoms: N_5  and  S_1 
REMARK    3  A    between atoms: C_12  and  N_5 
REMARK    4  A    between atoms: C_13  and  C_12 
ROOT
ATOM      1  S   UNL d   1     -39.454  14.783  19.773  0.00  0.00     0.285 S 
ATOM      2  O   UNL d   1     -39.736  14.070  19.468  0.00  0.00    -0.198 OA
ATOM      3  O   UNL d   1     -39.172  15.496  20.079  0.00  0.00    -0.198 OA
ENDROOT
BRANCH   1   4
ATOM      4  C   UNL d   1     -39.292  14.411  20.492  0.00  0.00     0.105 A 
ATOM      5  C   UNL d   1     -38.579  14.026  20.614  0.00  0.00     0.012 A 
ATOM      6  C   UNL d   1     -38.417  13.655  21.331  0.00  0.00     0.001 A 
ATOM      7  C   UNL d   1     -38.017  14.016  20.000  0.00  0.00     0.001 C 
ATOM      8  C   UNL d   1     -38.966  13.664  21.934  0.00  0.00     0.000 A 
ATOM      9  C   UNL d   1     -39.687  14.048  21.822  0.00  0.00     0.001 A 
ATOM     10  C   UNL d   1     -38.804  13.292  22.653  0.00  0.00     0.000 C 
ATOM     11  C   UNL d   1     -39.849  14.420  21.104  0.00  0.00     0.012 A 
ATOM     12  C   UNL d   1     -40.572  14.808  20.986  0.00  0.00     0.001 C 
ENDBRANCH   1   4
BRANCH   1  13
ATOM     13  N   UNL d   1     -39.614  15.152  19.061  0.00  0.00    -0.157 NA
BRANCH  13  14
ATOM     14  C   UNL d   1     -40.035  14.762  18.481  0.00  0.00     0.112 C 
BRANCH  14  15
ATOM     15  C   UNL d   1     -40.221  15.146  17.784  0.00  0.00     0.023 A 
ATOM     16  C   UNL d   1     -39.632  15.368  17.257  0.00  0.00     0.022 A 
ATOM     17  C   UNL d   1     -39.816  15.754  16.556  0.00  0.00     0.099 A 
ATOM     18  N   UNL d   1     -40.605  15.922  16.379  0.00  0.00    -0.242 NA
ATOM     19  C   UNL d   1     -41.205  15.707  16.895  0.00  0.00     0.099 A 
ATOM     20  C   UNL d   1     -41.016  15.315  17.605  0.00  0.00     0.022 A 
ENDBRANCH  14  15
ENDBRANCH  13  14
ENDBRANCH   1  13
TORSDOF 4
ENDMDL
