MODEL 1
REMARK VINA RESULT:      19.3      0.000      0.000
REMARK  2 active torsions:
REMARK  status: ('A' for Active; 'I' for Inactive)
REMARK    1  A    between atoms: N_5  and  C_1 
REMARK       I    between atoms: C_7  and  N_5 
REMARK    2  A    between atoms: C_11  and  C_7 
ROOT
ATOM      1  C   UNL d   1      46.092 -17.698  43.706  0.00  0.00     0.124 A 
ATOM      2  C   UNL d   1      46.324 -18.253  43.187  0.00  0.00     0.093 A 
ATOM      3  S   UNL d   1      46.015 -18.036  44.453  0.00  0.00    -0.067 SA
ATOM      4  C   UNL d   1      46.405 -18.968  43.580  0.00  0.00     0.018 A 
ATOM      5  C   UNL d   1      46.207 -18.829  44.393  0.00  0.00     0.032 A 
ATOM      6  C   UNL d   1      46.469 -18.129  42.345  0.00  0.00     0.103 C 
ATOM      7  N   UNL d   1      46.610 -18.027  41.543  0.00  0.00    -0.191 NA
ATOM      8  C   UNL d   1      46.625 -19.716  43.334  0.00  0.00     0.001 A 
ATOM      9  C   UNL d   1      46.237 -19.443  44.926  0.00  0.00     0.006 A 
ATOM     10  C   UNL d   1      46.646 -20.330  43.909  0.00  0.00     0.000 A 
ATOM     11  C   UNL d   1      46.466 -20.203  44.648  0.00  0.00     0.001 A 
ENDROOT
BRANCH   1  12
ATOM     12  N   UNL d   1      45.944 -16.882  43.530  0.00  0.00    -0.201 NA
ATOM     13  C   UNL d   1      45.912 -16.323  44.138  0.00  0.00     0.280 C 
ATOM     14  O   UNL d   1      46.028 -16.559  44.954  0.00  0.00    -0.265 OA
BRANCH  13  15
ATOM     15  C   UNL d   1      45.770 -15.541  43.970  0.00  0.00     0.058 A 
ATOM     16  C   UNL d   1      46.350 -15.115  43.517  0.00  0.00     0.005 A 
ATOM     17  C   UNL d   1      46.201 -14.299  43.341  0.00  0.00     0.000 A 
ATOM     18  C   UNL d   1      45.480 -13.950  43.626  0.00  0.00     0.000 A 
ATOM     19  C   UNL d   1      44.930 -14.374  44.061  0.00  0.00     0.000 A 
ATOM     20  C   UNL d   1      45.072 -15.156  44.230  0.00  0.00     0.005 A 
ENDBRANCH  13  15
ENDBRANCH   1  12
TORSDOF 2
ENDMDL
