MODEL 1
REMARK VINA RESULT:      -2.6      0.000      0.000
REMARK  8 active torsions:
REMARK  status: ('A' for Active; 'I' for Inactive)
REMARK    1  A    between atoms: S_11  and  C_6 
REMARK    2  A    between atoms: O_23  and  C_10 
REMARK    3  A    between atoms: C_19  and  S_11 
REMARK    4  A    between atoms: C_12  and  C_19 
REMARK       I    between atoms: N_18  and  C_12 
REMARK    5  A    between atoms: O_25  and  C_13 
REMARK    6  A    between atoms: C_26  and  N_18 
REMARK    7  A    between atoms: C_20  and  C_27 
REMARK    8  A    between atoms: C_27  and  C_26 
ROOT
ATOM      1  C   UNL d   1      57.601   0.234  30.557  0.00  0.00     0.286 C 
ATOM      2  O   UNL d   1      56.887   0.487  30.231  0.00  0.00    -0.265 OA
ATOM      3  N   UNL d   1      57.743   0.318  31.369  0.00  0.00    -0.206 NA
ENDROOT
BRANCH   1   4
ATOM      4  C   UNL d   1      58.183  -0.105  30.074  0.00  0.00     0.101 C 
BRANCH   4   5
ATOM      5  S   UNL d   1      58.011  -0.771  29.624  0.00  0.00    -0.043 SA
BRANCH   5   6
ATOM      6  C   UNL d   1      58.618  -1.286  29.398  0.00  0.00     0.198 A 
ATOM      7  N   UNL d   1      59.342  -0.985  29.109  0.00  0.00    -0.200 NA
ATOM      8  C   UNL d   1      59.951  -1.505  28.883  0.00  0.00     0.189 A 
ATOM      9  C   UNL d   1      59.836  -2.325  28.945  0.00  0.00     0.081 A 
ATOM     10  N   UNL d   1      60.661  -1.205  28.599  0.00  0.00    -0.127 N 
ATOM     11  C   UNL d   1      59.117  -2.627  29.232  0.00  0.00     0.187 A 
ATOM     12  C   UNL d   1      60.330  -2.963  28.765  0.00  0.00     0.029 A 
ATOM     13  N   UNL d   1      58.512  -2.105  29.457  0.00  0.00    -0.197 NA
ATOM     14  O   UNL d   1      59.176  -3.452  29.226  0.00  0.00    -0.289 OA
ATOM     15  C   UNL d   1      59.924  -3.668  28.939  0.00  0.00     0.102 A 
ATOM     16  C   UNL d   1      60.206  -4.430  28.844  0.00  0.00     0.027 C 
ATOM     17  C   UNL d   1      61.103  -2.914  28.463  0.00  0.00     0.002 C 
ENDBRANCH   5   6
ENDBRANCH   4   5
ENDBRANCH   1   4
BRANCH   3  18
ATOM     18  C   UNL d   1      57.169   0.654  31.854  0.00  0.00     0.102 C 
BRANCH  18  19
ATOM     19  C   UNL d   1      57.230   0.584  32.671  0.00  0.00     0.021 C 
BRANCH  19  20
ATOM     20  C   UNL d   1      56.549   0.608  33.135  0.00  0.00     0.004 A 
ATOM     21  C   UNL d   1      56.615   0.632  33.954  0.00  0.00     0.026 A 
ATOM     22  C   UNL d   1      55.940   0.656  34.423  0.00  0.00     0.116 A 
ATOM     23  C   UNL d   1      55.194   0.657  34.074  0.00  0.00     0.116 A 
ATOM     24  C   UNL d   1      55.131   0.633  33.251  0.00  0.00     0.026 A 
ATOM     25  C   UNL d   1      55.806   0.609  32.782  0.00  0.00     0.002 A 
BRANCH  22  26
ATOM     26  O   UNL d   1      56.012   0.680  35.248  0.00  0.00    -0.326 OA
ATOM     27  C   UNL d   1      56.754   0.621  35.597  0.00  0.00     0.181 C 
ENDBRANCH  22  26
BRANCH  23  28
ATOM     28  O   UNL d   1      54.516   0.681  34.546  0.00  0.00    -0.326 OA
ATOM     29  C   UNL d   1      53.883   0.174  34.373  0.00  0.00     0.181 C 
ENDBRANCH  23  28
ENDBRANCH  19  20
ENDBRANCH  18  19
ENDBRANCH   3  18
TORSDOF 8
ENDMDL
MODEL 2
REMARK VINA RESULT:       0.4      3.153      7.326
REMARK  8 active torsions:
REMARK  status: ('A' for Active; 'I' for Inactive)
REMARK    1  A    between atoms: S_11  and  C_6 
REMARK    2  A    between atoms: O_23  and  C_10 
REMARK    3  A    between atoms: C_19  and  S_11 
REMARK    4  A    between atoms: C_12  and  C_19 
REMARK       I    between atoms: N_18  and  C_12 
REMARK    5  A    between atoms: O_25  and  C_13 
REMARK    6  A    between atoms: C_26  and  N_18 
REMARK    7  A    between atoms: C_20  and  C_27 
REMARK    8  A    between atoms: C_27  and  C_26 
ROOT
ATOM      1  C   UNL d   1      58.908  -4.400  28.540  0.00  0.00     0.286 C 
ATOM      2  O   UNL d   1      59.674  -4.706  28.553  0.00  0.00    -0.265 OA
ATOM      3  N   UNL d   1      58.256  -4.908  28.496  0.00  0.00    -0.206 NA
ENDROOT
BRANCH   1   4
ATOM      4  C   UNL d   1      58.786  -3.581  28.571  0.00  0.00     0.101 C 
BRANCH   4   5
ATOM      5  S   UNL d   1      59.204  -3.119  29.107  0.00  0.00    -0.043 SA
BRANCH   5   6
ATOM      6  C   UNL d   1      58.936  -2.359  29.298  0.00  0.00     0.198 A 
ATOM      7  N   UNL d   1      59.212  -1.696  28.872  0.00  0.00    -0.200 NA
ATOM      8  C   UNL d   1      58.942  -0.933  29.064  0.00  0.00     0.189 A 
ATOM      9  C   UNL d   1      58.396  -0.834  29.683  0.00  0.00     0.081 A 
ATOM     10  N   UNL d   1      59.215  -0.282  28.643  0.00  0.00    -0.127 N 
ATOM     11  C   UNL d   1      58.121  -1.492  30.108  0.00  0.00     0.187 A 
ATOM     12  C   UNL d   1      58.036  -0.157  29.994  0.00  0.00     0.029 A 
ATOM     13  N   UNL d   1      58.392  -2.252  29.913  0.00  0.00    -0.197 NA
ATOM     14  O   UNL d   1      57.591  -1.213  30.679  0.00  0.00    -0.289 OA
ATOM     15  C   UNL d   1      57.534  -0.388  30.615  0.00  0.00     0.102 A 
ATOM     16  C   UNL d   1      57.070   0.104  31.076  0.00  0.00     0.027 C 
ATOM     17  C   UNL d   1      58.154   0.623  29.733  0.00  0.00     0.002 C 
ENDBRANCH   5   6
ENDBRANCH   4   5
ENDBRANCH   1   4
BRANCH   3  18
ATOM     18  C   UNL d   1      58.371  -5.723  28.465  0.00  0.00     0.102 C 
BRANCH  18  19
ATOM     19  C   UNL d   1      57.779  -6.231  28.725  0.00  0.00     0.021 C 
BRANCH  19  20
ATOM     20  C   UNL d   1      57.892  -7.046  28.680  0.00  0.00     0.004 A 
ATOM     21  C   UNL d   1      57.242  -7.549  28.701  0.00  0.00     0.026 A 
ATOM     22  C   UNL d   1      57.347  -8.364  28.656  0.00  0.00     0.116 A 
ATOM     23  C   UNL d   1      58.105  -8.679  28.589  0.00  0.00     0.116 A 
ATOM     24  C   UNL d   1      58.755  -8.172  28.569  0.00  0.00     0.026 A 
ATOM     25  C   UNL d   1      58.650  -7.358  28.613  0.00  0.00     0.002 A 
BRANCH  22  26
ATOM     26  O   UNL d   1      56.689  -8.867  28.678  0.00  0.00    -0.326 OA
ATOM     27  C   UNL d   1      55.949  -8.583  28.456  0.00  0.00     0.181 C 
ENDBRANCH  22  26
BRANCH  23  28
ATOM     28  O   UNL d   1      58.209  -9.498  28.544  0.00  0.00    -0.326 OA
ATOM     29  C   UNL d   1      58.968  -9.816  28.646  0.00  0.00     0.181 C 
ENDBRANCH  23  28
ENDBRANCH  19  20
ENDBRANCH  18  19
ENDBRANCH   3  18
TORSDOF 8
ENDMDL
