MODEL 1
REMARK VINA RESULT:      -9.3      0.000      0.000
REMARK  3 active torsions:
REMARK  status: ('A' for Active; 'I' for Inactive)
REMARK    1  A    between atoms: N_5  and  S_1 
REMARK    2  A    between atoms: C_6  and  S_1 
REMARK    3  A    between atoms: C_2  and  C_13 
ROOT
ATOM      1  N   UNL d   1      50.143  34.495  52.520  0.00  0.00    -0.229 N 
ATOM      2  C   UNL d   1      48.408  35.098  52.059  0.00  0.00     0.039 A 
ATOM      3  C   UNL d   1      49.793  34.312  51.658  0.00  0.00     0.092 A 
ATOM      4  C   UNL d   1      49.624  34.980  53.152  0.00  0.00     0.092 A 
ATOM      5  C   UNL d   1      48.921  34.615  51.425  0.00  0.00     0.023 A 
ATOM      6  C   UNL d   1      48.759  35.280  52.921  0.00  0.00     0.023 A 
ENDROOT
BRANCH   1   7
ATOM      7  S   UNL d   1      50.931  34.222  52.732  0.00  0.00     0.271 S 
ATOM      8  O   UNL d   1      51.222  34.484  52.007  0.00  0.00    -0.200 OA
ATOM      9  O   UNL d   1      50.640  33.959  53.459  0.00  0.00    -0.200 OA
BRANCH   7  10
ATOM     10  C   UNL d   1      51.685  33.959  52.940  0.00  0.00     0.106 A 
ATOM     11  C   UNL d   1      51.828  33.143  52.997  0.00  0.00     0.040 A 
ATOM     12  C   UNL d   1      52.577  32.890  53.203  0.00  0.00     0.123 A 
ATOM     13  O   UNL d   1      52.739  32.079  53.265  0.00  0.00    -0.301 OA
ATOM     14  C   UNL d   1      53.189  33.434  53.354  0.00  0.00     0.123 A 
ATOM     15  C   UNL d   1      53.594  31.619  53.504  0.00  0.00     0.149 A 
ATOM     16  C   UNL d   1      54.280  32.356  53.671  0.00  0.00     0.149 A 
ATOM     17  O   UNL d   1      53.936  33.174  53.560  0.00  0.00    -0.301 OA
ATOM     18  C   UNL d   1      53.022  34.251  53.291  0.00  0.00     0.028 A 
ATOM     19  C   UNL d   1      52.278  34.510  53.086  0.00  0.00     0.015 A 
ENDBRANCH   7  10
ENDBRANCH   1   7
BRANCH   2  20
ATOM     20  C   UNL d   1      47.536  35.401  51.826  0.00  0.00     0.163 A 
ATOM     21  N   UNL d   1      47.144  35.973  52.196  0.00  0.00    -0.225 NA
ATOM     22  C   UNL d   1      46.449  36.057  51.839  0.00  0.00     0.101 A 
ATOM     23  C   UNL d   1      45.848  36.553  51.991  0.00  0.00     0.021 A 
ATOM     24  C   UNL d   1      46.410  35.539  51.250  0.00  0.00     0.101 A 
ATOM     25  C   UNL d   1      45.207  36.511  51.532  0.00  0.00     0.002 A 
ATOM     26  C   UNL d   1      45.163  35.992  50.939  0.00  0.00     0.002 A 
ATOM     27  C   UNL d   1      45.762  35.514  50.805  0.00  0.00     0.021 A 
ATOM     28  N   UNL d   1      47.082  35.131  51.240  0.00  0.00    -0.225 NA
ENDBRANCH   2  20
TORSDOF 3
ENDMDL
MODEL 2
REMARK VINA RESULT:      -8.8      1.888      6.399
REMARK  3 active torsions:
REMARK  status: ('A' for Active; 'I' for Inactive)
REMARK    1  A    between atoms: N_5  and  S_1 
REMARK    2  A    between atoms: C_6  and  S_1 
REMARK    3  A    between atoms: C_2  and  C_13 
ROOT
ATOM      1  N   UNL d   1      49.553  34.770  52.490  0.00  0.00    -0.229 N 
ATOM      2  C   UNL d   1      51.217  33.950  52.868  0.00  0.00     0.039 A 
ATOM      3  C   UNL d   1      50.087  34.437  51.781  0.00  0.00     0.092 A 
ATOM      4  C   UNL d   1      49.852  34.692  53.389  0.00  0.00     0.092 A 
ATOM      5  C   UNL d   1      50.924  34.025  51.969  0.00  0.00     0.023 A 
ATOM      6  C   UNL d   1      50.682  34.283  53.576  0.00  0.00     0.023 A 
ENDROOT
BRANCH   1   7
ATOM      7  S   UNL d   1      48.796  35.143  52.321  0.00  0.00     0.271 S 
ATOM      8  O   UNL d   1      48.823  34.859  51.547  0.00  0.00    -0.200 OA
ATOM      9  O   UNL d   1      48.768  35.427  53.095  0.00  0.00    -0.200 OA
BRANCH   7  10
ATOM     10  C   UNL d   1      48.070  35.502  52.164  0.00  0.00     0.106 A 
ATOM     11  C   UNL d   1      47.545  35.138  51.633  0.00  0.00     0.040 A 
ATOM     12  C   UNL d   1      46.827  35.501  51.483  0.00  0.00     0.123 A 
ATOM     13  O   UNL d   1      46.290  35.153  50.956  0.00  0.00    -0.301 OA
ATOM     14  C   UNL d   1      46.622  36.219  51.850  0.00  0.00     0.123 A 
ATOM     15  C   UNL d   1      45.385  35.469  50.672  0.00  0.00     0.149 A 
ATOM     16  C   UNL d   1      45.219  36.346  51.167  0.00  0.00     0.149 A 
ATOM     17  O   UNL d   1      45.903  36.575  51.695  0.00  0.00    -0.301 OA
ATOM     18  C   UNL d   1      47.167  36.566  52.381  0.00  0.00     0.028 A 
ATOM     19  C   UNL d   1      47.883  36.212  52.536  0.00  0.00     0.015 A 
ENDBRANCH   7  10
ENDBRANCH   1   7
BRANCH   2  20
ATOM     20  C   UNL d   1      52.055  33.537  53.056  0.00  0.00     0.163 A 
ATOM     21  N   UNL d   1      52.199  32.767  53.002  0.00  0.00    -0.225 NA
ATOM     22  C   UNL d   1      52.950  32.649  53.202  0.00  0.00     0.101 A 
ATOM     23  C   UNL d   1      53.374  31.979  53.241  0.00  0.00     0.021 A 
ATOM     24  C   UNL d   1      53.270  33.343  53.380  0.00  0.00     0.101 A 
ATOM     25  C   UNL d   1      54.130  32.030  53.463  0.00  0.00     0.002 A 
ATOM     26  C   UNL d   1      54.456  32.726  53.642  0.00  0.00     0.002 A 
ATOM     27  C   UNL d   1      54.025  33.372  53.599  0.00  0.00     0.021 A 
ATOM     28  N   UNL d   1      52.718  33.895  53.290  0.00  0.00    -0.225 NA
ENDBRANCH   2  20
TORSDOF 3
ENDMDL
MODEL 3
REMARK VINA RESULT:      -6.6     10.649     11.444
REMARK  3 active torsions:
REMARK  status: ('A' for Active; 'I' for Inactive)
REMARK    1  A    between atoms: N_5  and  S_1 
REMARK    2  A    between atoms: C_6  and  S_1 
REMARK    3  A    between atoms: C_2  and  C_13 
ROOT
ATOM      1  N   UNL d   1      44.811  27.397  57.713  0.00  0.00    -0.229 N 
ATOM      2  C   UNL d   1      44.761  25.869  56.596  0.00  0.00     0.039 A 
ATOM      3  C   UNL d   1      44.962  27.488  56.782  0.00  0.00     0.092 A 
ATOM      4  C   UNL d   1      44.634  26.540  58.086  0.00  0.00     0.092 A 
ATOM      5  C   UNL d   1      44.938  26.721  56.219  0.00  0.00     0.023 A 
ATOM      6  C   UNL d   1      44.609  25.779  57.527  0.00  0.00     0.023 A 
ENDROOT
BRANCH   1   7
ATOM      7  S   UNL d   1      44.833  28.089  58.223  0.00  0.00     0.271 S 
ATOM      8  O   UNL d   1      44.317  28.485  57.717  0.00  0.00    -0.200 OA
ATOM      9  O   UNL d   1      45.349  27.693  58.731  0.00  0.00    -0.200 OA
BRANCH   7  10
ATOM     10  C   UNL d   1      44.857  28.751  58.716  0.00  0.00     0.106 A 
ATOM     11  C   UNL d   1      44.585  28.684  59.498  0.00  0.00     0.040 A 
ATOM     12  C   UNL d   1      44.612  29.344  59.979  0.00  0.00     0.123 A 
ATOM     13  O   UNL d   1      44.345  29.297  60.763  0.00  0.00    -0.301 OA
ATOM     14  C   UNL d   1      44.905  30.071  59.698  0.00  0.00     0.123 A 
ATOM     15  C   UNL d   1      44.314  30.007  61.466  0.00  0.00     0.149 A 
ATOM     16  C   UNL d   1      44.689  30.854  61.037  0.00  0.00     0.149 A 
ATOM     17  O   UNL d   1      44.930  30.726  60.185  0.00  0.00    -0.301 OA
ATOM     18  C   UNL d   1      45.174  30.114  58.907  0.00  0.00     0.028 A 
ATOM     19  C   UNL d   1      45.150  29.462  58.422  0.00  0.00     0.015 A 
ENDBRANCH   7  10
ENDBRANCH   1   7
BRANCH   2  20
ATOM     20  C   UNL d   1      44.736  25.102  56.032  0.00  0.00     0.163 A 
ATOM     21  N   UNL d   1      45.024  24.395  56.221  0.00  0.00    -0.225 NA
ATOM     22  C   UNL d   1      44.896  23.914  55.613  0.00  0.00     0.101 A 
ATOM     23  C   UNL d   1      45.076  23.147  55.516  0.00  0.00     0.021 A 
ATOM     24  C   UNL d   1      44.531  24.320  55.049  0.00  0.00     0.101 A 
ATOM     25  C   UNL d   1      44.877  22.801  54.834  0.00  0.00     0.002 A 
ATOM     26  C   UNL d   1      44.509  23.206  54.265  0.00  0.00     0.002 A 
ATOM     27  C   UNL d   1      44.341  23.957  54.378  0.00  0.00     0.021 A 
ATOM     28  N   UNL d   1      44.430  25.056  55.307  0.00  0.00    -0.225 NA
ENDBRANCH   2  20
TORSDOF 3
ENDMDL
MODEL 4
REMARK VINA RESULT:      -6.5     10.704     11.260
REMARK  3 active torsions:
REMARK  status: ('A' for Active; 'I' for Inactive)
REMARK    1  A    between atoms: N_5  and  S_1 
REMARK    2  A    between atoms: C_6  and  S_1 
REMARK    3  A    between atoms: C_2  and  C_13 
ROOT
ATOM      1  N   UNL d   1      44.773  26.279  56.799  0.00  0.00    -0.229 N 
ATOM      2  C   UNL d   1      44.802  27.846  57.862  0.00  0.00     0.039 A 
ATOM      3  C   UNL d   1      44.314  27.055  56.508  0.00  0.00     0.092 A 
ATOM      4  C   UNL d   1      45.247  26.286  57.624  0.00  0.00     0.092 A 
ATOM      5  C   UNL d   1      44.328  27.844  57.042  0.00  0.00     0.023 A 
ATOM      6  C   UNL d   1      45.261  27.068  58.153  0.00  0.00     0.023 A 
ENDROOT
BRANCH   1   7
ATOM      7  S   UNL d   1      44.761  25.565  56.319  0.00  0.00     0.271 S 
ATOM      8  O   UNL d   1      44.388  25.155  56.928  0.00  0.00    -0.200 OA
ATOM      9  O   UNL d   1      45.136  25.976  55.708  0.00  0.00    -0.200 OA
BRANCH   7  10
ATOM     10  C   UNL d   1      44.753  24.884  55.854  0.00  0.00     0.106 A 
ATOM     11  C   UNL d   1      45.105  24.190  56.145  0.00  0.00     0.040 A 
ATOM     12  C   UNL d   1      45.092  23.519  55.679  0.00  0.00     0.123 A 
ATOM     13  O   UNL d   1      45.439  22.817  55.953  0.00  0.00    -0.301 OA
ATOM     14  C   UNL d   1      44.735  23.524  54.927  0.00  0.00     0.123 A 
ATOM     15  C   UNL d   1      45.503  21.926  55.506  0.00  0.00     0.149 A 
ATOM     16  C   UNL d   1      45.044  22.024  54.599  0.00  0.00     0.149 A 
ATOM     17  O   UNL d   1      44.726  22.849  54.466  0.00  0.00    -0.301 OA
ATOM     18  C   UNL d   1      44.386  24.234  54.654  0.00  0.00     0.028 A 
ATOM     19  C   UNL d   1      44.395  24.905  55.113  0.00  0.00     0.015 A 
ENDBRANCH   7  10
ENDBRANCH   1   7
BRANCH   2  20
ATOM     20  C   UNL d   1      44.816  28.634  58.396  0.00  0.00     0.163 A 
ATOM     21  N   UNL d   1      44.583  28.674  59.146  0.00  0.00    -0.225 NA
ATOM     22  C   UNL d   1      44.680  29.416  59.387  0.00  0.00     0.101 A 
ATOM     23  C   UNL d   1      44.533  29.753  60.090  0.00  0.00     0.021 A 
ATOM     24  C   UNL d   1      44.972  29.834  58.790  0.00  0.00     0.101 A 
ATOM     25  C   UNL d   1      44.687  30.523  60.174  0.00  0.00     0.002 A 
ATOM     26  C   UNL d   1      44.980  30.946  59.576  0.00  0.00     0.002 A 
ATOM     27  C   UNL d   1      45.118  30.600  58.894  0.00  0.00     0.021 A 
ATOM     28  N   UNL d   1      45.056  29.352  58.175  0.00  0.00    -0.225 NA
ENDBRANCH   2  20
TORSDOF 3
ENDMDL
MODEL 5
REMARK VINA RESULT:      -6.4     10.765     11.832
REMARK  3 active torsions:
REMARK  status: ('A' for Active; 'I' for Inactive)
REMARK    1  A    between atoms: N_5  and  S_1 
REMARK    2  A    between atoms: C_6  and  S_1 
REMARK    3  A    between atoms: C_2  and  C_13 
ROOT
ATOM      1  N   UNL d   1      44.780  27.406  58.080  0.00  0.00    -0.229 N 
ATOM      2  C   UNL d   1      44.677  25.518  58.193  0.00  0.00     0.039 A 
ATOM      3  C   UNL d   1      44.618  26.894  57.298  0.00  0.00     0.092 A 
ATOM      4  C   UNL d   1      44.890  26.972  58.919  0.00  0.00     0.092 A 
ATOM      5  C   UNL d   1      44.566  25.945  57.353  0.00  0.00     0.023 A 
ATOM      6  C   UNL d   1      44.838  26.030  58.974  0.00  0.00     0.023 A 
ENDROOT
BRANCH   1   7
ATOM      7  S   UNL d   1      44.827  28.263  58.032  0.00  0.00     0.271 S 
ATOM      8  O   UNL d   1      45.340  28.204  57.389  0.00  0.00    -0.200 OA
ATOM      9  O   UNL d   1      44.314  28.324  58.675  0.00  0.00    -0.200 OA
BRANCH   7  10
ATOM     10  C   UNL d   1      44.870  29.086  57.989  0.00  0.00     0.106 A 
ATOM     11  C   UNL d   1      44.574  29.473  57.316  0.00  0.00     0.040 A 
ATOM     12  C   UNL d   1      44.620  30.289  57.282  0.00  0.00     0.123 A 
ATOM     13  O   UNL d   1      44.330  30.692  56.618  0.00  0.00    -0.301 OA
ATOM     14  C   UNL d   1      44.954  30.728  57.905  0.00  0.00     0.123 A 
ATOM     15  C   UNL d   1      44.314  31.674  56.430  0.00  0.00     0.149 A 
ATOM     16  C   UNL d   1      44.740  32.129  57.239  0.00  0.00     0.149 A 
ATOM     17  O   UNL d   1      44.997  31.543  57.863  0.00  0.00    -0.301 OA
ATOM     18  C   UNL d   1      45.246  30.317  58.573  0.00  0.00     0.028 A 
ATOM     19  C   UNL d   1      45.204  29.505  58.614  0.00  0.00     0.015 A 
ENDBRANCH   7  10
ENDBRANCH   1   7
BRANCH   2  20
ATOM     20  C   UNL d   1      44.625  24.569  58.248  0.00  0.00     0.163 A 
ATOM     21  N   UNL d   1      44.695  24.078  57.638  0.00  0.00    -0.225 NA
ATOM     22  C   UNL d   1      44.619  23.345  57.910  0.00  0.00     0.101 A 
ATOM     23  C   UNL d   1      44.645  22.649  57.530  0.00  0.00     0.021 A 
ATOM     24  C   UNL d   1      44.503  23.380  58.686  0.00  0.00     0.101 A 
ATOM     25  C   UNL d   1      44.550  21.989  57.955  0.00  0.00     0.002 A 
ATOM     26  C   UNL d   1      44.433  22.021  58.735  0.00  0.00     0.002 A 
ATOM     27  C   UNL d   1      44.411  22.712  59.090  0.00  0.00     0.021 A 
ATOM     28  N   UNL d   1      44.506  24.137  58.897  0.00  0.00    -0.225 NA
ENDBRANCH   2  20
TORSDOF 3
ENDMDL
MODEL 6
REMARK VINA RESULT:      -6.3      1.023      1.689
REMARK  3 active torsions:
REMARK  status: ('A' for Active; 'I' for Inactive)
REMARK    1  A    between atoms: N_5  and  S_1 
REMARK    2  A    between atoms: C_6  and  S_1 
REMARK    3  A    between atoms: C_2  and  C_13 
ROOT
ATOM      1  N   UNL d   1      50.963  33.658  52.882  0.00  0.00    -0.229 N 
ATOM      2  C   UNL d   1      49.399  34.651  52.488  0.00  0.00     0.039 A 
ATOM      3  C   UNL d   1      50.568  34.202  53.551  0.00  0.00     0.092 A 
ATOM      4  C   UNL d   1      50.575  33.611  52.015  0.00  0.00     0.092 A 
ATOM      5  C   UNL d   1      49.782  34.702  53.354  0.00  0.00     0.023 A 
ATOM      6  C   UNL d   1      49.795  34.107  51.820  0.00  0.00     0.023 A 
ENDROOT
BRANCH   1   7
ATOM      7  S   UNL d   1      51.673  33.206  53.059  0.00  0.00     0.271 S 
ATOM      8  O   UNL d   1      51.519  33.269  53.866  0.00  0.00    -0.200 OA
ATOM      9  O   UNL d   1      51.828  33.142  52.250  0.00  0.00    -0.200 OA
BRANCH   7  10
ATOM     10  C   UNL d   1      52.356  32.772  53.223  0.00  0.00     0.106 A 
ATOM     11  C   UNL d   1      52.335  31.944  53.156  0.00  0.00     0.040 A 
ATOM     12  C   UNL d   1      53.015  31.521  53.320  0.00  0.00     0.123 A 
ATOM     13  O   UNL d   1      53.014  30.695  53.258  0.00  0.00    -0.301 OA
ATOM     14  C   UNL d   1      53.716  31.906  53.551  0.00  0.00     0.123 A 
ATOM     15  C   UNL d   1      53.756  30.045  53.424  0.00  0.00     0.149 A 
ATOM     16  C   UNL d   1      54.567  30.600  53.699  0.00  0.00     0.149 A 
ATOM     17  O   UNL d   1      54.392  31.476  53.713  0.00  0.00    -0.301 OA
ATOM     18  C   UNL d   1      53.713  32.740  53.612  0.00  0.00     0.028 A 
ATOM     19  C   UNL d   1      53.041  33.168  53.450  0.00  0.00     0.015 A 
ENDBRANCH   7  10
ENDBRANCH   1   7
BRANCH   2  20
ATOM     20  C   UNL d   1      48.613  35.151  52.291  0.00  0.00     0.163 A 
ATOM     21  N   UNL d   1      48.141  35.023  51.676  0.00  0.00    -0.225 NA
ATOM     22  C   UNL d   1      47.557  35.549  51.709  0.00  0.00     0.101 A 
ATOM     23  C   UNL d   1      46.937  35.661  51.227  0.00  0.00     0.021 A 
ATOM     24  C   UNL d   1      47.667  36.000  52.341  0.00  0.00     0.101 A 
ATOM     25  C   UNL d   1      46.431  36.242  51.401  0.00  0.00     0.002 A 
ATOM     26  C   UNL d   1      46.538  36.698  52.036  0.00  0.00     0.002 A 
ATOM     27  C   UNL d   1      47.151  36.573  52.497  0.00  0.00     0.021 A 
ATOM     28  N   UNL d   1      48.320  35.756  52.704  0.00  0.00    -0.225 NA
ENDBRANCH   2  20
TORSDOF 3
ENDMDL
