MODEL 1
REMARK VINA RESULT:      15.8      0.000      0.000
REMARK  7 active torsions:
REMARK  status: ('A' for Active; 'I' for Inactive)
REMARK    1  A    between atoms: N_2  and  C_1 
REMARK       I    between atoms: C_6  and  N_2 
REMARK    2  A    between atoms: S_3  and  C_12 
REMARK    3  A    between atoms: C_28  and  N_4 
REMARK    4  A    between atoms: C_8  and  C_6 
REMARK    5  A    between atoms: C_15  and  C_11 
REMARK    6  A    between atoms: C_32  and  C_28 
REMARK    7  A    between atoms: O_31  and  C_32 
ROOT
ATOM      1  N   UNL d   1     -42.353-122.054 -51.369  0.00  0.00    -0.184 NA
ATOM      2  C   UNL d   1     -41.719-122.261 -51.852  0.00  0.00     0.281 C 
ATOM      3  O   UNL d   1     -41.132-122.763 -51.565  0.00  0.00    -0.265 OA
ENDROOT
BRANCH   1   4
ATOM      4  C   UNL d   1     -42.393-122.353 -50.601  0.00  0.00     0.182 A 
ATOM      5  N   UNL d   1     -43.081-122.550 -50.202  0.00  0.00    -0.283 N 
ATOM      6  C   UNL d   1     -42.878-122.827 -49.451  0.00  0.00     0.072 A 
ATOM      7  C   UNL d   1     -43.332-123.099 -48.819  0.00  0.00     0.019 A 
ATOM      8  C   UNL d   1     -42.056-122.799 -49.388  0.00  0.00     0.049 A 
ATOM      9  C   UNL d   1     -42.962-123.343 -48.125  0.00  0.00     0.015 A 
ATOM     10  C   UNL d   1     -42.140-123.315 -48.062  0.00  0.00     0.107 A 
ATOM     11  C   UNL d   1     -41.688-123.043 -48.693  0.00  0.00     0.021 A 
ATOM     12  S   UNL d   1     -41.757-122.505 -50.101  0.00  0.00    -0.048 SA
BRANCH   5  13
ATOM     13  C   UNL d   1     -43.852-122.486 -50.494  0.00  0.00     0.108 C 
BRANCH  13  14
ATOM     14  C   UNL d   1     -44.319-121.836 -50.301  0.00  0.00     0.135 C 
BRANCH  14  15
ATOM     15  O   UNL d   1     -44.969-121.642 -50.763  0.00  0.00    -0.325 OA
ATOM     16  C   UNL d   1     -45.723-121.582 -50.427  0.00  0.00     0.182 C 
ENDBRANCH  14  15
ENDBRANCH  13  14
ENDBRANCH   5  13
BRANCH  10  17
ATOM     17  S   UNL d   1     -41.768-123.563 -47.356  0.00  0.00     0.302 S 
ATOM     18  O   UNL d   1     -41.125-123.791 -47.814  0.00  0.00    -0.197 OA
ATOM     19  O   UNL d   1     -42.419-123.333 -46.897  0.00  0.00    -0.197 OA
ATOM     20  N   UNL d   1     -41.379-123.816 -46.676  0.00  0.00    -0.043 N 
ENDBRANCH  10  17
ENDBRANCH   1   4
BRANCH   2  21
ATOM     21  C   UNL d   1     -41.672-121.966 -52.621  0.00  0.00     0.061 A 
ATOM     22  C   UNL d   1     -41.808-122.468 -53.277  0.00  0.00     0.025 A 
ATOM     23  C   UNL d   1     -41.760-122.173 -54.047  0.00  0.00     0.087 A 
ATOM     24  N   UNL d   1     -41.576-121.369 -54.169  0.00  0.00    -0.245 NA
ATOM     25  C   UNL d   1     -41.442-120.874 -53.521  0.00  0.00     0.082 A 
ATOM     26  C   UNL d   1     -41.489-121.169 -52.752  0.00  0.00     0.022 A 
ATOM     27  C   UNL d   1     -41.259-120.074 -53.645  0.00  0.00     0.019 A 
ATOM     28  C   UNL d   1     -41.356-120.674 -52.098  0.00  0.00     0.002 A 
ATOM     29  C   UNL d   1     -41.171-119.866 -52.233  0.00  0.00     0.000 A 
ATOM     30  C   UNL d   1     -41.123-119.571 -53.002  0.00  0.00     0.002 A 
BRANCH  23  31
ATOM     31  C   UNL d   1     -41.894-122.666 -54.691  0.00  0.00     0.047 A 
ATOM     32  S   UNL d   1     -42.162-122.353 -55.405  0.00  0.00    -0.085 SA
ATOM     33  C   UNL d   1     -42.247-122.965 -55.951  0.00  0.00     0.035 A 
ATOM     34  C   UNL d   1     -42.028-123.660 -55.561  0.00  0.00     0.007 A 
ATOM     35  C   UNL d   1     -41.810-123.482 -54.788  0.00  0.00     0.009 A 
ENDBRANCH  23  31
ENDBRANCH   2  21
TORSDOF 7
ENDMDL
MODEL 2
REMARK VINA RESULT:      16.5      1.618      5.714
REMARK  7 active torsions:
REMARK  status: ('A' for Active; 'I' for Inactive)
REMARK    1  A    between atoms: N_2  and  C_1 
REMARK       I    between atoms: C_6  and  N_2 
REMARK    2  A    between atoms: S_3  and  C_12 
REMARK    3  A    between atoms: C_28  and  N_4 
REMARK    4  A    between atoms: C_8  and  C_6 
REMARK    5  A    between atoms: C_15  and  C_11 
REMARK    6  A    between atoms: C_32  and  C_28 
REMARK    7  A    between atoms: O_31  and  C_32 
ROOT
ATOM      1  N   UNL d   1     -42.557-122.576 -51.066  0.00  0.00    -0.184 NA
ATOM      2  C   UNL d   1     -42.339-123.221 -50.603  0.00  0.00     0.281 C 
ATOM      3  O   UNL d   1     -41.833-123.793 -50.911  0.00  0.00    -0.265 OA
ENDROOT
BRANCH   1   4
ATOM      4  C   UNL d   1     -42.265-122.509 -51.835  0.00  0.00     0.182 A 
ATOM      5  N   UNL d   1     -41.806-121.892 -52.119  0.00  0.00    -0.283 N 
ATOM      6  C   UNL d   1     -41.633-122.039 -52.913  0.00  0.00     0.072 A 
ATOM      7  C   UNL d   1     -41.199-121.618 -53.473  0.00  0.00     0.019 A 
ATOM      8  C   UNL d   1     -41.989-122.754 -53.118  0.00  0.00     0.049 A 
ATOM      9  C   UNL d   1     -41.123-121.913 -54.237  0.00  0.00     0.015 A 
ATOM     10  C   UNL d   1     -41.479-122.628 -54.443  0.00  0.00     0.107 A 
ATOM     11  C   UNL d   1     -41.911-123.048 -53.883  0.00  0.00     0.021 A 
ATOM     12  S   UNL d   1     -42.380-123.045 -52.450  0.00  0.00    -0.048 SA
BRANCH   5  13
ATOM     13  C   UNL d   1     -41.556-121.231 -51.690  0.00  0.00     0.108 C 
BRANCH  13  14
ATOM     14  C   UNL d   1     -42.081-120.827 -51.203  0.00  0.00     0.135 C 
BRANCH  14  15
ATOM     15  O   UNL d   1     -41.867-120.108 -50.869  0.00  0.00    -0.325 OA
ATOM     16  C   UNL d   1     -41.131-119.767 -51.038  0.00  0.00     0.182 C 
ENDBRANCH  14  15
ENDBRANCH  13  14
ENDBRANCH   5  13
BRANCH  10  17
ATOM     17  S   UNL d   1     -41.399-122.924 -55.220  0.00  0.00     0.302 S 
ATOM     18  O   UNL d   1     -41.324-123.674 -54.892  0.00  0.00    -0.197 OA
ATOM     19  O   UNL d   1     -41.474-122.166 -55.548  0.00  0.00    -0.197 OA
ATOM     20  N   UNL d   1     -41.317-123.242 -55.976  0.00  0.00    -0.043 N 
ENDBRANCH  10  17
ENDBRANCH   1   4
BRANCH   2  21
ATOM     21  C   UNL d   1     -42.627-123.294 -49.834  0.00  0.00     0.061 A 
ATOM     22  C   UNL d   1     -42.117-123.193 -49.178  0.00  0.00     0.025 A 
ATOM     23  C   UNL d   1     -42.405-123.267 -48.408  0.00  0.00     0.087 A 
ATOM     24  N   UNL d   1     -43.211-123.442 -48.284  0.00  0.00    -0.245 NA
ATOM     25  C   UNL d   1     -43.714-123.542 -48.932  0.00  0.00     0.082 A 
ATOM     26  C   UNL d   1     -43.427-123.468 -49.702  0.00  0.00     0.022 A 
ATOM     27  C   UNL d   1     -44.516-123.716 -48.807  0.00  0.00     0.019 A 
ATOM     28  C   UNL d   1     -43.929-123.567 -50.355  0.00  0.00     0.002 A 
ATOM     29  C   UNL d   1     -44.740-123.744 -50.219  0.00  0.00     0.000 A 
ATOM     30  C   UNL d   1     -45.027-123.817 -49.450  0.00  0.00     0.002 A 
BRANCH  23  31
ATOM     31  C   UNL d   1     -41.903-123.168 -47.764  0.00  0.00     0.047 A 
ATOM     32  S   UNL d   1     -41.608-122.420 -47.579  0.00  0.00    -0.085 SA
ATOM     33  C   UNL d   1     -41.124-122.480 -46.914  0.00  0.00     0.035 A 
ATOM     34  C   UNL d   1     -41.126-123.277 -46.693  0.00  0.00     0.007 A 
ATOM     35  C   UNL d   1     -41.602-123.703 -47.212  0.00  0.00     0.009 A 
ENDBRANCH  23  31
ENDBRANCH   2  21
TORSDOF 7
ENDMDL
