MODEL 1
REMARK VINA RESULT:       5.3      0.000      0.000
REMARK  3 active torsions:
REMARK  status: ('A' for Active; 'I' for Inactive)
REMARK    1  A    between atoms: C_2  and  C_1 
REMARK    2  A    between atoms: C_3  and  C_1 
REMARK    3  A    between atoms: C_5  and  C_2 
ROOT
ATOM      1  C   UNL d   1      24.768  12.327  -2.746  0.00  0.00     0.000 C 
ENDROOT
BRANCH   1   2
ATOM      2  C   UNL d   1      24.591  12.958  -2.249  0.00  0.00     0.000 C 
BRANCH   2   3
ATOM      3  C   UNL d   1      24.262  12.809  -1.505  0.00  0.00     0.000 A 
ATOM      4  C   UNL d   1      24.260  12.038  -1.207  0.00  0.00     0.000 A 
ATOM      5  C   UNL d   1      23.935  11.883  -0.466  0.00  0.00     0.000 A 
ATOM      6  C   UNL d   1      23.609  12.500  -0.018  0.00  0.00     0.000 A 
ATOM      7  C   UNL d   1      23.610  13.269  -0.313  0.00  0.00     0.000 A 
ATOM      8  C   UNL d   1      23.937  13.427  -1.056  0.00  0.00     0.000 A 
ENDBRANCH   2   3
ENDBRANCH   1   2
BRANCH   1   9
ATOM      9  C   UNL d   1      24.768  12.434  -3.562  0.00  0.00     0.000 A 
ATOM     10  C   UNL d   1      24.768  13.198  -3.875  0.00  0.00     0.002 A 
ATOM     11  C   UNL d   1      24.768  13.306  -4.691  0.00  0.00     0.021 A 
ATOM     12  C   UNL d   1      24.767  12.654  -5.196  0.00  0.00     0.103 A 
ATOM     13  C   UNL d   1      24.767  11.891  -4.880  0.00  0.00     0.021 A 
ATOM     14  N   UNL d   1      24.767  12.769  -6.016  0.00  0.00    -0.148 N 
ATOM     15  C   UNL d   1      24.768  11.780  -4.063  0.00  0.00     0.002 A 
ENDBRANCH   1   9
TORSDOF 3
ENDMDL
MODEL 2
REMARK VINA RESULT:       7.1      1.702      3.954
REMARK  3 active torsions:
REMARK  status: ('A' for Active; 'I' for Inactive)
REMARK    1  A    between atoms: C_2  and  C_1 
REMARK    2  A    between atoms: C_3  and  C_1 
REMARK    3  A    between atoms: C_5  and  C_2 
ROOT
ATOM      1  C   UNL d   1      24.519  12.878  -3.168  0.00  0.00     0.000 C 
ENDROOT
BRANCH   1   2
ATOM      2  C   UNL d   1      24.721  12.269  -3.685  0.00  0.00     0.000 C 
BRANCH   2   3
ATOM      3  C   UNL d   1      24.736  12.416  -4.498  0.00  0.00     0.000 A 
ATOM      4  C   UNL d   1      24.740  11.780  -5.027  0.00  0.00     0.000 A 
ATOM      5  C   UNL d   1      24.754  11.918  -5.839  0.00  0.00     0.000 A 
ATOM      6  C   UNL d   1      24.766  12.696  -6.127  0.00  0.00     0.000 A 
ATOM      7  C   UNL d   1      24.762  13.330  -5.602  0.00  0.00     0.000 A 
ATOM      8  C   UNL d   1      24.748  13.194  -4.787  0.00  0.00     0.000 A 
ENDBRANCH   2   3
ENDBRANCH   1   2
BRANCH   1   9
ATOM      9  C   UNL d   1      24.316  12.704  -2.390  0.00  0.00     0.000 A 
ATOM     10  C   UNL d   1      24.719  13.070  -1.770  0.00  0.00     0.002 A 
ATOM     11  C   UNL d   1      24.517  12.897  -0.991  0.00  0.00     0.021 A 
ATOM     12  C   UNL d   1      23.912  12.360  -0.828  0.00  0.00     0.103 A 
ATOM     13  C   UNL d   1      23.510  11.996  -1.452  0.00  0.00     0.021 A 
ATOM     14  N   UNL d   1      23.712  12.190  -0.043  0.00  0.00    -0.148 N 
ATOM     15  C   UNL d   1      23.711  12.168  -2.233  0.00  0.00     0.002 A 
ENDBRANCH   1   9
TORSDOF 3
ENDMDL
MODEL 3
REMARK VINA RESULT:       8.0     10.471     10.862
REMARK  3 active torsions:
REMARK  status: ('A' for Active; 'I' for Inactive)
REMARK    1  A    between atoms: C_2  and  C_1 
REMARK    2  A    between atoms: C_3  and  C_1 
REMARK    3  A    between atoms: C_5  and  C_2 
ROOT
ATOM      1  C   UNL d   1      13.298  12.366  -2.706  0.00  0.00     0.000 C 
ENDROOT
BRANCH   1   2
ATOM      2  C   UNL d   1      13.758  11.780  -2.356  0.00  0.00     0.000 C 
BRANCH   2   3
ATOM      3  C   UNL d   1      14.011  11.874  -1.575  0.00  0.00     0.000 A 
ATOM      4  C   UNL d   1      14.803  12.056  -1.421  0.00  0.00     0.000 A 
ATOM      5  C   UNL d   1      15.061  12.151  -0.645  0.00  0.00     0.000 A 
ATOM      6  C   UNL d   1      14.527  12.065  -0.015  0.00  0.00     0.000 A 
ATOM      7  C   UNL d   1      13.738  11.885  -0.167  0.00  0.00     0.000 A 
ATOM      8  C   UNL d   1      13.476  11.788  -0.945  0.00  0.00     0.000 A 
ENDBRANCH   2   3
ENDBRANCH   1   2
BRANCH   1   9
ATOM      9  C   UNL d   1      13.239  12.407  -3.526  0.00  0.00     0.000 A 
ATOM     10  C   UNL d   1      12.904  11.779  -3.944  0.00  0.00     0.002 A 
ATOM     11  C   UNL d   1      12.844  11.819  -4.764  0.00  0.00     0.021 A 
ATOM     12  C   UNL d   1      13.119  12.483  -5.169  0.00  0.00     0.103 A 
ATOM     13  C   UNL d   1      13.454  13.109  -4.747  0.00  0.00     0.021 A 
ATOM     14  N   UNL d   1      13.057  12.517  -5.993  0.00  0.00    -0.148 N 
ATOM     15  C   UNL d   1      13.515  13.072  -3.926  0.00  0.00     0.002 A 
ENDBRANCH   1   9
TORSDOF 3
ENDMDL
