MODEL 1
REMARK VINA RESULT:      -3.2      0.000      0.000
REMARK  3 active torsions:
REMARK  status: ('A' for Active; 'I' for Inactive)
REMARK    1  A    between atoms: C_8  and  C_1 
REMARK    2  A    between atoms: O_12  and  C_8 
REMARK    3  A    between atoms: C_21  and  O_12 
ROOT
ATOM      1  C   UNL d   1      58.884  -0.829  29.672  0.00  0.00     0.084 A 
ATOM      2  C   UNL d   1      59.032  -1.582  29.403  0.00  0.00     0.065 A 
ATOM      3  C   UNL d   1      59.840  -1.604  29.089  0.00  0.00     0.107 A 
ATOM      4  N   UNL d   1      60.177  -0.874  29.166  0.00  0.00    -0.302 N 
ATOM      5  C   UNL d   1      59.582  -0.394  29.528  0.00  0.00     0.070 A 
ATOM      6  C   UNL d   1      58.553  -2.250  29.398  0.00  0.00     0.197 A 
ATOM      7  C   UNL d   1      60.163  -2.293  28.772  0.00  0.00     0.212 A 
ATOM      8  C   UNL d   1      58.872  -2.930  29.085  0.00  0.00     0.042 A 
ATOM      9  C   UNL d   1      59.680  -2.952  28.771  0.00  0.00     0.043 A 
ATOM     10  C   UNL d   1      60.953  -0.576  28.954  0.00  0.00     0.080 A 
ATOM     11  C   UNL d   1      59.768   0.384  29.675  0.00  0.00     0.018 A 
ATOM     12  O   UNL d   1      57.759  -2.229  29.707  0.00  0.00    -0.286 OA
ATOM     13  O   UNL d   1      60.955  -2.319  28.462  0.00  0.00    -0.285 OA
ATOM     14  C   UNL d   1      61.133   0.197  29.102  0.00  0.00     0.019 A 
ATOM     15  C   UNL d   1      60.534   0.681  29.467  0.00  0.00     0.003 A 
ATOM     16  C   UNL d   1      58.388  -3.598  29.082  0.00  0.00     0.003 A 
ATOM     17  C   UNL d   1      59.993  -3.641  28.457  0.00  0.00     0.003 A 
ATOM     18  C   UNL d   1      58.712  -4.282  28.766  0.00  0.00     0.000 A 
ATOM     19  C   UNL d   1      59.510  -4.304  28.455  0.00  0.00     0.000 A 
ENDROOT
BRANCH   1  20
ATOM     20  C   UNL d   1      58.153  -0.563  30.025  0.00  0.00     0.302 C 
ATOM     21  O   UNL d   1      57.641  -0.114  29.589  0.00  0.00    -0.259 OA
BRANCH  20  22
ATOM     22  O   UNL d   1      57.944  -0.750  30.807  0.00  0.00    -0.273 OA
BRANCH  22  23
ATOM     23  C   UNL d   1      57.359  -0.294  31.247  0.00  0.00     0.103 C 
ATOM     24  C   UNL d   1      56.844  -0.692  31.803  0.00  0.00     0.027 C 
ATOM     25  C   UNL d   1      57.292   0.547  31.129  0.00  0.00     0.027 C 
ENDBRANCH  22  23
ENDBRANCH  20  22
ENDBRANCH   1  20
TORSDOF 3
ENDMDL
MODEL 2
REMARK VINA RESULT:      -0.4      7.903      8.751
REMARK  3 active torsions:
REMARK  status: ('A' for Active; 'I' for Inactive)
REMARK    1  A    between atoms: C_8  and  C_1 
REMARK    2  A    between atoms: O_12  and  C_8 
REMARK    3  A    between atoms: C_21  and  O_12 
ROOT
ATOM      1  C   UNL d   1      58.544  -9.747  30.074  0.00  0.00     0.084 A 
ATOM      2  C   UNL d   1      58.747  -9.763  30.860  0.00  0.00     0.065 A 
ATOM      3  C   UNL d   1      59.612  -9.777  30.917  0.00  0.00     0.107 A 
ATOM      4  N   UNL d   1      59.929  -9.770  30.174  0.00  0.00    -0.302 N 
ATOM      5  C   UNL d   1      59.265  -9.751  29.652  0.00  0.00     0.070 A 
ATOM      6  C   UNL d   1      58.274  -9.766  31.533  0.00  0.00     0.197 A 
ATOM      7  C   UNL d   1      59.999  -9.794  31.645  0.00  0.00     0.212 A 
ATOM      8  C   UNL d   1      58.656  -9.783  32.251  0.00  0.00     0.042 A 
ATOM      9  C   UNL d   1      59.521  -9.797  32.308  0.00  0.00     0.043 A 
ATOM     10  C   UNL d   1      60.741  -9.778  29.897  0.00  0.00     0.080 A 
ATOM     11  C   UNL d   1      59.418  -9.741  28.853  0.00  0.00     0.018 A 
ATOM     12  O   UNL d   1      57.424  -9.752  31.478  0.00  0.00    -0.286 OA
ATOM     13  O   UNL d   1      60.847  -9.808  31.706  0.00  0.00    -0.285 OA
ATOM     14  C   UNL d   1      60.888  -9.768  29.104  0.00  0.00     0.019 A 
ATOM     15  C   UNL d   1      60.219  -9.749  28.577  0.00  0.00     0.003 A 
ATOM     16  C   UNL d   1      58.178  -9.786  32.924  0.00  0.00     0.003 A 
ATOM     17  C   UNL d   1      59.898  -9.815  33.036  0.00  0.00     0.003 A 
ATOM     18  C   UNL d   1      58.565  -9.804  33.647  0.00  0.00     0.000 A 
ATOM     19  C   UNL d   1      59.420  -9.818  33.703  0.00  0.00     0.000 A 
ENDROOT
BRANCH   1  20
ATOM     20  C   UNL d   1      57.747  -9.730  29.767  0.00  0.00     0.302 C 
ATOM     21  O   UNL d   1      57.123  -9.812  30.276  0.00  0.00    -0.259 OA
BRANCH  20  22
ATOM     22  O   UNL d   1      57.583  -9.631  28.959  0.00  0.00    -0.273 OA
BRANCH  22  23
ATOM     23  C   UNL d   1      56.834  -9.310  28.678  0.00  0.00     0.103 C 
ATOM     24  C   UNL d   1      56.778  -8.478  28.482  0.00  0.00     0.027 C 
ATOM     25  C   UNL d   1      56.153  -9.816  28.596  0.00  0.00     0.027 C 
ENDBRANCH  22  23
ENDBRANCH  20  22
ENDBRANCH   1  20
TORSDOF 3
ENDMDL
