MODEL 1
REMARK VINA RESULT:      17.4      0.000      0.000
REMARK  2 active torsions:
REMARK  status: ('A' for Active; 'I' for Inactive)
REMARK    1  A    between atoms: C_6  and  C_4 
REMARK    2  A    between atoms: C_7  and  C_5 
ROOT
ATOM      1  O   UNL d   1      58.874  49.675  50.669  0.00  0.00    -0.268 OA
ATOM      2  N   UNL d   1      59.046  49.708  49.340  0.00  0.00    -0.121 NA
ATOM      3  N   UNL d   1      59.798  49.699  49.691  0.00  0.00    -0.121 NA
ATOM      4  C   UNL d   1      59.688  49.679  50.510  0.00  0.00     0.204 A 
ATOM      5  C   UNL d   1      58.487  49.693  49.936  0.00  0.00     0.204 A 
ENDROOT
BRANCH   4   6
ATOM      6  C   UNL d   1      60.289  49.666  51.084  0.00  0.00     0.046 A 
ATOM      7  C   UNL d   1      61.077  49.611  50.859  0.00  0.00     0.024 A 
ATOM      8  C   UNL d   1      61.663  49.598  51.425  0.00  0.00     0.099 A 
ATOM      9  N   UNL d   1      61.467  49.639  52.225  0.00  0.00    -0.242 NA
ATOM     10  C   UNL d   1      60.684  49.694  52.460  0.00  0.00     0.099 A 
ATOM     11  C   UNL d   1      60.092  49.707  51.884  0.00  0.00     0.024 A 
ENDBRANCH   4   6
BRANCH   5  12
ATOM     12  C   UNL d   1      57.661  49.695  49.833  0.00  0.00     0.043 A 
ATOM     13  C   UNL d   1      57.164  49.694  50.488  0.00  0.00     0.004 A 
ATOM     14  C   UNL d   1      56.351  49.696  50.386  0.00  0.00     0.000 A 
ATOM     15  C   UNL d   1      56.034  49.700  49.624  0.00  0.00     0.000 A 
ATOM     16  C   UNL d   1      56.531  49.701  48.968  0.00  0.00     0.000 A 
ATOM     17  C   UNL d   1      57.349  49.699  49.072  0.00  0.00     0.004 A 
ENDBRANCH   5  12
TORSDOF 2
ENDMDL
MODEL 2
REMARK VINA RESULT:      18.7      0.758      3.966
REMARK  2 active torsions:
REMARK  status: ('A' for Active; 'I' for Inactive)
REMARK    1  A    between atoms: C_6  and  C_4 
REMARK    2  A    between atoms: C_7  and  C_5 
ROOT
ATOM      1  O   UNL d   1      58.871  49.660  50.702  0.00  0.00    -0.268 OA
ATOM      2  N   UNL d   1      59.806  49.707  49.742  0.00  0.00    -0.121 NA
ATOM      3  N   UNL d   1      59.063  49.704  49.372  0.00  0.00    -0.121 NA
ATOM      4  C   UNL d   1      58.490  49.675  49.966  0.00  0.00     0.204 A 
ATOM      5  C   UNL d   1      59.686  49.680  50.550  0.00  0.00     0.204 A 
ENDROOT
BRANCH   4   6
ATOM      6  C   UNL d   1      57.667  49.663  49.852  0.00  0.00     0.046 A 
ATOM      7  C   UNL d   1      57.158  49.636  50.497  0.00  0.00     0.024 A 
ATOM      8  C   UNL d   1      56.352  49.625  50.380  0.00  0.00     0.099 A 
ATOM      9  N   UNL d   1      56.044  49.640  49.615  0.00  0.00    -0.242 NA
ATOM     10  C   UNL d   1      56.542  49.667  48.965  0.00  0.00     0.099 A 
ATOM     11  C   UNL d   1      57.359  49.679  49.086  0.00  0.00     0.024 A 
ENDBRANCH   4   6
BRANCH   5  12
ATOM     12  C   UNL d   1      60.280  49.673  51.134  0.00  0.00     0.043 A 
ATOM     13  C   UNL d   1      60.075  49.678  51.931  0.00  0.00     0.004 A 
ATOM     14  C   UNL d   1      60.660  49.671  52.504  0.00  0.00     0.000 A 
ATOM     15  C   UNL d   1      61.455  49.659  52.279  0.00  0.00     0.000 A 
ATOM     16  C   UNL d   1      61.660  49.654  51.482  0.00  0.00     0.000 A 
ATOM     17  C   UNL d   1      61.069  49.661  50.905  0.00  0.00     0.004 A 
ENDBRANCH   5  12
TORSDOF 2
ENDMDL
