MODEL 1
REMARK VINA RESULT:      -9.1      0.000      0.000
REMARK  4 active torsions:
REMARK  status: ('A' for Active; 'I' for Inactive)
REMARK    1  A    between atoms: C_6  and  C_1 
REMARK    2  A    between atoms: C_7  and  N_3 
REMARK    3  A    between atoms: C_9  and  C_6 
REMARK    4  A    between atoms: N_8  and  C_9 
ROOT
ATOM      1  C   UNL d   1      51.868  33.672  52.833  0.00  0.00     0.058 A 
ATOM      2  C   UNL d   1      52.468  34.021  53.280  0.00  0.00     0.067 A 
ATOM      3  N   UNL d   1      52.971  33.430  53.568  0.00  0.00    -0.306 N 
ATOM      4  C   UNL d   1      52.666  32.717  53.289  0.00  0.00     0.064 A 
ATOM      5  C   UNL d   1      52.011  32.879  52.854  0.00  0.00     0.022 A 
ATOM      6  C   UNL d   1      52.555  34.834  53.419  0.00  0.00     0.019 C 
ATOM      7  C   UNL d   1      52.989  31.958  53.437  0.00  0.00     0.019 C 
ENDROOT
BRANCH   1   8
ATOM      8  C   UNL d   1      51.244  34.065  52.442  0.00  0.00     0.214 C 
ATOM      9  O   UNL d   1      51.384  34.514  51.772  0.00  0.00    -0.285 OA
BRANCH   8  10
ATOM     10  C   UNL d   1      50.477  33.998  52.739  0.00  0.00     0.123 C 
BRANCH  10  11
ATOM     11  N   UNL d   1      49.852  34.362  52.354  0.00  0.00    -0.300 N 
ATOM     12  C   UNL d   1      49.424  34.923  52.745  0.00  0.00     0.080 A 
ATOM     13  C   UNL d   1      48.784  35.302  52.364  0.00  0.00     0.019 A 
ATOM     14  C   UNL d   1      48.621  35.077  51.590  0.00  0.00     0.003 A 
ATOM     15  C   UNL d   1      49.048  34.516  51.198  0.00  0.00     0.019 A 
ATOM     16  C   UNL d   1      49.680  34.160  51.612  0.00  0.00     0.080 A 
ENDBRANCH  10  11
ENDBRANCH   8  10
ENDBRANCH   1   8
BRANCH   3  17
ATOM     17  C   UNL d   1      53.632  33.444  54.024  0.00  0.00     0.064 A 
ATOM     18  C   UNL d   1      53.556  33.484  54.849  0.00  0.00     0.020 A 
ATOM     19  C   UNL d   1      54.246  33.499  55.326  0.00  0.00     0.031 A 
ATOM     20  C   UNL d   1      54.970  33.474  54.978  0.00  0.00     0.140 A 
ATOM     21  C   UNL d   1      55.042  33.436  54.174  0.00  0.00     0.031 A 
ATOM     22  F   UNL d   1      55.639  33.488  55.439  0.00  0.00    -0.204 F 
ATOM     23  C   UNL d   1      54.369  33.420  53.673  0.00  0.00     0.020 A 
ENDBRANCH   3  17
TORSDOF 4
ENDMDL
MODEL 2
REMARK VINA RESULT:      -7.6      2.249      4.413
REMARK  4 active torsions:
REMARK  status: ('A' for Active; 'I' for Inactive)
REMARK    1  A    between atoms: C_6  and  C_1 
REMARK    2  A    between atoms: C_7  and  N_3 
REMARK    3  A    between atoms: C_9  and  C_6 
REMARK    4  A    between atoms: N_8  and  C_9 
ROOT
ATOM      1  C   UNL d   1      53.095  31.889  53.457  0.00  0.00     0.058 A 
ATOM      2  C   UNL d   1      53.429  32.559  53.806  0.00  0.00     0.067 A 
ATOM      3  N   UNL d   1      52.940  33.212  53.662  0.00  0.00    -0.306 N 
ATOM      4  C   UNL d   1      52.305  32.926  53.221  0.00  0.00     0.064 A 
ATOM      5  C   UNL d   1      52.413  32.139  53.108  0.00  0.00     0.022 A 
ATOM      6  C   UNL d   1      54.140  32.578  54.232  0.00  0.00     0.019 C 
ATOM      7  C   UNL d   1      51.661  33.385  52.941  0.00  0.00     0.019 C 
ENDROOT
BRANCH   1   8
ATOM      8  C   UNL d   1      53.406  31.115  53.467  0.00  0.00     0.214 C 
ATOM      9  O   UNL d   1      54.212  30.983  53.396  0.00  0.00    -0.285 OA
BRANCH   8  10
ATOM     10  C   UNL d   1      52.891  30.476  53.549  0.00  0.00     0.123 C 
BRANCH  10  11
ATOM     11  N   UNL d   1      53.119  29.815  53.978  0.00  0.00    -0.300 N 
ATOM     12  C   UNL d   1      52.898  29.756  54.752  0.00  0.00     0.080 A 
ATOM     13  C   UNL d   1      53.123  29.088  55.201  0.00  0.00     0.019 A 
ATOM     14  C   UNL d   1      53.569  28.511  54.819  0.00  0.00     0.003 A 
ATOM     15  C   UNL d   1      53.789  28.570  54.045  0.00  0.00     0.019 A 
ATOM     16  C   UNL d   1      53.546  29.252  53.630  0.00  0.00     0.080 A 
ENDBRANCH  10  11
ENDBRANCH   8  10
ENDBRANCH   1   8
BRANCH   3  17
ATOM     17  C   UNL d   1      52.985  33.988  53.864  0.00  0.00     0.064 A 
ATOM     18  C   UNL d   1      52.872  34.210  54.655  0.00  0.00     0.020 A 
ATOM     19  C   UNL d   1      52.919  35.020  54.866  0.00  0.00     0.031 A 
ATOM     20  C   UNL d   1      53.072  35.569  54.300  0.00  0.00     0.140 A 
ATOM     21  C   UNL d   1      53.181  35.352  53.530  0.00  0.00     0.031 A 
ATOM     22  F   UNL d   1      53.117  36.355  54.504  0.00  0.00    -0.204 F 
ATOM     23  C   UNL d   1      53.140  34.549  53.291  0.00  0.00     0.020 A 
ENDBRANCH   3  17
TORSDOF 4
ENDMDL
MODEL 3
REMARK VINA RESULT:      -7.1      2.712      3.836
REMARK  4 active torsions:
REMARK  status: ('A' for Active; 'I' for Inactive)
REMARK    1  A    between atoms: C_6  and  C_1 
REMARK    2  A    between atoms: C_7  and  N_3 
REMARK    3  A    between atoms: C_9  and  C_6 
REMARK    4  A    between atoms: N_8  and  C_9 
ROOT
ATOM      1  C   UNL d   1      53.241  32.058  53.501  0.00  0.00     0.058 A 
ATOM      2  C   UNL d   1      53.506  31.495  54.045  0.00  0.00     0.067 A 
ATOM      3  N   UNL d   1      53.273  30.742  53.792  0.00  0.00    -0.306 N 
ATOM      4  C   UNL d   1      52.863  30.857  53.087  0.00  0.00     0.064 A 
ATOM      5  C   UNL d   1      52.853  31.643  52.928  0.00  0.00     0.022 A 
ATOM      6  C   UNL d   1      53.937  31.657  54.735  0.00  0.00     0.019 C 
ATOM      7  C   UNL d   1      52.517  30.251  52.620  0.00  0.00     0.019 C 
ENDROOT
BRANCH   1   8
ATOM      8  C   UNL d   1      53.355  32.883  53.542  0.00  0.00     0.214 C 
ATOM      9  O   UNL d   1      54.083  33.217  53.367  0.00  0.00    -0.285 OA
BRANCH   8  10
ATOM     10  C   UNL d   1      52.724  33.366  53.762  0.00  0.00     0.123 C 
BRANCH  10  11
ATOM     11  N   UNL d   1      52.846  34.163  53.911  0.00  0.00    -0.300 N 
ATOM     12  C   UNL d   1      52.785  34.689  53.303  0.00  0.00     0.080 A 
ATOM     13  C   UNL d   1      52.907  35.504  53.441  0.00  0.00     0.019 A 
ATOM     14  C   UNL d   1      53.087  35.732  54.211  0.00  0.00     0.003 A 
ATOM     15  C   UNL d   1      53.148  35.206  54.820  0.00  0.00     0.019 A 
ATOM     16  C   UNL d   1      53.019  34.400  54.642  0.00  0.00     0.080 A 
ENDBRANCH  10  11
ENDBRANCH   8  10
ENDBRANCH   1   8
BRANCH   3  17
ATOM     17  C   UNL d   1      53.374  30.005  54.094  0.00  0.00     0.064 A 
ATOM     18  C   UNL d   1      52.917  29.766  54.744  0.00  0.00     0.020 A 
ATOM     19  C   UNL d   1      53.023  28.995  55.060  0.00  0.00     0.031 A 
ATOM     20  C   UNL d   1      53.563  28.501  54.729  0.00  0.00     0.140 A 
ATOM     21  C   UNL d   1      54.006  28.735  54.097  0.00  0.00     0.031 A 
ATOM     22  F   UNL d   1      53.665  27.755  55.035  0.00  0.00    -0.204 F 
ATOM     23  C   UNL d   1      53.922  29.500  53.761  0.00  0.00     0.020 A 
ENDBRANCH   3  17
TORSDOF 4
ENDMDL
MODEL 4
REMARK VINA RESULT:      -6.6      1.976      4.888
REMARK  4 active torsions:
REMARK  status: ('A' for Active; 'I' for Inactive)
REMARK    1  A    between atoms: C_6  and  C_1 
REMARK    2  A    between atoms: C_7  and  N_3 
REMARK    3  A    between atoms: C_9  and  C_6 
REMARK    4  A    between atoms: N_8  and  C_9 
ROOT
ATOM      1  C   UNL d   1      52.231  33.645  53.307  0.00  0.00     0.058 A 
ATOM      2  C   UNL d   1      51.764  34.238  52.972  0.00  0.00     0.067 A 
ATOM      3  N   UNL d   1      50.996  33.951  52.866  0.00  0.00    -0.306 N 
ATOM      4  C   UNL d   1      51.003  33.174  53.142  0.00  0.00     0.064 A 
ATOM      5  C   UNL d   1      51.745  33.009  53.401  0.00  0.00     0.022 A 
ATOM      6  C   UNL d   1      52.023  35.001  52.772  0.00  0.00     0.019 C 
ATOM      7  C   UNL d   1      50.346  32.653  53.149  0.00  0.00     0.019 C 
ENDROOT
BRANCH   1   8
ATOM      8  C   UNL d   1      53.040  33.699  53.506  0.00  0.00     0.214 C 
ATOM      9  O   UNL d   1      53.512  34.292  53.193  0.00  0.00    -0.285 OA
BRANCH   8  10
ATOM     10  C   UNL d   1      53.365  33.147  54.025  0.00  0.00     0.123 C 
BRANCH  10  11
ATOM     11  N   UNL d   1      54.054  33.320  54.435  0.00  0.00    -0.300 N 
ATOM     12  C   UNL d   1      54.763  33.245  54.057  0.00  0.00     0.080 A 
ATOM     13  C   UNL d   1      55.472  33.419  54.462  0.00  0.00     0.019 A 
ATOM     14  C   UNL d   1      55.408  33.662  55.246  0.00  0.00     0.003 A 
ATOM     15  C   UNL d   1      54.699  33.737  55.624  0.00  0.00     0.019 A 
ATOM     16  C   UNL d   1      54.012  33.555  55.186  0.00  0.00     0.080 A 
ENDBRANCH  10  11
ENDBRANCH   8  10
ENDBRANCH   1   8
BRANCH   3  17
ATOM     17  C   UNL d   1      50.323  34.275  52.570  0.00  0.00     0.064 A 
ATOM     18  C   UNL d   1      50.133  34.159  51.770  0.00  0.00     0.020 A 
ATOM     19  C   UNL d   1      49.431  34.498  51.461  0.00  0.00     0.031 A 
ATOM     20  C   UNL d   1      48.953  34.929  51.942  0.00  0.00     0.140 A 
ATOM     21  C   UNL d   1      49.138  35.041  52.719  0.00  0.00     0.031 A 
ATOM     22  F   UNL d   1      48.272  35.257  51.642  0.00  0.00    -0.204 F 
ATOM     23  C   UNL d   1      49.835  34.713  53.056  0.00  0.00     0.020 A 
ENDBRANCH   3  17
TORSDOF 4
ENDMDL
