MODEL 1
REMARK VINA RESULT:      -3.4      0.000      0.000
REMARK  4 active torsions:
REMARK  status: ('A' for Active; 'I' for Inactive)
REMARK    1  A    between atoms: N_2  and  C_1 
REMARK    2  A    between atoms: C_3  and  C_1 
REMARK       I    between atoms: C_6  and  N_2 
REMARK    3  A    between atoms: S_9  and  C_6 
REMARK    4  A    between atoms: C_14  and  S_9 
ROOT
ATOM      1  C   UNL d   1      31.571  16.894 -23.893  0.00  0.00     0.385 A 
ATOM      2  O   UNL d   1      31.220  16.169 -23.779  0.00  0.00    -0.283 OA
ATOM      3  O   UNL d   1      31.049  17.361 -24.347  0.00  0.00    -0.283 OA
ATOM      4  C   UNL d   1      30.380  16.904 -24.504  0.00  0.00     0.121 A 
ATOM      5  C   UNL d   1      30.488  16.159 -24.148  0.00  0.00     0.121 A 
ATOM      6  C   UNL d   1      29.909  15.588 -24.213  0.00  0.00     0.026 A 
ATOM      7  C   UNL d   1      29.696  17.065 -24.917  0.00  0.00     0.026 A 
ATOM      8  C   UNL d   1      29.110  16.481 -24.981  0.00  0.00     0.002 A 
ATOM      9  C   UNL d   1      29.214  15.757 -24.635  0.00  0.00     0.002 A 
ENDROOT
BRANCH   1  10
ATOM     10  N   UNL d   1      32.305  17.219 -23.650  0.00  0.00    -0.171 NA
ATOM     11  C   UNL d   1      32.456  18.023 -23.759  0.00  0.00     0.310 C 
ATOM     12  O   UNL d   1      31.891  18.508 -24.105  0.00  0.00    -0.258 OA
BRANCH  11  13
ATOM     13  S   UNL d   1      33.181  18.341 -23.518  0.00  0.00    -0.026 SA
BRANCH  13  14
ATOM     14  C   UNL d   1      33.201  18.991 -23.012  0.00  0.00     0.034 A 
ATOM     15  C   UNL d   1      33.219  18.880 -22.195  0.00  0.00     0.007 A 
ATOM     16  C   UNL d   1      33.239  19.531 -21.690  0.00  0.00     0.001 A 
ATOM     17  C   UNL d   1      33.241  20.295 -22.003  0.00  0.00     0.000 A 
ATOM     18  C   UNL d   1      33.223  20.412 -22.819  0.00  0.00     0.001 A 
ATOM     19  C   UNL d   1      33.203  19.756 -23.323  0.00  0.00     0.007 A 
ENDBRANCH  13  14
ENDBRANCH  11  13
ENDBRANCH   1  10
BRANCH   1  20
ATOM     20  C   UNL d   1      31.744  16.184 -23.519  0.00  0.00     0.470 C 
ATOM     21  F   UNL d   1      31.927  15.461 -23.154  0.00  0.00    -0.164 F 
ATOM     22  F   UNL d   1      32.157  15.936 -24.204  0.00  0.00    -0.164 F 
ATOM     23  F   UNL d   1      31.338  16.431 -22.849  0.00  0.00    -0.164 F 
ENDBRANCH   1  20
TORSDOF 4
ENDMDL
MODEL 2
REMARK VINA RESULT:      -2.9      1.481      4.067
REMARK  4 active torsions:
REMARK  status: ('A' for Active; 'I' for Inactive)
REMARK    1  A    between atoms: N_2  and  C_1 
REMARK    2  A    between atoms: C_3  and  C_1 
REMARK       I    between atoms: C_6  and  N_2 
REMARK    3  A    between atoms: S_9  and  C_6 
REMARK    4  A    between atoms: C_14  and  S_9 
ROOT
ATOM      1  C   UNL d   1      31.921  17.244 -23.962  0.00  0.00     0.385 A 
ATOM      2  O   UNL d   1      32.552  17.622 -23.615  0.00  0.00    -0.283 OA
ATOM      3  O   UNL d   1      31.647  17.726 -24.588  0.00  0.00    -0.283 OA
ATOM      4  C   UNL d   1      32.125  18.398 -24.609  0.00  0.00     0.121 A 
ATOM      5  C   UNL d   1      32.691  18.333 -24.001  0.00  0.00     0.121 A 
ATOM      6  C   UNL d   1      33.241  18.923 -23.890  0.00  0.00     0.026 A 
ATOM      7  C   UNL d   1      32.121  19.052 -25.095  0.00  0.00     0.026 A 
ATOM      8  C   UNL d   1      32.684  19.651 -24.979  0.00  0.00     0.002 A 
ATOM      9  C   UNL d   1      33.233  19.588 -24.388  0.00  0.00     0.002 A 
ENDROOT
BRANCH   1  10
ATOM     10  N   UNL d   1      31.534  16.516 -23.809  0.00  0.00    -0.171 NA
ATOM     11  C   UNL d   1      30.858  16.310 -24.235  0.00  0.00     0.310 C 
ATOM     12  O   UNL d   1      30.561  16.814 -24.810  0.00  0.00    -0.258 OA
BRANCH  11  13
ATOM     13  S   UNL d   1      30.480  15.590 -24.080  0.00  0.00    -0.026 SA
BRANCH  13  14
ATOM     14  C   UNL d   1      29.670  15.573 -23.925  0.00  0.00     0.034 A 
ATOM     15  C   UNL d   1      29.131  15.482 -24.543  0.00  0.00     0.007 A 
ATOM     16  C   UNL d   1      28.323  15.465 -24.386  0.00  0.00     0.001 A 
ATOM     17  C   UNL d   1      28.052  15.539 -23.610  0.00  0.00     0.000 A 
ATOM     18  C   UNL d   1      28.585  15.629 -22.988  0.00  0.00     0.001 A 
ATOM     19  C   UNL d   1      29.397  15.646 -23.149  0.00  0.00     0.007 A 
ENDBRANCH  13  14
ENDBRANCH  11  13
ENDBRANCH   1  10
BRANCH   1  20
ATOM     20  C   UNL d   1      32.446  17.114 -23.346  0.00  0.00     0.470 C 
ATOM     21  F   UNL d   1      32.967  16.991 -22.711  0.00  0.00    -0.164 F 
ATOM     22  F   UNL d   1      31.944  17.554 -22.840  0.00  0.00    -0.164 F 
ATOM     23  F   UNL d   1      32.935  16.683 -23.845  0.00  0.00    -0.164 F 
ENDBRANCH   1  20
TORSDOF 4
ENDMDL
MODEL 3
REMARK VINA RESULT:      -2.7      1.365      2.085
REMARK  4 active torsions:
REMARK  status: ('A' for Active; 'I' for Inactive)
REMARK    1  A    between atoms: N_2  and  C_1 
REMARK    2  A    between atoms: C_3  and  C_1 
REMARK       I    between atoms: C_6  and  N_2 
REMARK    3  A    between atoms: S_9  and  C_6 
REMARK    4  A    between atoms: C_14  and  S_9 
ROOT
ATOM      1  C   UNL d   1      32.135  18.007 -23.680  0.00  0.00     0.385 A 
ATOM      2  O   UNL d   1      31.635  17.688 -24.237  0.00  0.00    -0.283 OA
ATOM      3  O   UNL d   1      32.265  17.427 -23.093  0.00  0.00    -0.283 OA
ATOM      4  C   UNL d   1      31.835  16.756 -23.308  0.00  0.00     0.121 A 
ATOM      5  C   UNL d   1      31.441  16.920 -24.023  0.00  0.00     0.121 A 
ATOM      6  C   UNL d   1      30.970  16.352 -24.369  0.00  0.00     0.026 A 
ATOM      7  C   UNL d   1      31.750  16.028 -22.952  0.00  0.00     0.026 A 
ATOM      8  C   UNL d   1      31.270  15.453 -23.308  0.00  0.00     0.002 A 
ATOM      9  C   UNL d   1      30.887  15.612 -24.003  0.00  0.00     0.002 A 
ENDROOT
BRANCH   1  10
ATOM     10  N   UNL d   1      32.507  18.754 -23.606  0.00  0.00    -0.171 NA
ATOM     11  C   UNL d   1      32.874  18.964 -22.897  0.00  0.00     0.310 C 
ATOM     12  O   UNL d   1      32.877  18.443 -22.262  0.00  0.00    -0.258 OA
BRANCH  11  13
ATOM     13  S   UNL d   1      33.241  19.703 -22.827  0.00  0.00    -0.026 SA
BRANCH  13  14
ATOM     14  C   UNL d   1      33.040  20.208 -22.207  0.00  0.00     0.034 A 
ATOM     15  C   UNL d   1      32.639  20.912 -22.360  0.00  0.00     0.007 A 
ATOM     16  C   UNL d   1      32.439  21.416 -21.739  0.00  0.00     0.001 A 
ATOM     17  C   UNL d   1      32.641  21.215 -20.964  0.00  0.00     0.000 A 
ATOM     18  C   UNL d   1      33.041  20.513 -20.805  0.00  0.00     0.001 A 
ATOM     19  C   UNL d   1      33.241  20.008 -21.431  0.00  0.00     0.007 A 
ENDBRANCH  13  14
ENDBRANCH  11  13
ENDBRANCH   1  10
BRANCH   1  20
ATOM     20  C   UNL d   1      31.778  18.236 -24.383  0.00  0.00     0.470 C 
ATOM     21  F   UNL d   1      31.403  18.473 -25.084  0.00  0.00    -0.164 F 
ATOM     22  F   UNL d   1      31.092  18.449 -23.951  0.00  0.00    -0.164 F 
ATOM     23  F   UNL d   1      32.453  18.027 -24.801  0.00  0.00    -0.164 F 
ENDBRANCH   1  20
TORSDOF 4
ENDMDL
MODEL 4
REMARK VINA RESULT:      -1.2      3.710      6.064
REMARK  4 active torsions:
REMARK  status: ('A' for Active; 'I' for Inactive)
REMARK    1  A    between atoms: N_2  and  C_1 
REMARK    2  A    between atoms: C_3  and  C_1 
REMARK       I    between atoms: C_6  and  N_2 
REMARK    3  A    between atoms: S_9  and  C_6 
REMARK    4  A    between atoms: C_14  and  S_9 
ROOT
ATOM      1  C   UNL d   1      32.934  22.105 -21.617  0.00  0.00     0.385 A 
ATOM      2  O   UNL d   1      32.548  22.801 -21.448  0.00  0.00    -0.283 OA
ATOM      3  O   UNL d   1      33.241  21.803 -20.901  0.00  0.00    -0.283 OA
ATOM      4  C   UNL d   1      33.032  22.330 -20.301  0.00  0.00     0.121 A 
ATOM      5  C   UNL d   1      32.599  22.953 -20.643  0.00  0.00     0.121 A 
ATOM      6  C   UNL d   1      32.319  23.560 -20.176  0.00  0.00     0.026 A 
ATOM      7  C   UNL d   1      33.177  22.324 -19.499  0.00  0.00     0.026 A 
ATOM      8  C   UNL d   1      32.890  22.944 -19.027  0.00  0.00     0.002 A 
ATOM      9  C   UNL d   1      32.469  23.550 -19.359  0.00  0.00     0.002 A 
ENDROOT
BRANCH   1  10
ATOM     10  N   UNL d   1      33.062  21.680 -22.328  0.00  0.00    -0.171 NA
ATOM     11  C   UNL d   1      33.051  20.855 -22.323  0.00  0.00     0.310 C 
ATOM     12  O   UNL d   1      32.915  20.446 -21.624  0.00  0.00    -0.258 OA
BRANCH  11  13
ATOM     13  S   UNL d   1      33.178  20.439 -23.027  0.00  0.00    -0.026 SA
BRANCH  13  14
ATOM     14  C   UNL d   1      33.121  19.616 -23.038  0.00  0.00     0.034 A 
ATOM     15  C   UNL d   1      33.241  19.183 -22.347  0.00  0.00     0.007 A 
ATOM     16  C   UNL d   1      33.183  18.362 -22.359  0.00  0.00     0.001 A 
ATOM     17  C   UNL d   1      33.006  17.971 -23.065  0.00  0.00     0.000 A 
ATOM     18  C   UNL d   1      32.885  18.399 -23.759  0.00  0.00     0.001 A 
ATOM     19  C   UNL d   1      32.944  19.225 -23.744  0.00  0.00     0.007 A 
ENDBRANCH  13  14
ENDBRANCH  11  13
ENDBRANCH   1  10
BRANCH   1  20
ATOM     20  C   UNL d   1      32.516  22.685 -22.020  0.00  0.00     0.470 C 
ATOM     21  F   UNL d   1      32.108  23.280 -22.432  0.00  0.00    -0.164 F 
ATOM     22  F   UNL d   1      33.240  23.065 -22.201  0.00  0.00    -0.164 F 
ATOM     23  F   UNL d   1      31.809  22.309 -21.840  0.00  0.00    -0.164 F 
ENDBRANCH   1  20
TORSDOF 4
ENDMDL
