MODEL 1
REMARK VINA RESULT:      -8.1      0.000      0.000
REMARK  5 active torsions:
REMARK  status: ('A' for Active; 'I' for Inactive)
REMARK    1  A    between atoms: C_10  and  N_6 
REMARK    2  A    between atoms: N_13  and  C_9 
REMARK    3  A    between atoms: C_14  and  C_10 
REMARK    4  A    between atoms: C_21  and  N_13 
REMARK    5  A    between atoms: C_24  and  C_21 
ROOT
ATOM      1  C   UNL d   1      53.179  33.967  54.114  0.00  0.00     0.176 A 
ATOM      2  C   UNL d   1      53.653  33.339  53.975  0.00  0.00     0.159 A 
ATOM      3  N   UNL d   1      52.489  34.061  53.719  0.00  0.00    -0.181 NA
ATOM      4  N   UNL d   1      53.393  34.523  54.664  0.00  0.00    -0.240 N 
ATOM      5  N   UNL d   1      54.557  33.811  54.927  0.00  0.00    -0.223 N 
ATOM      6  N   UNL d   1      52.758  32.872  53.031  0.00  0.00    -0.258 N 
ATOM      7  C   UNL d   1      54.075  34.449  55.068  0.00  0.00     0.343 A 
ATOM      8  C   UNL d   1      54.344  33.264  54.384  0.00  0.00     0.287 A 
ATOM      9  C   UNL d   1      52.276  33.523  53.183  0.00  0.00     0.292 A 
ATOM     10  O   UNL d   1      54.292  35.001  55.618  0.00  0.00    -0.245 OA
ATOM     11  O   UNL d   1      54.831  32.620  54.241  0.00  0.00    -0.265 OA
ATOM     12  C   UNL d   1      52.914  35.157  54.805  0.00  0.00     0.105 C 
ATOM     13  C   UNL d   1      55.274  33.726  55.347  0.00  0.00     0.107 C 
ENDROOT
BRANCH   6  14
ATOM     14  C   UNL d   1      52.908  32.173  52.621  0.00  0.00     0.084 C 
BRANCH  14  15
ATOM     15  C   UNL d   1      52.702  31.436  52.951  0.00  0.00     0.018 A 
ATOM     16  C   UNL d   1      53.296  30.880  53.083  0.00  0.00     0.002 A 
ATOM     17  C   UNL d   1      53.090  30.143  53.413  0.00  0.00     0.000 A 
ATOM     18  C   UNL d   1      53.516  29.454  53.624  0.00  0.00     0.000 C 
ATOM     19  C   UNL d   1      52.293  29.974  53.606  0.00  0.00     0.000 A 
ATOM     20  C   UNL d   1      51.717  30.550  53.464  0.00  0.00     0.000 A 
ATOM     21  C   UNL d   1      51.921  31.279  53.138  0.00  0.00     0.002 A 
ENDBRANCH  14  15
ENDBRANCH   6  14
BRANCH   9  22
ATOM     22  N   UNL d   1      51.594  33.598  52.779  0.00  0.00    -0.365 NA
BRANCH  22  23
ATOM     23  C   UNL d   1      50.975  33.871  52.290  0.00  0.00     0.164 C 
BRANCH  23  24
ATOM     24  C   UNL d   1      50.256  34.134  52.632  0.00  0.00     0.035 C 
ATOM     25  C   UNL d   1      49.670  34.492  52.159  0.00  0.00     0.003 C 
ENDBRANCH  23  24
ENDBRANCH  22  23
ENDBRANCH   9  22
TORSDOF 5
ENDMDL
MODEL 2
REMARK VINA RESULT:      -7.9      1.776      4.211
REMARK  5 active torsions:
REMARK  status: ('A' for Active; 'I' for Inactive)
REMARK    1  A    between atoms: C_10  and  N_6 
REMARK    2  A    between atoms: N_13  and  C_9 
REMARK    3  A    between atoms: C_14  and  C_10 
REMARK    4  A    between atoms: C_21  and  N_13 
REMARK    5  A    between atoms: C_24  and  C_21 
ROOT
ATOM      1  C   UNL d   1      53.400  30.962  54.031  0.00  0.00     0.176 A 
ATOM      2  C   UNL d   1      53.129  31.127  53.298  0.00  0.00     0.159 A 
ATOM      3  N   UNL d   1      53.699  31.536  54.502  0.00  0.00    -0.181 NA
ATOM      4  N   UNL d   1      53.375  30.201  54.311  0.00  0.00    -0.240 N 
ATOM      5  N   UNL d   1      52.806  29.783  53.113  0.00  0.00    -0.223 N 
ATOM      6  N   UNL d   1      53.449  32.459  53.480  0.00  0.00    -0.258 N 
ATOM      7  C   UNL d   1      53.081  29.615  53.859  0.00  0.00     0.343 A 
ATOM      8  C   UNL d   1      52.832  30.533  52.840  0.00  0.00     0.287 A 
ATOM      9  C   UNL d   1      53.726  32.277  54.235  0.00  0.00     0.292 A 
ATOM     10  O   UNL d   1      53.054  28.855  54.134  0.00  0.00    -0.245 OA
ATOM     11  O   UNL d   1      52.554  30.703  52.087  0.00  0.00    -0.265 OA
ATOM     12  C   UNL d   1      53.648  30.034  55.052  0.00  0.00     0.105 C 
ATOM     13  C   UNL d   1      52.497  29.173  52.633  0.00  0.00     0.107 C 
ENDROOT
BRANCH   6  14
ATOM     14  C   UNL d   1      53.306  33.010  52.884  0.00  0.00     0.084 C 
BRANCH  14  15
ATOM     15  C   UNL d   1      52.679  33.554  52.952  0.00  0.00     0.018 A 
ATOM     16  C   UNL d   1      51.904  33.273  52.916  0.00  0.00     0.002 A 
ATOM     17  C   UNL d   1      51.277  33.817  52.984  0.00  0.00     0.000 A 
ATOM     18  C   UNL d   1      50.442  33.756  52.975  0.00  0.00     0.000 C 
ATOM     19  C   UNL d   1      51.434  34.634  53.087  0.00  0.00     0.000 A 
ATOM     20  C   UNL d   1      52.220  34.888  53.120  0.00  0.00     0.000 A 
ATOM     21  C   UNL d   1      52.841  34.350  53.053  0.00  0.00     0.002 A 
ENDBRANCH  14  15
ENDBRANCH   6  14
BRANCH   9  22
ATOM     22  N   UNL d   1      54.019  32.863  54.687  0.00  0.00    -0.365 NA
BRANCH  22  23
ATOM     23  C   UNL d   1      54.370  33.305  55.302  0.00  0.00     0.164 C 
BRANCH  23  24
ATOM     24  C   UNL d   1      55.157  33.584  55.221  0.00  0.00     0.035 C 
ATOM     25  C   UNL d   1      55.405  34.269  55.626  0.00  0.00     0.003 C 
ENDBRANCH  23  24
ENDBRANCH  22  23
ENDBRANCH   9  22
TORSDOF 5
ENDMDL
MODEL 3
REMARK VINA RESULT:      -7.9      1.480      3.810
REMARK  5 active torsions:
REMARK  status: ('A' for Active; 'I' for Inactive)
REMARK    1  A    between atoms: C_10  and  N_6 
REMARK    2  A    between atoms: N_13  and  C_9 
REMARK    3  A    between atoms: C_14  and  C_10 
REMARK    4  A    between atoms: C_21  and  N_13 
REMARK    5  A    between atoms: C_24  and  C_21 
ROOT
ATOM      1  C   UNL d   1      51.771  32.866  53.073  0.00  0.00     0.176 A 
ATOM      2  C   UNL d   1      52.318  33.446  53.124  0.00  0.00     0.159 A 
ATOM      3  N   UNL d   1      51.980  32.095  53.124  0.00  0.00    -0.181 NA
ATOM      4  N   UNL d   1      50.989  33.053  52.968  0.00  0.00    -0.240 N 
ATOM      5  N   UNL d   1      51.316  34.404  52.966  0.00  0.00    -0.223 N 
ATOM      6  N   UNL d   1      53.310  32.497  53.280  0.00  0.00    -0.258 N 
ATOM      7  C   UNL d   1      50.760  33.814  52.915  0.00  0.00     0.343 A 
ATOM      8  C   UNL d   1      52.086  34.217  53.070  0.00  0.00     0.287 A 
ATOM      9  C   UNL d   1      52.738  31.907  53.226  0.00  0.00     0.292 A 
ATOM     10  O   UNL d   1      49.981  34.005  52.810  0.00  0.00    -0.245 OA
ATOM     11  O   UNL d   1      52.647  34.813  53.121  0.00  0.00    -0.265 OA
ATOM     12  C   UNL d   1      50.436  32.467  52.917  0.00  0.00     0.105 C 
ATOM     13  C   UNL d   1      51.083  35.205  52.911  0.00  0.00     0.107 C 
ENDROOT
BRANCH   6  14
ATOM     14  C   UNL d   1      54.097  32.725  53.372  0.00  0.00     0.084 C 
BRANCH  14  15
ATOM     15  C   UNL d   1      54.384  32.967  54.116  0.00  0.00     0.018 A 
ATOM     16  C   UNL d   1      54.984  33.532  54.146  0.00  0.00     0.002 A 
ATOM     17  C   UNL d   1      55.270  33.773  54.890  0.00  0.00     0.000 A 
ATOM     18  C   UNL d   1      55.855  34.315  55.148  0.00  0.00     0.000 C 
ATOM     19  C   UNL d   1      54.952  33.446  55.592  0.00  0.00     0.000 A 
ATOM     20  C   UNL d   1      54.351  32.882  55.533  0.00  0.00     0.000 A 
ATOM     21  C   UNL d   1      54.068  32.643  54.797  0.00  0.00     0.002 A 
ENDBRANCH  14  15
ENDBRANCH   6  14
BRANCH   9  22
ATOM     22  N   UNL d   1      52.966  31.146  53.279  0.00  0.00    -0.365 NA
BRANCH  22  23
ATOM     23  C   UNL d   1      53.135  30.345  53.120  0.00  0.00     0.164 C 
BRANCH  23  24
ATOM     24  C   UNL d   1      52.835  29.745  53.623  0.00  0.00     0.035 C 
ATOM     25  C   UNL d   1      53.346  29.169  53.945  0.00  0.00     0.003 C 
ENDBRANCH  23  24
ENDBRANCH  22  23
ENDBRANCH   9  22
TORSDOF 5
ENDMDL
MODEL 4
REMARK VINA RESULT:      -7.5      1.299      3.502
REMARK  5 active torsions:
REMARK  status: ('A' for Active; 'I' for Inactive)
REMARK    1  A    between atoms: C_10  and  N_6 
REMARK    2  A    between atoms: N_13  and  C_9 
REMARK    3  A    between atoms: C_14  and  C_10 
REMARK    4  A    between atoms: C_21  and  N_13 
REMARK    5  A    between atoms: C_24  and  C_21 
ROOT
ATOM      1  C   UNL d   1      52.397  31.349  53.212  0.00  0.00     0.176 A 
ATOM      2  C   UNL d   1      53.175  31.490  53.325  0.00  0.00     0.159 A 
ATOM      3  N   UNL d   1      51.886  31.946  53.057  0.00  0.00    -0.181 NA
ATOM      4  N   UNL d   1      52.111  30.591  53.255  0.00  0.00    -0.240 N 
ATOM      5  N   UNL d   1      53.394  30.126  53.522  0.00  0.00    -0.223 N 
ATOM      6  N   UNL d   1      52.959  32.841  53.129  0.00  0.00    -0.258 N 
ATOM      7  C   UNL d   1      52.603  29.983  53.408  0.00  0.00     0.343 A 
ATOM      8  C   UNL d   1      53.673  30.874  53.480  0.00  0.00     0.287 A 
ATOM      9  C   UNL d   1      52.158  32.684  53.015  0.00  0.00     0.292 A 
ATOM     10  O   UNL d   1      52.322  29.226  53.451  0.00  0.00    -0.245 OA
ATOM     11  O   UNL d   1      54.472  31.019  53.595  0.00  0.00    -0.265 OA
ATOM     12  C   UNL d   1      51.325  30.449  53.141  0.00  0.00     0.105 C 
ATOM     13  C   UNL d   1      53.915  29.494  53.683  0.00  0.00     0.107 C 
ENDROOT
BRANCH   6  14
ATOM     14  C   UNL d   1      53.585  33.376  53.169  0.00  0.00     0.084 C 
BRANCH  14  15
ATOM     15  C   UNL d   1      53.792  33.731  53.894  0.00  0.00     0.018 A 
ATOM     16  C   UNL d   1      54.499  33.510  54.256  0.00  0.00     0.002 A 
ATOM     17  C   UNL d   1      54.706  33.866  54.981  0.00  0.00     0.000 A 
ATOM     18  C   UNL d   1      55.354  33.795  55.507  0.00  0.00     0.000 C 
ATOM     19  C   UNL d   1      54.203  34.437  55.331  0.00  0.00     0.000 A 
ATOM     20  C   UNL d   1      53.501  34.639  54.946  0.00  0.00     0.000 A 
ATOM     21  C   UNL d   1      53.296  34.288  54.229  0.00  0.00     0.002 A 
ENDBRANCH  14  15
ENDBRANCH   6  14
BRANCH   9  22
ATOM     22  N   UNL d   1      51.667  33.292  52.861  0.00  0.00    -0.365 NA
BRANCH  22  23
ATOM     23  C   UNL d   1      51.142  33.828  52.497  0.00  0.00     0.164 C 
BRANCH  23  24
ATOM     24  C   UNL d   1      50.431  34.048  52.886  0.00  0.00     0.035 C 
ATOM     25  C   UNL d   1      49.929  34.624  52.553  0.00  0.00     0.003 C 
ENDBRANCH  23  24
ENDBRANCH  22  23
ENDBRANCH   9  22
TORSDOF 5
ENDMDL
MODEL 5
REMARK VINA RESULT:      -7.5      1.390      3.629
REMARK  5 active torsions:
REMARK  status: ('A' for Active; 'I' for Inactive)
REMARK    1  A    between atoms: C_10  and  N_6 
REMARK    2  A    between atoms: N_13  and  C_9 
REMARK    3  A    between atoms: C_14  and  C_10 
REMARK    4  A    between atoms: C_21  and  N_13 
REMARK    5  A    between atoms: C_24  and  C_21 
ROOT
ATOM      1  C   UNL d   1      53.212  32.662  53.777  0.00  0.00     0.176 A 
ATOM      2  C   UNL d   1      52.815  32.491  53.106  0.00  0.00     0.159 A 
ATOM      3  N   UNL d   1      53.282  33.417  54.036  0.00  0.00    -0.181 NA
ATOM      4  N   UNL d   1      53.553  32.068  54.211  0.00  0.00    -0.240 N 
ATOM      5  N   UNL d   1      53.092  31.136  53.288  0.00  0.00    -0.223 N 
ATOM      6  N   UNL d   1      52.540  33.833  52.925  0.00  0.00    -0.258 N 
ATOM      7  C   UNL d   1      53.495  31.310  53.971  0.00  0.00     0.343 A 
ATOM      8  C   UNL d   1      52.756  31.723  52.863  0.00  0.00     0.287 A 
ATOM      9  C   UNL d   1      52.952  33.999  53.619  0.00  0.00     0.292 A 
ATOM     10  O   UNL d   1      53.834  30.714  54.400  0.00  0.00    -0.245 OA
ATOM     11  O   UNL d   1      52.349  31.547  52.173  0.00  0.00    -0.265 OA
ATOM     12  C   UNL d   1      53.954  32.241  54.889  0.00  0.00     0.105 C 
ATOM     13  C   UNL d   1      53.027  30.344  53.030  0.00  0.00     0.107 C 
ENDROOT
BRANCH   6  14
ATOM     14  C   UNL d   1      52.104  34.088  52.273  0.00  0.00     0.084 C 
BRANCH  14  15
ATOM     15  C   UNL d   1      51.280  34.192  52.330  0.00  0.00     0.018 A 
ATOM     16  C   UNL d   1      50.835  34.222  51.636  0.00  0.00     0.002 A 
ATOM     17  C   UNL d   1      50.010  34.327  51.693  0.00  0.00     0.000 A 
ATOM     18  C   UNL d   1      49.385  34.385  51.139  0.00  0.00     0.000 C 
ATOM     19  C   UNL d   1      49.644  34.399  52.443  0.00  0.00     0.000 A 
ATOM     20  C   UNL d   1      50.114  34.365  53.122  0.00  0.00     0.000 A 
ATOM     21  C   UNL d   1      50.929  34.262  53.065  0.00  0.00     0.002 A 
ENDBRANCH  14  15
ENDBRANCH   6  14
BRANCH   9  22
ATOM     22  N   UNL d   1      53.010  34.756  53.859  0.00  0.00    -0.365 NA
BRANCH  22  23
ATOM     23  C   UNL d   1      53.292  35.509  54.082  0.00  0.00     0.164 C 
BRANCH  23  24
ATOM     24  C   UNL d   1      53.090  35.827  54.832  0.00  0.00     0.035 C 
ATOM     25  C   UNL d   1      53.123  36.649  54.964  0.00  0.00     0.003 C 
ENDBRANCH  23  24
ENDBRANCH  22  23
ENDBRANCH   9  22
TORSDOF 5
ENDMDL
MODEL 6
REMARK VINA RESULT:      -7.5      1.413      3.070
REMARK  5 active torsions:
REMARK  status: ('A' for Active; 'I' for Inactive)
REMARK    1  A    between atoms: C_10  and  N_6 
REMARK    2  A    between atoms: N_13  and  C_9 
REMARK    3  A    between atoms: C_14  and  C_10 
REMARK    4  A    between atoms: C_21  and  N_13 
REMARK    5  A    between atoms: C_24  and  C_21 
ROOT
ATOM      1  C   UNL d   1      52.255  33.852  53.562  0.00  0.00     0.176 A 
ATOM      2  C   UNL d   1      52.144  33.358  52.943  0.00  0.00     0.159 A 
ATOM      3  N   UNL d   1      52.850  33.734  54.084  0.00  0.00    -0.181 NA
ATOM      4  N   UNL d   1      51.761  34.486  53.669  0.00  0.00    -0.240 N 
ATOM      5  N   UNL d   1      51.050  34.119  52.532  0.00  0.00    -0.223 N 
ATOM      6  N   UNL d   1      53.228  32.604  53.351  0.00  0.00    -0.258 N 
ATOM      7  C   UNL d   1      51.163  34.621  53.160  0.00  0.00     0.343 A 
ATOM      8  C   UNL d   1      51.538  33.495  52.428  0.00  0.00     0.287 A 
ATOM      9  C   UNL d   1      53.333  33.120  53.985  0.00  0.00     0.292 A 
ATOM     10  O   UNL d   1      50.668  35.252  53.264  0.00  0.00    -0.245 OA
ATOM     11  O   UNL d   1      51.424  32.988  51.794  0.00  0.00    -0.265 OA
ATOM     12  C   UNL d   1      51.874  34.985  54.293  0.00  0.00     0.105 C 
ATOM     13  C   UNL d   1      50.425  34.255  51.995  0.00  0.00     0.107 C 
ENDROOT
BRANCH   6  14
ATOM     14  C   UNL d   1      53.458  31.936  52.925  0.00  0.00     0.084 C 
BRANCH  14  15
ATOM     15  C   UNL d   1      53.200  31.178  53.155  0.00  0.00     0.018 A 
ATOM     16  C   UNL d   1      53.683  30.726  53.646  0.00  0.00     0.002 A 
ATOM     17  C   UNL d   1      53.425  29.968  53.876  0.00  0.00     0.000 A 
ATOM     18  C   UNL d   1      53.743  29.358  54.353  0.00  0.00     0.000 C 
ATOM     19  C   UNL d   1      52.687  29.674  53.610  0.00  0.00     0.000 A 
ATOM     20  C   UNL d   1      52.222  30.148  53.118  0.00  0.00     0.000 A 
ATOM     21  C   UNL d   1      52.478  30.898  52.891  0.00  0.00     0.002 A 
ENDBRANCH  14  15
ENDBRANCH   6  14
BRANCH   9  22
ATOM     22  N   UNL d   1      53.932  32.984  54.494  0.00  0.00    -0.365 NA
BRANCH  22  23
ATOM     23  C   UNL d   1      54.476  33.030  55.124  0.00  0.00     0.164 C 
BRANCH  23  24
ATOM     24  C   UNL d   1      55.130  33.553  55.077  0.00  0.00     0.035 C 
ATOM     25  C   UNL d   1      55.430  33.916  55.764  0.00  0.00     0.003 C 
ENDBRANCH  23  24
ENDBRANCH  22  23
ENDBRANCH   9  22
TORSDOF 5
ENDMDL
MODEL 7
REMARK VINA RESULT:      -7.1      0.926      3.249
REMARK  5 active torsions:
REMARK  status: ('A' for Active; 'I' for Inactive)
REMARK    1  A    between atoms: C_10  and  N_6 
REMARK    2  A    between atoms: N_13  and  C_9 
REMARK    3  A    between atoms: C_14  and  C_10 
REMARK    4  A    between atoms: C_21  and  N_13 
REMARK    5  A    between atoms: C_24  and  C_21 
ROOT
ATOM      1  C   UNL d   1      53.734  33.202  54.192  0.00  0.00     0.176 A 
ATOM      2  C   UNL d   1      53.120  33.688  54.354  0.00  0.00     0.159 A 
ATOM      3  N   UNL d   1      53.628  32.525  53.780  0.00  0.00    -0.181 NA
ATOM      4  N   UNL d   1      54.480  33.393  54.447  0.00  0.00    -0.240 N 
ATOM      5  N   UNL d   1      53.983  34.556  55.024  0.00  0.00    -0.223 N 
ATOM      6  N   UNL d   1      52.265  32.828  53.691  0.00  0.00    -0.258 N 
ATOM      7  C   UNL d   1      54.607  34.062  54.859  0.00  0.00     0.343 A 
ATOM      8  C   UNL d   1      53.248  34.366  54.772  0.00  0.00     0.287 A 
ATOM      9  C   UNL d   1      52.905  32.335  53.530  0.00  0.00     0.292 A 
ATOM     10  O   UNL d   1      55.349  34.256  55.114  0.00  0.00    -0.245 OA
ATOM     11  O   UNL d   1      52.619  34.864  54.938  0.00  0.00    -0.265 OA
ATOM     12  C   UNL d   1      55.100  32.902  54.283  0.00  0.00     0.105 C 
ATOM     13  C   UNL d   1      54.108  35.260  55.456  0.00  0.00     0.107 C 
ENDROOT
BRANCH   6  14
ATOM     14  C   UNL d   1      51.460  32.999  53.634  0.00  0.00     0.084 C 
BRANCH  14  15
ATOM     15  C   UNL d   1      51.174  33.490  53.026  0.00  0.00     0.018 A 
ATOM     16  C   UNL d   1      50.447  33.867  53.129  0.00  0.00     0.002 A 
ATOM     17  C   UNL d   1      50.160  34.358  52.521  0.00  0.00     0.000 A 
ATOM     18  C   UNL d   1      49.472  34.822  52.415  0.00  0.00     0.000 C 
ATOM     19  C   UNL d   1      50.605  34.466  51.819  0.00  0.00     0.000 A 
ATOM     20  C   UNL d   1      51.330  34.077  51.742  0.00  0.00     0.000 A 
ATOM     21  C   UNL d   1      51.614  33.591  52.344  0.00  0.00     0.002 A 
ENDBRANCH  14  15
ENDBRANCH   6  14
BRANCH   9  22
ATOM     22  N   UNL d   1      52.778  31.665  53.118  0.00  0.00    -0.365 NA
BRANCH  22  23
ATOM     23  C   UNL d   1      52.868  30.937  52.720  0.00  0.00     0.164 C 
BRANCH  23  24
ATOM     24  C   UNL d   1      52.914  30.223  53.159  0.00  0.00     0.035 C 
ATOM     25  C   UNL d   1      52.665  29.503  52.820  0.00  0.00     0.003 C 
ENDBRANCH  23  24
ENDBRANCH  22  23
ENDBRANCH   9  22
TORSDOF 5
ENDMDL
