MODEL 1
REMARK VINA RESULT:      -9.7      0.000      0.000
REMARK  3 active torsions:
REMARK  status: ('A' for Active; 'I' for Inactive)
REMARK    1  A    between atoms: C_6  and  C_1 
REMARK    2  A    between atoms: C_7  and  C_2 
REMARK    3  A    between atoms: O_14  and  C_12 
ROOT
ATOM      1  C   UNL d   1      53.596  32.641  54.007  0.00  0.00     0.084 A 
ATOM      2  C   UNL d   1      53.039  33.183  53.730  0.00  0.00     0.105 A 
ATOM      3  C   UNL d   1      53.388  31.899  53.722  0.00  0.00     0.031 A 
ATOM      4  O   UNL d   1      52.487  32.774  53.272  0.00  0.00    -0.307 OA
ATOM      5  C   UNL d   1      52.707  31.981  53.271  0.00  0.00     0.100 A 
ATOM      6  C   UNL d   1      53.729  31.159  53.813  0.00  0.00     0.026 A 
ATOM      7  C   UNL d   1      52.362  31.323  52.908  0.00  0.00     0.027 A 
ATOM      8  C   UNL d   1      53.395  30.494  53.457  0.00  0.00     0.094 A 
ATOM      9  C   UNL d   1      52.703  30.577  52.998  0.00  0.00     0.026 A 
ENDROOT
BRANCH   2  10
ATOM     10  C   UNL d   1      53.039  33.998  53.886  0.00  0.00     0.023 A 
ATOM     11  C   UNL d   1      53.286  34.522  53.299  0.00  0.00     0.002 A 
ATOM     12  C   UNL d   1      53.286  35.322  53.448  0.00  0.00     0.000 A 
ATOM     13  C   UNL d   1      53.040  35.599  54.185  0.00  0.00     0.000 A 
ATOM     14  C   UNL d   1      52.794  35.061  54.765  0.00  0.00     0.000 A 
ATOM     15  C   UNL d   1      52.793  34.276  54.619  0.00  0.00     0.002 A 
ENDBRANCH   2  10
BRANCH   1  16
ATOM     16  C   UNL d   1      54.247  32.811  54.486  0.00  0.00     0.299 C 
ATOM     17  O   UNL d   1      54.958  33.033  54.147  0.00  0.00    -0.264 OA
ATOM     18  N   UNL d   1      54.189  32.760  55.300  0.00  0.00    -0.102 N 
ENDBRANCH   1  16
BRANCH   8  19
ATOM     19  O   UNL d   1      53.736  29.753  53.548  0.00  0.00    -0.328 OA
ATOM     20  C   UNL d   1      53.410  29.215  54.088  0.00  0.00     0.181 C 
ENDBRANCH   8  19
TORSDOF 3
ENDMDL
MODEL 2
REMARK VINA RESULT:      -9.3      0.999      3.620
REMARK  3 active torsions:
REMARK  status: ('A' for Active; 'I' for Inactive)
REMARK    1  A    between atoms: C_6  and  C_1 
REMARK    2  A    between atoms: C_7  and  C_2 
REMARK    3  A    between atoms: O_14  and  C_12 
ROOT
ATOM      1  C   UNL d   1      53.316  32.624  53.658  0.00  0.00     0.084 A 
ATOM      2  C   UNL d   1      52.808  32.036  53.382  0.00  0.00     0.105 A 
ATOM      3  C   UNL d   1      52.936  33.347  53.568  0.00  0.00     0.031 A 
ATOM      4  O   UNL d   1      52.113  32.398  53.121  0.00  0.00    -0.307 OA
ATOM      5  C   UNL d   1      52.198  33.209  53.239  0.00  0.00     0.100 A 
ATOM      6  C   UNL d   1      53.165  34.115  53.743  0.00  0.00     0.026 A 
ATOM      7  C   UNL d   1      51.682  33.836  53.081  0.00  0.00     0.027 A 
ATOM      8  C   UNL d   1      52.661  34.751  53.592  0.00  0.00     0.094 A 
ATOM      9  C   UNL d   1      51.910  34.609  53.256  0.00  0.00     0.026 A 
ENDROOT
BRANCH   2  10
ATOM     10  C   UNL d   1      52.970  31.224  53.370  0.00  0.00     0.023 A 
ATOM     11  C   UNL d   1      53.158  30.859  52.654  0.00  0.00     0.002 A 
ATOM     12  C   UNL d   1      53.319  30.061  52.638  0.00  0.00     0.000 A 
ATOM     13  C   UNL d   1      53.292  29.627  53.338  0.00  0.00     0.000 A 
ATOM     14  C   UNL d   1      53.102  30.005  54.051  0.00  0.00     0.000 A 
ATOM     15  C   UNL d   1      52.944  30.788  54.066  0.00  0.00     0.002 A 
ENDBRANCH   2  10
BRANCH   1  16
ATOM     16  C   UNL d   1      54.072  32.510  53.970  0.00  0.00     0.299 C 
ATOM     17  O   UNL d   1      54.722  32.491  53.472  0.00  0.00    -0.264 OA
ATOM     18  N   UNL d   1      54.180  32.416  54.774  0.00  0.00    -0.102 N 
ENDBRANCH   1  16
BRANCH   8  19
ATOM     19  O   UNL d   1      52.890  35.519  53.767  0.00  0.00    -0.328 OA
ATOM     20  C   UNL d   1      52.887  35.780  54.554  0.00  0.00     0.181 C 
ENDBRANCH   8  19
TORSDOF 3
ENDMDL
MODEL 3
REMARK VINA RESULT:      -9.1      1.193      3.927
REMARK  3 active torsions:
REMARK  status: ('A' for Active; 'I' for Inactive)
REMARK    1  A    between atoms: C_6  and  C_1 
REMARK    2  A    between atoms: C_7  and  C_2 
REMARK    3  A    between atoms: O_14  and  C_12 
ROOT
ATOM      1  C   UNL d   1      53.135  32.458  53.661  0.00  0.00     0.084 A 
ATOM      2  C   UNL d   1      53.532  31.785  53.925  0.00  0.00     0.105 A 
ATOM      3  C   UNL d   1      53.458  33.108  54.047  0.00  0.00     0.031 A 
ATOM      4  O   UNL d   1      54.101  32.021  54.476  0.00  0.00    -0.307 OA
ATOM      5  C   UNL d   1      54.050  32.840  54.547  0.00  0.00     0.100 A 
ATOM      6  C   UNL d   1      53.289  33.909  54.008  0.00  0.00     0.026 A 
ATOM      7  C   UNL d   1      54.480  33.371  55.013  0.00  0.00     0.027 A 
ATOM      8  C   UNL d   1      53.710  34.451  54.468  0.00  0.00     0.094 A 
ATOM      9  C   UNL d   1      54.313  34.178  54.976  0.00  0.00     0.026 A 
ENDROOT
BRANCH   2  10
ATOM     10  C   UNL d   1      53.383  31.008  53.679  0.00  0.00     0.023 A 
ATOM     11  C   UNL d   1      52.976  30.495  54.181  0.00  0.00     0.002 A 
ATOM     12  C   UNL d   1      52.827  29.731  53.942  0.00  0.00     0.000 A 
ATOM     13  C   UNL d   1      53.086  29.479  53.201  0.00  0.00     0.000 A 
ATOM     14  C   UNL d   1      53.494  30.004  52.707  0.00  0.00     0.000 A 
ATOM     15  C   UNL d   1      53.640  30.753  52.941  0.00  0.00     0.002 A 
ENDBRANCH   2  10
BRANCH   1  16
ATOM     16  C   UNL d   1      52.523  32.478  53.108  0.00  0.00     0.299 C 
ATOM     17  O   UNL d   1      52.694  32.537  52.309  0.00  0.00    -0.264 OA
ATOM     18  N   UNL d   1      51.743  32.439  53.349  0.00  0.00    -0.102 N 
ENDBRANCH   1  16
BRANCH   8  19
ATOM     19  O   UNL d   1      53.542  35.253  54.430  0.00  0.00    -0.328 OA
ATOM     20  C   UNL d   1      52.874  35.552  54.819  0.00  0.00     0.181 C 
ENDBRANCH   8  19
TORSDOF 3
ENDMDL
MODEL 4
REMARK VINA RESULT:      -9.1      2.051      3.289
REMARK  3 active torsions:
REMARK  status: ('A' for Active; 'I' for Inactive)
REMARK    1  A    between atoms: C_6  and  C_1 
REMARK    2  A    between atoms: C_7  and  C_2 
REMARK    3  A    between atoms: O_14  and  C_12 
ROOT
ATOM      1  C   UNL d   1      52.557  34.245  53.680  0.00  0.00     0.084 A 
ATOM      2  C   UNL d   1      52.911  33.540  53.921  0.00  0.00     0.105 A 
ATOM      3  C   UNL d   1      51.803  34.066  53.407  0.00  0.00     0.031 A 
ATOM      4  O   UNL d   1      52.374  32.926  53.796  0.00  0.00    -0.307 OA
ATOM      5  C   UNL d   1      51.691  33.257  53.478  0.00  0.00     0.100 A 
ATOM      6  C   UNL d   1      51.203  34.535  53.101  0.00  0.00     0.026 A 
ATOM      7  C   UNL d   1      50.978  32.909  53.245  0.00  0.00     0.027 A 
ATOM      8  C   UNL d   1      50.487  34.201  52.865  0.00  0.00     0.094 A 
ATOM      9  C   UNL d   1      50.372  33.378  52.937  0.00  0.00     0.026 A 
ENDROOT
BRANCH   2  10
ATOM     10  C   UNL d   1      53.675  33.466  54.235  0.00  0.00     0.023 A 
ATOM     11  C   UNL d   1      54.303  33.285  53.732  0.00  0.00     0.002 A 
ATOM     12  C   UNL d   1      55.055  33.211  54.036  0.00  0.00     0.000 A 
ATOM     13  C   UNL d   1      55.179  33.318  54.844  0.00  0.00     0.000 A 
ATOM     14  C   UNL d   1      54.539  33.500  55.339  0.00  0.00     0.000 A 
ATOM     15  C   UNL d   1      53.802  33.572  55.040  0.00  0.00     0.002 A 
ENDBRANCH   2  10
BRANCH   1  16
ATOM     16  C   UNL d   1      52.897  34.997  53.707  0.00  0.00     0.299 C 
ATOM     17  O   UNL d   1      53.322  35.278  53.067  0.00  0.00    -0.264 OA
ATOM     18  N   UNL d   1      52.813  35.468  54.370  0.00  0.00    -0.102 N 
ENDBRANCH   1  16
BRANCH   8  19
ATOM     19  O   UNL d   1      49.886  34.670  52.559  0.00  0.00    -0.328 OA
ATOM     20  C   UNL d   1      49.614  34.539  51.787  0.00  0.00     0.181 C 
ENDBRANCH   8  19
TORSDOF 3
ENDMDL
MODEL 5
REMARK VINA RESULT:      -8.9      1.902      2.862
REMARK  3 active torsions:
REMARK  status: ('A' for Active; 'I' for Inactive)
REMARK    1  A    between atoms: C_6  and  C_1 
REMARK    2  A    between atoms: C_7  and  C_2 
REMARK    3  A    between atoms: O_14  and  C_12 
ROOT
ATOM      1  C   UNL d   1      52.662  34.051  53.468  0.00  0.00     0.084 A 
ATOM      2  C   UNL d   1      52.070  33.586  53.131  0.00  0.00     0.105 A 
ATOM      3  C   UNL d   1      53.242  33.546  53.760  0.00  0.00     0.031 A 
ATOM      4  O   UNL d   1      52.285  32.793  53.217  0.00  0.00    -0.307 OA
ATOM      5  C   UNL d   1      53.010  32.775  53.606  0.00  0.00     0.100 A 
ATOM      6  C   UNL d   1      53.951  33.689  54.147  0.00  0.00     0.026 A 
ATOM      7  C   UNL d   1      53.485  32.139  53.837  0.00  0.00     0.027 A 
ATOM      8  C   UNL d   1      54.435  33.064  54.383  0.00  0.00     0.094 A 
ATOM      9  C   UNL d   1      54.199  32.279  54.227  0.00  0.00     0.026 A 
ENDROOT
BRANCH   2  10
ATOM     10  C   UNL d   1      51.379  33.869  52.770  0.00  0.00     0.023 A 
ATOM     11  C   UNL d   1      50.702  33.982  53.227  0.00  0.00     0.002 A 
ATOM     12  C   UNL d   1      50.022  34.261  52.876  0.00  0.00     0.000 A 
ATOM     13  C   UNL d   1      50.019  34.426  52.069  0.00  0.00     0.000 A 
ATOM     14  C   UNL d   1      50.706  34.308  51.622  0.00  0.00     0.000 A 
ATOM     15  C   UNL d   1      51.374  34.035  51.966  0.00  0.00     0.002 A 
ENDBRANCH   2  10
BRANCH   1  16
ATOM     16  C   UNL d   1      52.674  34.875  53.505  0.00  0.00     0.299 C 
ATOM     17  O   UNL d   1      52.994  35.309  52.889  0.00  0.00    -0.264 OA
ATOM     18  N   UNL d   1      52.369  35.266  54.155  0.00  0.00    -0.102 N 
ENDBRANCH   1  16
BRANCH   8  19
ATOM     19  O   UNL d   1      55.144  33.206  54.771  0.00  0.00    -0.328 OA
ATOM     20  C   UNL d   1      55.145  33.621  55.488  0.00  0.00     0.181 C 
ENDBRANCH   8  19
TORSDOF 3
ENDMDL
