MODEL 1
REMARK VINA RESULT:      97.5      0.000      0.000
REMARK  6 active torsions:
REMARK  status: ('A' for Active; 'I' for Inactive)
REMARK    1  A    between atoms: N_8  and  S_1 
REMARK    2  A    between atoms: C_12  and  S_1 
REMARK    3  A    between atoms: N_5  and  C_2 
REMARK    4  A    between atoms: C_4  and  O_9 
REMARK    5  A    between atoms: O_9  and  C_10 
REMARK    6  A    between atoms: C_10  and  C_16 
ROOT
ATOM      1  C   UNL d   1      61.865  46.464  49.585  0.00  0.00     0.104 A 
ATOM      2  C   UNL d   1      61.302  47.910  50.113  0.00  0.00     0.064 A 
ATOM      3  C   UNL d   1      61.723  46.584  50.381  0.00  0.00     0.013 A 
ATOM      4  C   UNL d   1      61.724  47.074  49.049  0.00  0.00     0.013 A 
ATOM      5  C   UNL d   1      61.438  47.317  50.651  0.00  0.00     0.006 A 
ATOM      6  C   UNL d   1      61.441  47.801  49.311  0.00  0.00     0.006 A 
ENDROOT
BRANCH   2   7
ATOM      7  C   UNL d   1      61.017  48.646  50.375  0.00  0.00     0.300 C 
ATOM      8  O   UNL d   1      61.542  49.249  50.541  0.00  0.00    -0.259 OA
BRANCH   7   9
ATOM      9  O   UNL d   1      60.203  48.759  50.466  0.00  0.00    -0.271 OA
BRANCH   9  10
ATOM     10  C   UNL d   1      59.898  49.074  51.165  0.00  0.00     0.132 A 
ATOM     11  C   UNL d   1      59.090  49.233  51.233  0.00  0.00     0.207 A 
ATOM     12  C   UNL d   1      58.785  49.548  51.932  0.00  0.00     0.303 A 
ATOM     13  O   UNL d   1      57.975  49.706  51.995  0.00  0.00    -0.263 OA
ATOM     14  N   UNL d   1      59.288  49.705  52.563  0.00  0.00    -0.206 NA
ATOM     15  C   UNL d   1      60.088  49.549  52.500  0.00  0.00     0.087 A 
ATOM     16  C   UNL d   1      60.393  49.234  51.801  0.00  0.00     0.046 A 
ATOM     17  C   UNL d   1      60.600  49.707  53.139  0.00  0.00     0.021 C 
BRANCH  11  18
ATOM     18  N   UNL d   1      58.587  49.074  50.593  0.00  0.00    -0.107 N 
ATOM     19  O   UNL d   1      58.319  48.302  50.469  0.00  0.00    -0.531 OA
ATOM     20  O   UNL d   1      58.357  49.681  50.084  0.00  0.00    -0.531 OA
ENDBRANCH  11  18
ENDBRANCH   9  10
ENDBRANCH   7   9
ENDBRANCH   2   7
BRANCH   1  21
ATOM     21  S   UNL d   1      62.145  45.747  49.311  0.00  0.00     0.271 S 
ATOM     22  O   UNL d   1      62.573  45.138  48.989  0.00  0.00    -0.200 OA
ATOM     23  O   UNL d   1      62.735  46.280  49.139  0.00  0.00    -0.200 OA
BRANCH  21  24
ATOM     24  N   UNL d   1      61.677  45.083  49.401  0.00  0.00    -0.229 N 
ATOM     25  C   UNL d   1      61.116  44.888  48.828  0.00  0.00     0.092 A 
ATOM     26  C   UNL d   1      60.658  44.223  48.933  0.00  0.00     0.020 A 
ATOM     27  C   UNL d   1      60.744  43.741  49.602  0.00  0.00     0.003 A 
ATOM     28  C   UNL d   1      61.300  43.941  50.165  0.00  0.00     0.020 A 
ATOM     29  C   UNL d   1      61.772  44.614  50.069  0.00  0.00     0.092 A 
ENDBRANCH  21  24
ENDBRANCH   1  21
TORSDOF 6
ENDMDL
MODEL 2
REMARK VINA RESULT:      99.3      1.488      2.272
REMARK  6 active torsions:
REMARK  status: ('A' for Active; 'I' for Inactive)
REMARK    1  A    between atoms: N_8  and  S_1 
REMARK    2  A    between atoms: C_12  and  S_1 
REMARK    3  A    between atoms: N_5  and  C_2 
REMARK    4  A    between atoms: C_4  and  O_9 
REMARK    5  A    between atoms: O_9  and  C_10 
REMARK    6  A    between atoms: C_10  and  C_16 
ROOT
ATOM      1  C   UNL d   1      61.713  44.938  49.658  0.00  0.00     0.104 A 
ATOM      2  C   UNL d   1      61.708  46.567  49.846  0.00  0.00     0.064 A 
ATOM      3  C   UNL d   1      61.190  45.291  50.177  0.00  0.00     0.013 A 
ATOM      4  C   UNL d   1      62.239  45.407  49.229  0.00  0.00     0.013 A 
ATOM      5  C   UNL d   1      61.185  46.116  50.275  0.00  0.00     0.006 A 
ATOM      6  C   UNL d   1      62.238  46.224  49.322  0.00  0.00     0.006 A 
ENDROOT
BRANCH   2   7
ATOM      7  C   UNL d   1      61.710  47.393  49.938  0.00  0.00     0.300 C 
ATOM      8  O   UNL d   1      61.909  47.871  49.306  0.00  0.00    -0.259 OA
BRANCH   7   9
ATOM      9  O   UNL d   1      61.509  47.724  50.669  0.00  0.00    -0.271 OA
BRANCH   9  10
ATOM     10  C   UNL d   1      61.013  48.382  50.711  0.00  0.00     0.132 A 
ATOM     11  C   UNL d   1      60.821  48.713  51.443  0.00  0.00     0.207 A 
ATOM     12  C   UNL d   1      60.325  49.371  51.484  0.00  0.00     0.303 A 
ATOM     13  O   UNL d   1      60.135  49.699  52.220  0.00  0.00    -0.263 OA
ATOM     14  N   UNL d   1      60.021  49.698  50.794  0.00  0.00    -0.206 NA
ATOM     15  C   UNL d   1      60.209  49.374  50.068  0.00  0.00     0.087 A 
ATOM     16  C   UNL d   1      60.705  48.715  50.026  0.00  0.00     0.046 A 
ATOM     17  C   UNL d   1      59.902  49.704  49.366  0.00  0.00     0.021 C 
BRANCH  11  18
ATOM     18  N   UNL d   1      61.130  48.379  52.136  0.00  0.00    -0.107 N 
ATOM     19  O   UNL d   1      61.741  48.765  52.536  0.00  0.00    -0.531 OA
ATOM     20  O   UNL d   1      60.828  47.667  52.424  0.00  0.00    -0.531 OA
ENDBRANCH  11  18
ENDBRANCH   9  10
ENDBRANCH   7   9
ENDBRANCH   2   7
BRANCH   1  21
ATOM     21  S   UNL d   1      61.724  44.128  49.557  0.00  0.00     0.271 S 
ATOM     22  O   UNL d   1      61.646  43.364  49.295  0.00  0.00    -0.200 OA
ATOM     23  O   UNL d   1      61.349  44.415  48.894  0.00  0.00    -0.200 OA
BRANCH  21  24
ATOM     24  N   UNL d   1      62.068  43.666  50.136  0.00  0.00    -0.229 N 
ATOM     25  C   UNL d   1      62.829  43.364  50.031  0.00  0.00     0.092 A 
ATOM     26  C   UNL d   1      63.157  42.905  50.618  0.00  0.00     0.020 A 
ATOM     27  C   UNL d   1      62.743  42.736  51.316  0.00  0.00     0.003 A 
ATOM     28  C   UNL d   1      61.991  43.038  51.413  0.00  0.00     0.020 A 
ATOM     29  C   UNL d   1      61.647  43.505  50.823  0.00  0.00     0.092 A 
ENDBRANCH  21  24
ENDBRANCH   1  21
TORSDOF 6
ENDMDL
