MODEL 1
REMARK VINA RESULT:      -2.1      0.000      0.000
REMARK  4 active torsions:
REMARK  status: ('A' for Active; 'I' for Inactive)
REMARK    1  A    between atoms: C_9  and  C_1 
REMARK    2  A    between atoms: C_8  and  C_6 
REMARK    3  A    between atoms: C_14  and  C_9 
REMARK    4  A    between atoms: C_15  and  C_10 
ROOT
ATOM      1  C   UNL d   1      30.343  16.499 -24.394  0.00  0.00     0.089 A 
ATOM      2  C   UNL d   1      31.560  16.960 -24.098  0.00  0.00     0.048 A 
ATOM      3  C   UNL d   1      31.077  16.289 -24.109  0.00  0.00     0.114 A 
ATOM      4  C   UNL d   1      31.108  17.590 -24.383  0.00  0.00     0.112 A 
ATOM      5  S   UNL d   1      30.353  17.300 -24.566  0.00  0.00    -0.063 SA
ATOM      6  C   UNL d   1      32.345  17.083 -23.870  0.00  0.00     0.076 A 
ATOM      7  N   UNL d   1      31.447  18.335 -24.436  0.00  0.00    -0.239 NA
ATOM      8  C   UNL d   1      32.220  18.464 -24.213  0.00  0.00     0.082 A 
ATOM      9  C   UNL d   1      32.672  17.834 -23.928  0.00  0.00     0.023 A 
ATOM     10  N   UNL d   1      31.314  15.525 -23.864  0.00  0.00    -0.147 N 
ENDROOT
BRANCH   1  11
ATOM     11  C   UNL d   1      29.702  15.995 -24.492  0.00  0.00     0.203 C 
ATOM     12  O   UNL d   1      29.695  15.460 -25.092  0.00  0.00    -0.286 OA
BRANCH  11  13
ATOM     13  C   UNL d   1      29.063  16.044 -23.966  0.00  0.00     0.040 A 
ATOM     14  C   UNL d   1      28.475  16.611 -24.061  0.00  0.00     0.003 A 
ATOM     15  C   UNL d   1      27.852  16.653 -23.540  0.00  0.00     0.000 A 
ATOM     16  C   UNL d   1      27.806  16.114 -22.899  0.00  0.00     0.000 A 
ATOM     17  C   UNL d   1      28.385  15.551 -22.801  0.00  0.00     0.000 A 
ATOM     18  C   UNL d   1      29.018  15.505 -23.325  0.00  0.00     0.003 A 
ENDBRANCH  11  13
ENDBRANCH   1  11
BRANCH   6  19
ATOM     19  C   UNL d   1      32.796  16.454 -23.585  0.00  0.00     0.419 C 
ATOM     20  F   UNL d   1      33.241  15.834 -23.305  0.00  0.00    -0.166 F 
ATOM     21  F   UNL d   1      32.529  16.611 -22.815  0.00  0.00    -0.166 F 
ATOM     22  F   UNL d   1      33.061  16.299 -24.348  0.00  0.00    -0.166 F 
ENDBRANCH   6  19
BRANCH   8  23
ATOM     23  C   UNL d   1      32.560  19.210 -24.265  0.00  0.00     0.018 A 
ATOM     24  C   UNL d   1      32.594  19.688 -23.589  0.00  0.00     0.002 A 
ATOM     25  C   UNL d   1      32.932  20.443 -23.617  0.00  0.00     0.000 A 
ATOM     26  C   UNL d   1      33.241  20.717 -24.348  0.00  0.00     0.000 A 
ATOM     27  C   UNL d   1      33.207  20.239 -25.025  0.00  0.00     0.000 A 
ATOM     28  C   UNL d   1      32.864  19.489 -24.969  0.00  0.00     0.002 A 
ENDBRANCH   8  23
TORSDOF 4
ENDMDL
