MODEL 1
REMARK VINA RESULT:       8.9      0.000      0.000
REMARK  11 active torsions:
REMARK  status: ('A' for Active; 'I' for Inactive)
REMARK    1  A    between atoms: C_14  and  C_3 
REMARK    2  A    between atoms: N_15  and  C_6 
REMARK    3  A    between atoms: N_12  and  C_19 
REMARK    4  A    between atoms: N_13  and  C_20 
REMARK    5  A    between atoms: N_16  and  C_14 
REMARK    6  A    between atoms: C_28  and  N_15 
REMARK    7  A    between atoms: C_23  and  N_16 
REMARK    8  A    between atoms: C_19  and  C_21 
REMARK    9  A    between atoms: C_20  and  C_22 
REMARK   10  A    between atoms: C_21  and  C_23 
REMARK   11  A    between atoms: C_22  and  C_28 
ROOT
ATOM      1  N   UNL d   1     -41.136-120.501 -51.431  0.00  0.00    -0.258 N 
ATOM      2  C   UNL d   1     -41.134-121.267 -51.101  0.00  0.00     0.270 A 
ATOM      3  C   UNL d   1     -41.142-121.923 -51.583  0.00  0.00     0.111 A 
ATOM      4  N   UNL d   1     -41.155-121.093 -52.730  0.00  0.00    -0.209 NA
ATOM      5  C   UNL d   1     -41.147-120.413 -52.251  0.00  0.00     0.152 A 
ATOM      6  C   UNL d   1     -41.152-121.835 -52.403  0.00  0.00     0.170 A 
ATOM      7  C   UNL d   1     -41.128-119.852 -50.950  0.00  0.00     0.084 A 
ATOM      8  C   UNL d   1     -41.149-119.678 -52.579  0.00  0.00     0.038 A 
ATOM      9  C   UNL d   1     -41.131-119.091 -51.280  0.00  0.00     0.018 A 
ATOM     10  C   UNL d   1     -41.141-119.003 -52.100  0.00  0.00     0.005 A 
ATOM     11  O   UNL d   1     -41.123-121.356 -50.269  0.00  0.00    -0.266 OA
ATOM     12  C   UNL d   1     -41.123-118.424 -50.797  0.00  0.00     0.002 C 
ENDROOT
BRANCH   3  13
ATOM     13  C   UNL d   1     -41.140-122.677 -51.252  0.00  0.00     0.107 C 
BRANCH  13  14
ATOM     14  N   UNL d   1     -41.569-122.824 -50.549  0.00  0.00    -0.242 NA
BRANCH  14  15
ATOM     15  C   UNL d   1     -41.449-123.526 -50.134  0.00  0.00     0.101 C 
BRANCH  15  16
ATOM     16  C   UNL d   1     -41.605-123.556 -49.331  0.00  0.00     0.040 C 
BRANCH  16  17
ATOM     17  C   UNL d   1     -42.398-123.511 -49.048  0.00  0.00     0.082 C 
BRANCH  17  18
ATOM     18  N   UNL d   1     -42.549-123.323 -48.265  0.00  0.00    -0.299 N 
ATOM     19  C   UNL d   1     -42.216-122.660 -47.931  0.00  0.00     0.107 A 
ATOM     20  C   UNL d   1     -42.370-122.467 -47.132  0.00  0.00     0.142 A 
ATOM     21  O   UNL d   1     -42.855-122.942 -46.683  0.00  0.00    -0.300 OA
ATOM     22  C   UNL d   1     -43.200-123.627 -47.025  0.00  0.00     0.142 A 
ATOM     23  C   UNL d   1     -43.048-123.817 -47.814  0.00  0.00     0.107 A 
ENDBRANCH  17  18
ENDBRANCH  16  17
ENDBRANCH  15  16
ENDBRANCH  14  15
ENDBRANCH  13  14
ENDBRANCH   3  13
BRANCH   6  24
ATOM     24  N   UNL d   1     -41.160-122.503 -52.881  0.00  0.00    -0.225 NA
BRANCH  24  25
ATOM     25  C   UNL d   1     -41.569-122.481 -53.618  0.00  0.00     0.102 C 
BRANCH  25  26
ATOM     26  C   UNL d   1     -41.166-122.665 -54.309  0.00  0.00     0.040 C 
BRANCH  26  27
ATOM     27  C   UNL d   1     -41.565-123.081 -54.924  0.00  0.00     0.082 C 
BRANCH  27  28
ATOM     28  N   UNL d   1     -42.037-122.652 -55.452  0.00  0.00    -0.299 N 
ATOM     29  C   UNL d   1     -41.670-122.117 -55.971  0.00  0.00     0.107 A 
ATOM     30  C   UNL d   1     -42.110-121.677 -56.505  0.00  0.00     0.142 A 
ATOM     31  O   UNL d   1     -42.934-121.779 -56.517  0.00  0.00    -0.300 OA
ATOM     32  C   UNL d   1     -43.299-122.310 -56.002  0.00  0.00     0.142 A 
ATOM     33  C   UNL d   1     -42.839-122.740 -55.475  0.00  0.00     0.107 A 
ENDBRANCH  27  28
ENDBRANCH  26  27
ENDBRANCH  25  26
ENDBRANCH  24  25
ENDBRANCH   6  24
TORSDOF 11
ENDMDL
