MODEL 1
REMARK VINA RESULT:      -7.5      0.000      0.000
REMARK  3 active torsions:
REMARK  status: ('A' for Active; 'I' for Inactive)
REMARK       I    between atoms: N_2  and  C_1 
REMARK    1  A    between atoms: C_8  and  C_1 
REMARK    2  A    between atoms: C_6  and  N_2 
REMARK    3  A    between atoms: N_4  and  C_8 
ROOT
ATOM      1  N   UNL d   1     -49.747  11.273  23.690  0.00  0.00    -0.191 NA
ATOM      2  C   UNL d   1     -49.926  11.901  23.233  0.00  0.00     0.102 C 
ATOM      3  C   UNL d   1     -49.593  13.194  22.733  0.00  0.00     0.094 A 
ATOM      4  C   UNL d   1     -50.112  12.543  22.762  0.00  0.00     0.086 A 
ATOM      5  C   UNL d   1     -50.810  12.559  22.311  0.00  0.00     0.012 A 
ATOM      6  C   UNL d   1     -49.775  13.838  22.264  0.00  0.00     0.020 A 
ATOM      7  C   UNL d   1     -50.988  13.215  21.838  0.00  0.00     0.001 A 
ATOM      8  C   UNL d   1     -50.472  13.850  21.816  0.00  0.00     0.002 A 
ENDROOT
BRANCH   3   9
ATOM      9  N   UNL d   1     -48.900  13.182  23.178  0.00  0.00    -0.206 NA
ATOM     10  C   UNL d   1     -48.306  13.696  22.968  0.00  0.00     0.297 C 
ATOM     11  O   UNL d   1     -48.402  14.212  22.325  0.00  0.00    -0.264 OA
BRANCH  10  12
ATOM     12  C   UNL d   1     -47.585  13.722  23.388  0.00  0.00     0.144 C 
BRANCH  12  13
ATOM     13  N   UNL d   1     -46.874  13.550  23.035  0.00  0.00    -0.299 N 
ATOM     14  C   UNL d   1     -46.571  12.796  23.051  0.00  0.00     0.080 A 
ATOM     15  C   UNL d   1     -45.850  12.627  22.690  0.00  0.00     0.019 A 
ATOM     16  C   UNL d   1     -45.437  13.221  22.315  0.00  0.00     0.003 A 
ATOM     17  C   UNL d   1     -45.747  13.977  22.303  0.00  0.00     0.019 A 
ATOM     18  C   UNL d   1     -44.676  13.071  21.929  0.00  0.00     0.000 C 
ATOM     19  C   UNL d   1     -46.471  14.144  22.665  0.00  0.00     0.080 A 
ENDBRANCH  12  13
ENDBRANCH  10  12
ENDBRANCH   3   9
TORSDOF 3
ENDMDL
MODEL 2
REMARK VINA RESULT:      -6.8      1.378      1.973
REMARK  3 active torsions:
REMARK  status: ('A' for Active; 'I' for Inactive)
REMARK       I    between atoms: N_2  and  C_1 
REMARK    1  A    between atoms: C_8  and  C_1 
REMARK    2  A    between atoms: C_6  and  N_2 
REMARK    3  A    between atoms: N_4  and  C_8 
ROOT
ATOM      1  N   UNL d   1     -50.996  13.359  21.359  0.00  0.00    -0.191 NA
ATOM      2  C   UNL d   1     -50.759  13.895  21.899  0.00  0.00     0.102 C 
ATOM      3  C   UNL d   1     -49.710  14.506  22.647  0.00  0.00     0.094 A 
ATOM      4  C   UNL d   1     -50.518  14.446  22.453  0.00  0.00     0.086 A 
ATOM      5  C   UNL d   1     -51.064  14.947  22.827  0.00  0.00     0.012 A 
ATOM      6  C   UNL d   1     -49.465  15.055  23.200  0.00  0.00     0.020 A 
ATOM      7  C   UNL d   1     -50.809  15.502  23.387  0.00  0.00     0.001 A 
ATOM      8  C   UNL d   1     -50.013  15.554  23.571  0.00  0.00     0.002 A 
ENDROOT
BRANCH   3   9
ATOM      9  N   UNL d   1     -49.165  14.011  22.278  0.00  0.00    -0.206 NA
ATOM     10  C   UNL d   1     -48.378  14.211  22.326  0.00  0.00     0.297 C 
ATOM     11  O   UNL d   1     -48.141  14.893  22.734  0.00  0.00    -0.264 OA
BRANCH  10  12
ATOM     12  C   UNL d   1     -47.788  13.741  21.968  0.00  0.00     0.144 C 
BRANCH  12  13
ATOM     13  N   UNL d   1     -47.349  13.205  22.393  0.00  0.00    -0.299 N 
ATOM     14  C   UNL d   1     -46.604  13.393  22.658  0.00  0.00     0.080 A 
ATOM     15  C   UNL d   1     -46.163  12.846  23.088  0.00  0.00     0.019 A 
ATOM     16  C   UNL d   1     -46.476  12.111  23.248  0.00  0.00     0.003 A 
ATOM     17  C   UNL d   1     -47.226  11.928  22.978  0.00  0.00     0.019 A 
ATOM     18  C   UNL d   1     -46.035  11.517  23.698  0.00  0.00     0.000 C 
ATOM     19  C   UNL d   1     -47.666  12.479  22.547  0.00  0.00     0.080 A 
ENDBRANCH  12  13
ENDBRANCH  10  12
ENDBRANCH   3   9
TORSDOF 3
ENDMDL
MODEL 3
REMARK VINA RESULT:      -6.1      8.380      9.367
REMARK  3 active torsions:
REMARK  status: ('A' for Active; 'I' for Inactive)
REMARK       I    between atoms: N_2  and  C_1 
REMARK    1  A    between atoms: C_8  and  C_1 
REMARK    2  A    between atoms: C_6  and  N_2 
REMARK    3  A    between atoms: N_4  and  C_8 
ROOT
ATOM      1  N   UNL d   1     -39.075  12.999  17.910  0.00  0.00    -0.191 NA
ATOM      2  C   UNL d   1     -39.493  13.658  17.749  0.00  0.00     0.102 C 
ATOM      3  C   UNL d   1     -40.377  14.691  18.181  0.00  0.00     0.094 A 
ATOM      4  C   UNL d   1     -39.921  14.335  17.581  0.00  0.00     0.086 A 
ATOM      5  C   UNL d   1     -39.908  14.674  16.824  0.00  0.00     0.012 A 
ATOM      6  C   UNL d   1     -40.806  15.367  18.017  0.00  0.00     0.020 A 
ATOM      7  C   UNL d   1     -40.346  15.360  16.664  0.00  0.00     0.001 A 
ATOM      8  C   UNL d   1     -40.791  15.703  17.260  0.00  0.00     0.002 A 
ENDROOT
BRANCH   3   9
ATOM      9  N   UNL d   1     -40.392  14.357  18.933  0.00  0.00    -0.206 NA
ATOM     10  C   UNL d   1     -40.623  14.830  19.553  0.00  0.00     0.297 C 
ATOM     11  O   UNL d   1     -40.835  15.621  19.423  0.00  0.00    -0.264 OA
BRANCH  10  12
ATOM     12  C   UNL d   1     -40.654  14.537  20.335  0.00  0.00     0.144 C 
BRANCH  12  13
ATOM     13  N   UNL d   1     -40.206  14.857  20.932  0.00  0.00    -0.299 N 
ATOM     14  C   UNL d   1     -40.376  15.592  21.235  0.00  0.00     0.080 A 
ATOM     15  C   UNL d   1     -39.918  15.911  21.841  0.00  0.00     0.019 A 
ATOM     16  C   UNL d   1     -39.290  15.487  22.138  0.00  0.00     0.003 A 
ATOM     17  C   UNL d   1     -39.124  14.749  21.830  0.00  0.00     0.019 A 
ATOM     18  C   UNL d   1     -38.792  15.799  22.775  0.00  0.00     0.000 C 
ATOM     19  C   UNL d   1     -39.585  14.430  21.222  0.00  0.00     0.080 A 
ENDBRANCH  12  13
ENDBRANCH  10  12
ENDBRANCH   3   9
TORSDOF 3
ENDMDL
MODEL 4
REMARK VINA RESULT:      -6.0      8.639      9.728
REMARK  3 active torsions:
REMARK  status: ('A' for Active; 'I' for Inactive)
REMARK       I    between atoms: N_2  and  C_1 
REMARK    1  A    between atoms: C_8  and  C_1 
REMARK    2  A    between atoms: C_6  and  N_2 
REMARK    3  A    between atoms: N_4  and  C_8 
ROOT
ATOM      1  N   UNL d   1     -41.486  15.696  16.968  0.00  0.00    -0.191 NA
ATOM      2  C   UNL d   1     -40.820  15.259  16.996  0.00  0.00     0.102 C 
ATOM      3  C   UNL d   1     -39.928  14.419  17.727  0.00  0.00     0.094 A 
ATOM      4  C   UNL d   1     -40.135  14.811  17.021  0.00  0.00     0.086 A 
ATOM      5  C   UNL d   1     -39.643  14.741  16.357  0.00  0.00     0.012 A 
ATOM      6  C   UNL d   1     -39.246  13.971  17.757  0.00  0.00     0.020 A 
ATOM      7  C   UNL d   1     -38.952  14.285  16.394  0.00  0.00     0.001 A 
ATOM      8  C   UNL d   1     -38.756  13.903  17.091  0.00  0.00     0.002 A 
ENDROOT
BRANCH   3   9
ATOM      9  N   UNL d   1     -40.414  14.487  18.388  0.00  0.00    -0.206 NA
ATOM     10  C   UNL d   1     -40.095  14.306  19.114  0.00  0.00     0.297 C 
ATOM     11  O   UNL d   1     -39.305  14.063  19.177  0.00  0.00    -0.264 OA
BRANCH  10  12
ATOM     12  C   UNL d   1     -40.548  14.360  19.813  0.00  0.00     0.144 C 
BRANCH  12  13
ATOM     13  N   UNL d   1     -40.272  14.739  20.477  0.00  0.00    -0.299 N 
ATOM     14  C   UNL d   1     -40.359  15.542  20.565  0.00  0.00     0.080 A 
ATOM     15  C   UNL d   1     -40.078  15.922  21.240  0.00  0.00     0.019 A 
ATOM     16  C   UNL d   1     -39.709  15.488  21.823  0.00  0.00     0.003 A 
ATOM     17  C   UNL d   1     -39.624  14.681  21.728  0.00  0.00     0.019 A 
ATOM     18  C   UNL d   1     -39.403  15.861  22.542  0.00  0.00     0.000 C 
ATOM     19  C   UNL d   1     -39.907  14.302  21.049  0.00  0.00     0.080 A 
ENDBRANCH  12  13
ENDBRANCH  10  12
ENDBRANCH   3   9
TORSDOF 3
ENDMDL
MODEL 5
REMARK VINA RESULT:      -5.7      8.595      9.827
REMARK  3 active torsions:
REMARK  status: ('A' for Active; 'I' for Inactive)
REMARK       I    between atoms: N_2  and  C_1 
REMARK    1  A    between atoms: C_8  and  C_1 
REMARK    2  A    between atoms: C_6  and  N_2 
REMARK    3  A    between atoms: N_4  and  C_8 
ROOT
ATOM      1  N   UNL d   1     -38.445  13.565  21.039  0.00  0.00    -0.191 NA
ATOM      2  C   UNL d   1     -38.996  14.140  21.019  0.00  0.00     0.102 C 
ATOM      3  C   UNL d   1     -40.052  14.810  20.332  0.00  0.00     0.094 A 
ATOM      4  C   UNL d   1     -39.560  14.732  21.001  0.00  0.00     0.086 A 
ATOM      5  C   UNL d   1     -39.653  15.258  21.637  0.00  0.00     0.012 A 
ATOM      6  C   UNL d   1     -40.617  15.399  20.310  0.00  0.00     0.020 A 
ATOM      7  C   UNL d   1     -40.228  15.854  21.609  0.00  0.00     0.001 A 
ATOM      8  C   UNL d   1     -40.707  15.922  20.948  0.00  0.00     0.002 A 
ENDROOT
BRANCH   3   9
ATOM      9  N   UNL d   1     -39.963  14.291  19.700  0.00  0.00    -0.206 NA
ATOM     10  C   UNL d   1     -40.268  14.515  18.980  0.00  0.00     0.297 C 
ATOM     11  O   UNL d   1     -40.654  15.244  18.895  0.00  0.00    -0.264 OA
BRANCH  10  12
ATOM     12  C   UNL d   1     -40.203  14.023  18.308  0.00  0.00     0.144 C 
BRANCH  12  13
ATOM     13  N   UNL d   1     -39.727  14.215  17.678  0.00  0.00    -0.299 N 
ATOM     14  C   UNL d   1     -39.902  14.849  17.201  0.00  0.00     0.080 A 
ATOM     15  C   UNL d   1     -39.416  15.039  16.563  0.00  0.00     0.019 A 
ATOM     16  C   UNL d   1     -38.755  14.588  16.411  0.00  0.00     0.003 A 
ATOM     17  C   UNL d   1     -38.585  13.952  16.894  0.00  0.00     0.019 A 
ATOM     18  C   UNL d   1     -38.227  14.765  15.747  0.00  0.00     0.000 C 
ATOM     19  C   UNL d   1     -39.074  13.763  17.534  0.00  0.00     0.080 A 
ENDBRANCH  12  13
ENDBRANCH  10  12
ENDBRANCH   3   9
TORSDOF 3
ENDMDL
