MODEL 1
REMARK VINA RESULT:      33.2      0.000      0.000
REMARK  5 active torsions:
REMARK  status: ('A' for Active; 'I' for Inactive)
REMARK    1  A    between atoms: C_7  and  C_1 
REMARK    2  A    between atoms: N_8  and  C_7 
REMARK    3  A    between atoms: C_9  and  N_8 
REMARK    4  A    between atoms: O_17  and  C_13 
REMARK    5  A    between atoms: O_20  and  C_15 
ROOT
ATOM      1  C   UNL d   1      13.561  12.945  -3.045  0.00  0.00     0.145 A 
ATOM      2  C   UNL d   1      13.178  12.217  -3.122  0.00  0.00     0.305 A 
ATOM      3  C   UNL d   1      13.755  13.382  -3.715  0.00  0.00     0.305 A 
ATOM      4  O   UNL d   1      13.566  13.093  -4.463  0.00  0.00    -0.269 OA
ATOM      5  O   UNL d   1      12.994  11.936  -3.867  0.00  0.00    -0.269 OA
ATOM      6  C   UNL d   1      13.188  12.373  -4.537  0.00  0.00     0.242 A 
ATOM      7  O   UNL d   1      14.142  14.118  -3.641  0.00  0.00    -0.259 OA
ATOM      8  O   UNL d   1      12.984  11.780  -2.452  0.00  0.00    -0.259 OA
ATOM      9  C   UNL d   1      13.520  13.044  -4.881  0.00  0.00     0.035 A 
ATOM     10  C   UNL d   1      12.855  11.780  -5.021  0.00  0.00     0.035 A 
ATOM     11  C   UNL d   1      12.858  11.866  -5.841  0.00  0.00     0.001 A 
ATOM     12  C   UNL d   1      13.525  13.132  -5.700  0.00  0.00     0.001 A 
ATOM     13  C   UNL d   1      13.191  12.538  -6.183  0.00  0.00    -0.000 A 
ENDROOT
BRANCH   1  14
ATOM     14  C   UNL d   1      13.751  13.237  -2.291  0.00  0.00     0.110 C 
BRANCH  14  15
ATOM     15  N   UNL d   1      14.448  12.999  -1.919  0.00  0.00    -0.242 NA
BRANCH  15  16
ATOM     16  C   UNL d   1      14.747  13.439  -1.289  0.00  0.00     0.106 A 
ATOM     17  C   UNL d   1      14.694  14.260  -1.297  0.00  0.00     0.045 A 
ATOM     18  C   UNL d   1      14.990  14.699  -0.673  0.00  0.00     0.096 A 
ATOM     19  C   UNL d   1      15.347  14.314  -0.024  0.00  0.00     0.026 A 
ATOM     20  C   UNL d   1      15.399  13.492  -0.016  0.00  0.00     0.028 A 
ATOM     21  C   UNL d   1      15.099  13.053  -0.650  0.00  0.00     0.112 A 
BRANCH  18  22
ATOM     22  O   UNL d   1      14.935  15.518  -0.684  0.00  0.00    -0.328 OA
ATOM     23  C   UNL d   1      15.209  15.945  -1.334  0.00  0.00     0.181 C 
ENDBRANCH  18  22
BRANCH  21  24
ATOM     24  O   UNL d   1      15.151  12.231  -0.643  0.00  0.00    -0.327 OA
ATOM     25  C   UNL d   1      14.617  11.789  -0.206  0.00  0.00     0.181 C 
ENDBRANCH  21  24
ENDBRANCH  15  16
ENDBRANCH  14  15
ENDBRANCH   1  14
TORSDOF 5
ENDMDL
