MODEL 1
REMARK VINA RESULT:      58.8      0.000      0.000
REMARK  3 active torsions:
REMARK  status: ('A' for Active; 'I' for Inactive)
REMARK    1  A    between atoms: N_10  and  C_3 
REMARK    2  A    between atoms: C_11  and  C_5 
REMARK    3  A    between atoms: C_12  and  N_10 
ROOT
ATOM      1  N   UNL d   1      14.092  14.126  -2.892  0.00  0.00    -0.184 N 
ATOM      2  C   UNL d   1      14.174  13.495  -2.345  0.00  0.00     0.168 A 
ATOM      3  C   UNL d   1      13.758  13.983  -3.635  0.00  0.00     0.217 A 
ATOM      4  N   UNL d   1      14.672  15.016  -1.951  0.00  0.00    -0.162 NA
ATOM      5  C   UNL d   1      14.500  13.634  -1.620  0.00  0.00     0.055 A 
ATOM      6  N   UNL d   1      13.920  12.743  -2.561  0.00  0.00    -0.227 NA
ATOM      7  C   UNL d   1      13.511  13.235  -3.833  0.00  0.00     0.066 A 
ATOM      8  C   UNL d   1      14.753  14.395  -1.413  0.00  0.00     0.104 A 
ATOM      9  C   UNL d   1      13.590  12.598  -3.292  0.00  0.00     0.087 A 
ATOM     10  C   UNL d   1      13.171  12.930  -4.503  0.00  0.00     0.006 A 
ATOM     11  C   UNL d   1      15.082  14.527  -0.676  0.00  0.00     0.023 C 
ATOM     12  C   UNL d   1      13.297  11.919  -3.643  0.00  0.00     0.019 A 
ATOM     13  C   UNL d   1      13.035  12.131  -4.402  0.00  0.00     0.002 A 
ENDROOT
BRANCH   3  14
ATOM     14  N   UNL d   1      13.673  14.617  -4.189  0.00  0.00    -0.383 NA
BRANCH  14  15
ATOM     15  C   UNL d   1      13.588  15.253  -4.738  0.00  0.00     0.134 A 
ATOM     16  C   UNL d   1      14.238  15.785  -4.877  0.00  0.00     0.034 A 
ATOM     17  C   UNL d   1      14.149  16.419  -5.426  0.00  0.00     0.032 A 
ATOM     18  C   UNL d   1      13.423  16.528  -5.835  0.00  0.00     0.140 A 
ATOM     19  C   UNL d   1      12.779  15.994  -5.692  0.00  0.00     0.032 A 
ATOM     20  F   UNL d   1      13.334  17.165  -6.387  0.00  0.00    -0.204 F 
ATOM     21  C   UNL d   1      12.854  15.360  -5.148  0.00  0.00     0.034 A 
ENDBRANCH  14  15
ENDBRANCH   3  14
BRANCH   5  22
ATOM     22  C   UNL d   1      14.581  13.016  -1.085  0.00  0.00     0.004 A 
ATOM     23  C   UNL d   1      15.272  12.572  -1.069  0.00  0.00     0.000 A 
ATOM     24  C   UNL d   1      15.356  11.955  -0.537  0.00  0.00     0.000 A 
ATOM     25  C   UNL d   1      14.743  11.779  -0.014  0.00  0.00     0.000 A 
ATOM     26  C   UNL d   1      14.058  12.213  -0.024  0.00  0.00     0.000 A 
ATOM     27  C   UNL d   1      13.977  12.838  -0.565  0.00  0.00     0.000 A 
ENDBRANCH   5  22
TORSDOF 3
ENDMDL
