MODEL 1
REMARK VINA RESULT:      17.7      0.000      0.000
REMARK  5 active torsions:
REMARK  status: ('A' for Active; 'I' for Inactive)
REMARK    1  A    between atoms: N_7  and  C_1 
REMARK    2  A    between atoms: O_17  and  C_5 
REMARK    3  A    between atoms: C_10  and  N_7 
REMARK    4  A    between atoms: O_18  and  C_8 
REMARK    5  A    between atoms: O_19  and  C_9 
ROOT
ATOM      1  C   UNL d   1      46.408 -19.118  43.330  0.00  0.00     0.139 A 
ATOM      2  C   UNL d   1      46.549 -18.959  44.127  0.00  0.00     0.120 A 
ATOM      3  C   UNL d   1      46.311 -18.483  42.794  0.00  0.00     0.120 A 
ATOM      4  C   UNL d   1      46.497 -17.559  43.858  0.00  0.00     0.087 A 
ATOM      5  C   UNL d   1      46.356 -17.704  43.062  0.00  0.00     0.045 A 
ATOM      6  C   UNL d   1      46.596 -18.171  44.402  0.00  0.00     0.045 A 
ENDROOT
BRANCH   4   7
ATOM      7  N   UNL d   1      46.542 -16.772  44.124  0.00  0.00    -0.226 NA
BRANCH   7   8
ATOM      8  C   UNL d   1      45.870 -16.396  44.409  0.00  0.00     0.169 A 
ATOM      9  C   UNL d   1      45.825 -15.618  44.428  0.00  0.00     0.094 A 
ATOM     10  C   UNL d   1      45.181 -15.258  44.701  0.00  0.00     0.190 A 
ATOM     11  C   UNL d   1      46.397 -14.404  44.186  0.00  0.00     0.128 A 
ATOM     12  N   UNL d   1      45.150 -14.478  44.714  0.00  0.00    -0.128 NA
ATOM     13  N   UNL d   1      44.582 -15.675  44.955  0.00  0.00    -0.203 NA
ATOM     14  N   UNL d   1      45.743 -14.053  44.463  0.00  0.00    -0.145 NA
ATOM     15  C   UNL d   1      44.605 -16.470  44.945  0.00  0.00     0.202 A 
ATOM     16  N   UNL d   1      45.249 -16.831  44.672  0.00  0.00    -0.205 NA
ENDBRANCH   7   8
ENDBRANCH   4   7
BRANCH   3  17
ATOM     17  O   UNL d   1      46.168 -18.638  41.988  0.00  0.00    -0.326 OA
ATOM     18  C   UNL d   1      46.565 -18.196  41.406  0.00  0.00     0.181 C 
ENDBRANCH   3  17
BRANCH   2  19
ATOM     19  O   UNL d   1      46.647 -19.586  44.665  0.00  0.00    -0.326 OA
ATOM     20  C   UNL d   1      45.980 -19.995  44.954  0.00  0.00     0.181 C 
ENDBRANCH   2  19
BRANCH   1  21
ATOM     21  O   UNL d   1      46.361 -19.897  43.053  0.00  0.00    -0.324 OA
ATOM     22  C   UNL d   1      45.638 -20.316  43.123  0.00  0.00     0.182 C 
ENDBRANCH   1  21
TORSDOF 5
ENDMDL
MODEL 2
REMARK VINA RESULT:      19.3      0.327      1.636
REMARK  5 active torsions:
REMARK  status: ('A' for Active; 'I' for Inactive)
REMARK    1  A    between atoms: N_7  and  C_1 
REMARK    2  A    between atoms: O_17  and  C_5 
REMARK    3  A    between atoms: C_10  and  N_7 
REMARK    4  A    between atoms: O_18  and  C_8 
REMARK    5  A    between atoms: O_19  and  C_9 
ROOT
ATOM      1  C   UNL d   1      46.405 -19.109  43.226  0.00  0.00     0.139 A 
ATOM      2  C   UNL d   1      46.432 -18.461  42.715  0.00  0.00     0.120 A 
ATOM      3  C   UNL d   1      46.441 -18.985  44.053  0.00  0.00     0.120 A 
ATOM      4  C   UNL d   1      46.529 -17.583  43.836  0.00  0.00     0.087 A 
ATOM      5  C   UNL d   1      46.503 -18.219  44.354  0.00  0.00     0.045 A 
ATOM      6  C   UNL d   1      46.495 -17.684  43.018  0.00  0.00     0.045 A 
ENDROOT
BRANCH   4   7
ATOM      7  N   UNL d   1      46.592 -16.813  44.144  0.00  0.00    -0.226 NA
BRANCH   7   8
ATOM      8  C   UNL d   1      45.922 -16.424  44.417  0.00  0.00     0.169 A 
ATOM      9  C   UNL d   1      45.882 -15.646  44.414  0.00  0.00     0.094 A 
ATOM     10  C   UNL d   1      45.240 -15.273  44.676  0.00  0.00     0.190 A 
ATOM     11  C   UNL d   1      46.462 -14.443  44.136  0.00  0.00     0.128 A 
ATOM     12  N   UNL d   1      45.215 -14.493  44.666  0.00  0.00    -0.128 NA
ATOM     13  N   UNL d   1      44.639 -15.679  44.941  0.00  0.00    -0.203 NA
ATOM     14  N   UNL d   1      45.811 -14.079  44.402  0.00  0.00    -0.145 NA
ATOM     15  C   UNL d   1      44.657 -16.474  44.955  0.00  0.00     0.202 A 
ATOM     16  N   UNL d   1      45.299 -16.847  44.693  0.00  0.00    -0.205 NA
ENDBRANCH   7   8
ENDBRANCH   4   7
BRANCH   3  17
ATOM     17  O   UNL d   1      46.414 -19.636  44.572  0.00  0.00    -0.326 OA
ATOM     18  C   UNL d   1      45.701 -20.053  44.674  0.00  0.00     0.181 C 
ENDBRANCH   3  17
BRANCH   2  19
ATOM     19  O   UNL d   1      46.397 -18.578  41.893  0.00  0.00    -0.326 OA
ATOM     20  C   UNL d   1      46.519 -17.935  41.375  0.00  0.00     0.181 C 
ENDBRANCH   2  19
BRANCH   1  21
ATOM     21  O   UNL d   1      46.343 -19.880  42.930  0.00  0.00    -0.324 OA
ATOM     22  C   UNL d   1      46.500 -20.024  42.119  0.00  0.00     0.182 C 
ENDBRANCH   1  21
TORSDOF 5
ENDMDL
