MODEL 1
REMARK VINA RESULT:      -3.8      0.000      0.000
REMARK  6 active torsions:
REMARK  status: ('A' for Active; 'I' for Inactive)
REMARK    1  A    between atoms: C_4  and  S_1 
REMARK    2  A    between atoms: C_5  and  S_1 
REMARK    3  A    between atoms: C_2  and  N_7 
REMARK    4  A    between atoms: N_3  and  C_2 
REMARK    5  A    between atoms: C_8  and  N_6 
REMARK    6  A    between atoms: N_7  and  C_14 
ROOT
ATOM      1  C   UNL d   1      58.253   0.528  30.358  0.00  0.00     0.206 C 
ATOM      2  S   UNL d   1      57.871   0.682  29.641  0.00  0.00    -0.038 SA
ENDROOT
BRANCH   1   3
ATOM      3  N   UNL d   1      59.059   0.351  30.368  0.00  0.00    -0.218 NA
BRANCH   3   4
ATOM      4  C   UNL d   1      59.399  -0.047  29.730  0.00  0.00     0.085 A 
ATOM      5  C   UNL d   1      59.415  -0.872  29.721  0.00  0.00     0.031 A 
ATOM      6  C   UNL d   1      59.754  -1.272  29.087  0.00  0.00     0.094 A 
ATOM      7  C   UNL d   1      60.081  -0.842  28.455  0.00  0.00     0.012 A 
ATOM      8  C   UNL d   1      60.066  -0.018  28.464  0.00  0.00     0.002 A 
ATOM      9  C   UNL d   1      59.723   0.378  29.105  0.00  0.00     0.019 A 
BRANCH   6  10
ATOM     10  S   UNL d   1      59.771  -2.103  29.074  0.00  0.00     0.262 S 
ATOM     11  O   UNL d   1      60.426  -2.092  29.575  0.00  0.00    -0.213 OA
ATOM     12  O   UNL d   1      59.112  -2.099  28.570  0.00  0.00    -0.213 OA
BRANCH  10  13
ATOM     13  C   UNL d   1      59.785  -2.928  29.058  0.00  0.00     0.364 C 
ATOM     14  F   UNL d   1      59.169  -3.347  28.698  0.00  0.00    -0.159 F 
ATOM     15  F   UNL d   1      60.417  -3.339  29.405  0.00  0.00    -0.159 F 
ENDBRANCH  10  13
ENDBRANCH   6  10
ENDBRANCH   3   4
ENDBRANCH   1   3
BRANCH   1  16
ATOM     16  N   UNL d   1      57.826   0.554  31.068  0.00  0.00    -0.278 N 
ATOM     17  C   UNL d   1      58.225   0.651  31.786  0.00  0.00     0.101 A 
ATOM     18  C   UNL d   1      57.797   0.675  32.486  0.00  0.00     0.100 A 
ATOM     19  N   UNL d   1      56.979   0.604  32.483  0.00  0.00    -0.301 N 
ATOM     20  C   UNL d   1      56.574   0.507  31.769  0.00  0.00     0.100 A 
ATOM     21  C   UNL d   1      57.005   0.482  31.058  0.00  0.00     0.101 A 
BRANCH  19  22
ATOM     22  C   UNL d   1      56.551   0.630  33.198  0.00  0.00     0.065 A 
ATOM     23  C   UNL d   1      55.725   0.640  33.186  0.00  0.00     0.029 A 
ATOM     24  C   UNL d   1      55.301   0.665  33.894  0.00  0.00     0.059 A 
ATOM     25 CL   UNL d   1      54.475   0.675  33.882  0.00  0.00    -0.082 Cl
ATOM     26  C   UNL d   1      55.704   0.680  34.614  0.00  0.00     0.011 A 
ATOM     27  C   UNL d   1      56.530   0.670  34.626  0.00  0.00     0.002 A 
ATOM     28  C   UNL d   1      56.955   0.645  33.918  0.00  0.00     0.018 A 
ENDBRANCH  19  22
ENDBRANCH   1  16
TORSDOF 6
ENDMDL
MODEL 2
REMARK VINA RESULT:      -2.9      1.136      1.548
REMARK  6 active torsions:
REMARK  status: ('A' for Active; 'I' for Inactive)
REMARK    1  A    between atoms: C_4  and  S_1 
REMARK    2  A    between atoms: C_5  and  S_1 
REMARK    3  A    between atoms: C_2  and  N_7 
REMARK    4  A    between atoms: N_3  and  C_2 
REMARK    5  A    between atoms: C_8  and  N_6 
REMARK    6  A    between atoms: N_7  and  C_14 
ROOT
ATOM      1  C   UNL d   1      57.465  -0.350  31.257  0.00  0.00     0.206 C 
ATOM      2  S   UNL d   1      57.403  -1.094  30.899  0.00  0.00    -0.038 SA
ENDROOT
BRANCH   1   3
ATOM      3  N   UNL d   1      57.974   0.218  30.943  0.00  0.00    -0.218 NA
BRANCH   3   4
ATOM      4  C   UNL d   1      58.214   0.165  30.155  0.00  0.00     0.085 A 
ATOM      5  C   UNL d   1      58.842  -0.328  29.949  0.00  0.00     0.031 A 
ATOM      6  C   UNL d   1      59.084  -0.383  29.165  0.00  0.00     0.094 A 
ATOM      7  C   UNL d   1      58.693   0.059  28.580  0.00  0.00     0.012 A 
ATOM      8  C   UNL d   1      58.065   0.552  28.786  0.00  0.00     0.002 A 
ATOM      9  C   UNL d   1      57.827   0.603  29.576  0.00  0.00     0.019 A 
BRANCH   6  10
ATOM     10  S   UNL d   1      59.717  -0.879  28.953  0.00  0.00     0.262 S 
ATOM     11  O   UNL d   1      60.226  -0.413  29.404  0.00  0.00    -0.213 OA
ATOM     12  O   UNL d   1      59.193  -1.339  28.503  0.00  0.00    -0.213 OA
BRANCH  10  13
ATOM     13  C   UNL d   1      60.343  -1.374  28.740  0.00  0.00     0.364 C 
ATOM     14  F   UNL d   1      60.200  -2.167  28.556  0.00  0.00    -0.159 F 
ATOM     15  F   UNL d   1      61.116  -1.075  28.710  0.00  0.00    -0.159 F 
ENDBRANCH  10  13
ENDBRANCH   6  10
ENDBRANCH   3   4
ENDBRANCH   1   3
BRANCH   1  16
ATOM     16  N   UNL d   1      57.014  -0.177  31.930  0.00  0.00    -0.278 N 
ATOM     17  C   UNL d   1      56.280  -0.541  32.040  0.00  0.00     0.101 A 
ATOM     18  C   UNL d   1      55.838  -0.366  32.709  0.00  0.00     0.100 A 
ATOM     19  N   UNL d   1      56.114   0.166  33.270  0.00  0.00    -0.301 N 
ATOM     20  C   UNL d   1      56.848   0.534  33.167  0.00  0.00     0.100 A 
ATOM     21  C   UNL d   1      57.298   0.359  32.490  0.00  0.00     0.101 A 
BRANCH  19  22
ATOM     22  C   UNL d   1      55.659   0.339  33.948  0.00  0.00     0.065 A 
ATOM     23  C   UNL d   1      54.838   0.404  33.889  0.00  0.00     0.029 A 
ATOM     24  C   UNL d   1      54.387   0.576  34.559  0.00  0.00     0.059 A 
ATOM     25 CL   UNL d   1      53.566   0.641  34.500  0.00  0.00    -0.082 Cl
ATOM     26  C   UNL d   1      54.760   0.681  35.288  0.00  0.00     0.011 A 
ATOM     27  C   UNL d   1      55.581   0.616  35.346  0.00  0.00     0.002 A 
ATOM     28  C   UNL d   1      56.032   0.445  34.676  0.00  0.00     0.018 A 
ENDBRANCH  19  22
ENDBRANCH   1  16
TORSDOF 6
ENDMDL
MODEL 3
REMARK VINA RESULT:      -1.8      3.097      5.599
REMARK  6 active torsions:
REMARK  status: ('A' for Active; 'I' for Inactive)
REMARK    1  A    between atoms: C_4  and  S_1 
REMARK    2  A    between atoms: C_5  and  S_1 
REMARK    3  A    between atoms: C_2  and  N_7 
REMARK    4  A    between atoms: N_3  and  C_2 
REMARK    5  A    between atoms: C_8  and  N_6 
REMARK    6  A    between atoms: N_7  and  C_14 
ROOT
ATOM      1  C   UNL d   1      58.490  -0.506  29.603  0.00  0.00     0.206 C 
ATOM      2  S   UNL d   1      58.163  -0.037  29.004  0.00  0.00    -0.038 SA
ENDROOT
BRANCH   1   3
ATOM      3  N   UNL d   1      58.455  -0.256  30.388  0.00  0.00    -0.218 NA
BRANCH   3   4
ATOM      4  C   UNL d   1      57.726  -0.074  30.730  0.00  0.00     0.085 A 
ATOM      5  C   UNL d   1      57.484  -0.466  31.414  0.00  0.00     0.031 A 
ATOM      6  C   UNL d   1      56.757  -0.287  31.757  0.00  0.00     0.094 A 
ATOM      7  C   UNL d   1      56.269   0.290  31.412  0.00  0.00     0.012 A 
ATOM      8  C   UNL d   1      56.511   0.682  30.728  0.00  0.00     0.002 A 
ATOM      9  C   UNL d   1      57.242   0.497  30.388  0.00  0.00     0.019 A 
BRANCH   6  10
ATOM     10  S   UNL d   1      56.509  -0.680  32.447  0.00  0.00     0.262 S 
ATOM     11  O   UNL d   1      56.633   0.011  32.879  0.00  0.00    -0.213 OA
ATOM     12  O   UNL d   1      56.389  -1.368  32.000  0.00  0.00    -0.213 OA
BRANCH  10  13
ATOM     13  C   UNL d   1      56.263  -1.073  33.129  0.00  0.00     0.364 C 
ATOM     14  F   UNL d   1      55.921  -1.825  33.074  0.00  0.00    -0.159 F 
ATOM     15  F   UNL d   1      56.357  -0.715  33.872  0.00  0.00    -0.159 F 
ENDBRANCH  10  13
ENDBRANCH   6  10
ENDBRANCH   3   4
ENDBRANCH   1   3
BRANCH   1  16
ATOM     16  N   UNL d   1      58.852  -1.226  29.412  0.00  0.00    -0.278 N 
ATOM     17  C   UNL d   1      58.416  -1.819  29.035  0.00  0.00     0.101 A 
ATOM     18  C   UNL d   1      58.780  -2.531  28.848  0.00  0.00     0.100 A 
ATOM     19  N   UNL d   1      59.570  -2.662  29.030  0.00  0.00    -0.301 N 
ATOM     20  C   UNL d   1      60.012  -2.073  29.406  0.00  0.00     0.100 A 
ATOM     21  C   UNL d   1      59.646  -1.350  29.597  0.00  0.00     0.101 A 
BRANCH  19  22
ATOM     22  C   UNL d   1      59.932  -3.388  28.837  0.00  0.00     0.065 A 
ATOM     23  C   UNL d   1      59.475  -4.071  28.756  0.00  0.00     0.029 A 
ATOM     24  C   UNL d   1      59.833  -4.789  28.565  0.00  0.00     0.059 A 
ATOM     25 CL   UNL d   1      59.375  -5.472  28.484  0.00  0.00    -0.082 Cl
ATOM     26  C   UNL d   1      60.650  -4.823  28.455  0.00  0.00     0.011 A 
ATOM     27  C   UNL d   1      61.108  -4.140  28.536  0.00  0.00     0.002 A 
ATOM     28  C   UNL d   1      60.750  -3.422  28.727  0.00  0.00     0.018 A 
ENDBRANCH  19  22
ENDBRANCH   1  16
TORSDOF 6
ENDMDL
