MODEL 1
REMARK VINA RESULT:      -7.2      0.000      0.000
REMARK  4 active torsions:
REMARK  status: ('A' for Active; 'I' for Inactive)
REMARK    1  A    between atoms: C_15  and  C_2 
REMARK    2  A    between atoms: C_6  and  S_16 
REMARK    3  A    between atoms: N_8  and  C_11 
REMARK    4  A    between atoms: S_16  and  C_15 
ROOT
ATOM      1  C   UNL d   1     -46.870  12.761  23.263  0.00  0.00     0.141 A 
ATOM      2  N   UNL d   1     -46.110  12.842  22.994  0.00  0.00    -0.232 NA
ATOM      3  S   UNL d   1     -46.961  12.000  23.574  0.00  0.00    -0.060 SA
ATOM      4  C   UNL d   1     -45.707  12.127  23.133  0.00  0.00     0.090 A 
ATOM      5  C   UNL d   1     -44.677  11.122  23.181  0.00  0.00     0.128 A 
ATOM      6  C   UNL d   1     -46.223  11.605  23.488  0.00  0.00     0.049 A 
ATOM      7  C   UNL d   1     -44.927  11.898  22.972  0.00  0.00     0.043 A 
ATOM      8  C   UNL d   1     -45.195  10.607  23.535  0.00  0.00     0.024 A 
ATOM      9  C   UNL d   1     -45.970  10.841  23.692  0.00  0.00     0.010 A 
ENDROOT
BRANCH   1  10
ATOM     10  S   UNL d   1     -47.455  13.351  23.228  0.00  0.00    -0.059 SA
BRANCH  10  11
ATOM     11  C   UNL d   1     -48.056  13.298  22.675  0.00  0.00     0.059 C 
BRANCH  11  12
ATOM     12  C   UNL d   1     -48.721  13.797  22.735  0.00  0.00     0.112 A 
ATOM     13  C   UNL d   1     -49.381  13.771  22.215  0.00  0.00     0.119 A 
ATOM     14  N   UNL d   1     -49.897  14.363  22.489  0.00  0.00    -0.284 N 
ATOM     15 BR   UNL d   1     -49.480  13.260  21.573  0.00  0.00    -0.028 Br
ATOM     16  C   UNL d   1     -49.564  14.728  23.142  0.00  0.00     0.148 A 
ATOM     17  C   UNL d   1     -50.629  14.599  22.207  0.00  0.00     0.082 A 
ATOM     18  N   UNL d   1     -48.835  14.372  23.289  0.00  0.00    -0.226 NA
ATOM     19  C   UNL d   1     -49.956  15.338  23.528  0.00  0.00     0.037 A 
ATOM     20  C   UNL d   1     -50.693  15.574  23.243  0.00  0.00     0.005 A 
ATOM     21  C   UNL d   1     -51.025  15.209  22.590  0.00  0.00     0.019 A 
ENDBRANCH  11  12
ENDBRANCH  10  11
ENDBRANCH   1  10
BRANCH   5  22
ATOM     22  N   UNL d   1     -43.873  10.893  23.014  0.00  0.00    -0.114 N 
ATOM     23  O   UNL d   1     -43.580  10.168  23.282  0.00  0.00    -0.532 OA
ATOM     24  O   UNL d   1     -43.387  11.401  22.580  0.00  0.00    -0.532 OA
ENDBRANCH   5  22
TORSDOF 4
ENDMDL
MODEL 2
REMARK VINA RESULT:      -7.0      2.807      5.695
REMARK  4 active torsions:
REMARK  status: ('A' for Active; 'I' for Inactive)
REMARK    1  A    between atoms: C_15  and  C_2 
REMARK    2  A    between atoms: C_6  and  S_16 
REMARK    3  A    between atoms: N_8  and  C_11 
REMARK    4  A    between atoms: S_16  and  C_15 
ROOT
ATOM      1  C   UNL d   1     -47.144  13.751  22.987  0.00  0.00     0.141 A 
ATOM      2  N   UNL d   1     -47.894  13.676  23.285  0.00  0.00    -0.232 NA
ATOM      3  S   UNL d   1     -47.109  14.441  22.532  0.00  0.00    -0.060 SA
ATOM      4  C   UNL d   1     -48.345  14.322  23.020  0.00  0.00     0.090 A 
ATOM      5  C   UNL d   1     -49.442  15.231  22.801  0.00  0.00     0.128 A 
ATOM      6  C   UNL d   1     -47.871  14.797  22.557  0.00  0.00     0.049 A 
ATOM      7  C   UNL d   1     -49.138  14.528  23.151  0.00  0.00     0.043 A 
ATOM      8  C   UNL d   1     -48.964  15.698  22.341  0.00  0.00     0.024 A 
ATOM      9  C   UNL d   1     -48.177  15.488  22.214  0.00  0.00     0.010 A 
ENDROOT
BRANCH   1  10
ATOM     10  S   UNL d   1     -46.521  13.219  23.122  0.00  0.00    -0.059 SA
BRANCH  10  11
ATOM     11  C   UNL d   1     -46.677  12.420  23.208  0.00  0.00     0.059 C 
BRANCH  11  12
ATOM     12  C   UNL d   1     -46.047  11.878  23.280  0.00  0.00     0.112 A 
ATOM     13  C   UNL d   1     -46.137  11.074  23.510  0.00  0.00     0.119 A 
ATOM     14  N   UNL d   1     -45.368  10.759  23.503  0.00  0.00    -0.284 N 
ATOM     15 BR   UNL d   1     -46.846  10.695  23.698  0.00  0.00    -0.028 Br
ATOM     16  C   UNL d   1     -44.839  11.344  23.280  0.00  0.00     0.148 A 
ATOM     17  C   UNL d   1     -45.105  10.003  23.677  0.00  0.00     0.082 A 
ATOM     18  N   UNL d   1     -45.268  12.035  23.144  0.00  0.00    -0.226 NA
ATOM     19  C   UNL d   1     -44.035  11.186  23.227  0.00  0.00     0.037 A 
ATOM     20  C   UNL d   1     -43.772  10.425  23.402  0.00  0.00     0.005 A 
ATOM     21  C   UNL d   1     -44.300   9.840  23.625  0.00  0.00     0.019 A 
ENDBRANCH  11  12
ENDBRANCH  10  11
ENDBRANCH   1  10
BRANCH   5  22
ATOM     22  N   UNL d   1     -50.257  15.436  22.940  0.00  0.00    -0.114 N 
ATOM     23  O   UNL d   1     -50.477  15.824  23.636  0.00  0.00    -0.532 OA
ATOM     24  O   UNL d   1     -50.828  15.245  22.375  0.00  0.00    -0.532 OA
ENDBRANCH   5  22
TORSDOF 4
ENDMDL
MODEL 3
REMARK VINA RESULT:      -5.9      1.233      1.488
REMARK  4 active torsions:
REMARK  status: ('A' for Active; 'I' for Inactive)
REMARK    1  A    between atoms: C_15  and  C_2 
REMARK    2  A    between atoms: C_6  and  S_16 
REMARK    3  A    between atoms: N_8  and  C_11 
REMARK    4  A    between atoms: S_16  and  C_15 
ROOT
ATOM      1  C   UNL d   1     -46.606  13.027  22.968  0.00  0.00     0.141 A 
ATOM      2  N   UNL d   1     -46.112  13.383  22.434  0.00  0.00    -0.232 NA
ATOM      3  S   UNL d   1     -46.240  12.341  23.251  0.00  0.00    -0.060 SA
ATOM      4  C   UNL d   1     -45.421  12.923  22.372  0.00  0.00     0.090 A 
ATOM      5  C   UNL d   1     -44.120  12.452  21.973  0.00  0.00     0.128 A 
ATOM      6  C   UNL d   1     -45.492  12.282  22.870  0.00  0.00     0.049 A 
ATOM      7  C   UNL d   1     -44.737  13.022  21.915  0.00  0.00     0.043 A 
ATOM      8  C   UNL d   1     -44.196  11.816  22.470  0.00  0.00     0.024 A 
ATOM      9  C   UNL d   1     -44.880  11.724  22.923  0.00  0.00     0.010 A 
ENDROOT
BRANCH   1  10
ATOM     10  S   UNL d   1     -47.355  13.311  23.189  0.00  0.00    -0.059 SA
BRANCH  10  11
ATOM     11  C   UNL d   1     -47.694  13.933  22.780  0.00  0.00     0.059 C 
BRANCH  11  12
ATOM     12  C   UNL d   1     -48.481  14.158  22.940  0.00  0.00     0.112 A 
ATOM     13  C   UNL d   1     -48.820  14.892  22.710  0.00  0.00     0.119 A 
ATOM     14  N   UNL d   1     -49.603  14.866  22.987  0.00  0.00    -0.284 N 
ATOM     15 BR   UNL d   1     -48.441  15.499  22.297  0.00  0.00    -0.028 Br
ATOM     16  C   UNL d   1     -49.730  14.151  23.366  0.00  0.00     0.148 A 
ATOM     17  C   UNL d   1     -50.203  15.420  22.930  0.00  0.00     0.082 A 
ATOM     18  N   UNL d   1     -49.029  13.717  23.333  0.00  0.00    -0.226 NA
ATOM     19  C   UNL d   1     -50.461  13.974  23.696  0.00  0.00     0.037 A 
ATOM     20  C   UNL d   1     -51.064  14.533  23.638  0.00  0.00     0.005 A 
ATOM     21  C   UNL d   1     -50.937  15.248  23.259  0.00  0.00     0.019 A 
ENDBRANCH  11  12
ENDBRANCH  10  11
ENDBRANCH   1  10
BRANCH   5  22
ATOM     22  N   UNL d   1     -43.419  12.560  21.500  0.00  0.00    -0.114 N 
ATOM     23  O   UNL d   1     -43.481  12.715  20.690  0.00  0.00    -0.532 OA
ATOM     24  O   UNL d   1     -42.675  12.508  21.855  0.00  0.00    -0.532 OA
ENDBRANCH   5  22
TORSDOF 4
ENDMDL
MODEL 4
REMARK VINA RESULT:      -4.9      8.641     10.489
REMARK  4 active torsions:
REMARK  status: ('A' for Active; 'I' for Inactive)
REMARK    1  A    between atoms: C_15  and  C_2 
REMARK    2  A    between atoms: C_6  and  S_16 
REMARK    3  A    between atoms: N_8  and  C_11 
REMARK    4  A    between atoms: S_16  and  C_15 
ROOT
ATOM      1  C   UNL d   1     -38.749  14.480  19.673  0.00  0.00     0.141 A 
ATOM      2  N   UNL d   1     -38.214  14.283  20.249  0.00  0.00    -0.232 NA
ATOM      3  S   UNL d   1     -39.493  14.571  20.024  0.00  0.00    -0.060 SA
ATOM      4  C   UNL d   1     -38.616  14.246  20.976  0.00  0.00     0.090 A 
ATOM      5  C   UNL d   1     -38.900  14.078  22.378  0.00  0.00     0.128 A 
ATOM      6  C   UNL d   1     -39.402  14.422  20.847  0.00  0.00     0.049 A 
ATOM      7  C   UNL d   1     -38.349  14.072  21.741  0.00  0.00     0.043 A 
ATOM      8  C   UNL d   1     -39.680  14.254  22.243  0.00  0.00     0.024 A 
ATOM      9  C   UNL d   1     -39.939  14.426  21.479  0.00  0.00     0.010 A 
ENDROOT
BRANCH   1  10
ATOM     10  S   UNL d   1     -38.571  14.574  18.867  0.00  0.00    -0.059 SA
BRANCH  10  11
ATOM     11  C   UNL d   1     -38.680  13.949  18.349  0.00  0.00     0.059 C 
BRANCH  11  12
ATOM     12  C   UNL d   1     -38.509  14.046  17.538  0.00  0.00     0.112 A 
ATOM     13  C   UNL d   1     -38.375  13.412  17.003  0.00  0.00     0.119 A 
ATOM     14  N   UNL d   1     -38.230  13.774  16.269  0.00  0.00    -0.284 N 
ATOM     15 BR   UNL d   1     -38.389  12.606  17.185  0.00  0.00    -0.028 Br
ATOM     16  C   UNL d   1     -38.274  14.587  16.357  0.00  0.00     0.148 A 
ATOM     17  C   UNL d   1     -38.063  13.441  15.540  0.00  0.00     0.082 A 
ATOM     18  N   UNL d   1     -38.448  14.748  17.147  0.00  0.00    -0.226 NA
ATOM     19  C   UNL d   1     -38.152  15.087  15.717  0.00  0.00     0.037 A 
ATOM     20  C   UNL d   1     -37.985  14.751  14.983  0.00  0.00     0.005 A 
ATOM     21  C   UNL d   1     -37.941  13.938  14.895  0.00  0.00     0.019 A 
ENDBRANCH  11  12
ENDBRANCH  10  11
ENDBRANCH   1  10
BRANCH   5  22
ATOM     22  N   UNL d   1     -38.618  13.898  23.162  0.00  0.00    -0.114 N 
ATOM     23  O   UNL d   1     -38.346  14.501  23.658  0.00  0.00    -0.532 OA
ATOM     24  O   UNL d   1     -38.619  13.115  23.426  0.00  0.00    -0.532 OA
ENDBRANCH   5  22
TORSDOF 4
ENDMDL
MODEL 5
REMARK VINA RESULT:      -4.9      9.620     10.397
REMARK  4 active torsions:
REMARK  status: ('A' for Active; 'I' for Inactive)
REMARK    1  A    between atoms: C_15  and  C_2 
REMARK    2  A    between atoms: C_6  and  S_16 
REMARK    3  A    between atoms: N_8  and  C_11 
REMARK    4  A    between atoms: S_16  and  C_15 
ROOT
ATOM      1  C   UNL d   1     -39.276  15.162  18.916  0.00  0.00     0.141 A 
ATOM      2  N   UNL d   1     -38.595  15.143  18.478  0.00  0.00    -0.232 NA
ATOM      3  S   UNL d   1     -39.922  15.125  18.402  0.00  0.00    -0.060 SA
ATOM      4  C   UNL d   1     -38.804  15.094  17.675  0.00  0.00     0.090 A 
ATOM      5  C   UNL d   1     -38.718  15.011  16.239  0.00  0.00     0.128 A 
ATOM      6  C   UNL d   1     -39.617  15.083  17.619  0.00  0.00     0.049 A 
ATOM      7  C   UNL d   1     -38.339  15.059  16.989  0.00  0.00     0.043 A 
ATOM      8  C   UNL d   1     -39.528  15.000  16.190  0.00  0.00     0.024 A 
ATOM      9  C   UNL d   1     -39.985  15.036  16.876  0.00  0.00     0.010 A 
ENDROOT
BRANCH   1  10
ATOM     10  S   UNL d   1     -39.310  15.210  19.745  0.00  0.00    -0.059 SA
BRANCH  10  11
ATOM     11  C   UNL d   1     -38.869  14.695  20.203  0.00  0.00     0.059 C 
BRANCH  11  12
ATOM     12  C   UNL d   1     -38.793  14.826  21.023  0.00  0.00     0.112 A 
ATOM     13  C   UNL d   1     -38.475  14.269  21.566  0.00  0.00     0.119 A 
ATOM     14  N   UNL d   1     -38.512  14.642  22.308  0.00  0.00    -0.284 N 
ATOM     15 BR   UNL d   1     -38.190  13.515  21.383  0.00  0.00    -0.028 Br
ATOM     16  C   UNL d   1     -38.838  15.388  22.218  0.00  0.00     0.148 A 
ATOM     17  C   UNL d   1     -38.283  14.373  23.047  0.00  0.00     0.082 A 
ATOM     18  N   UNL d   1     -39.009  15.495  21.418  0.00  0.00    -0.226 NA
ATOM     19  C   UNL d   1     -38.941  15.883  22.865  0.00  0.00     0.037 A 
ATOM     20  C   UNL d   1     -38.710  15.611  23.608  0.00  0.00     0.005 A 
ATOM     21  C   UNL d   1     -38.384  14.865  23.698  0.00  0.00     0.019 A 
ENDBRANCH  11  12
ENDBRANCH  10  11
ENDBRANCH   1  10
BRANCH   5  22
ATOM     22  N   UNL d   1     -38.234  14.975  15.538  0.00  0.00    -0.114 N 
ATOM     23  O   UNL d   1     -38.056  15.664  15.117  0.00  0.00    -0.532 OA
ATOM     24  O   UNL d   1     -37.943  14.246  15.282  0.00  0.00    -0.532 OA
ENDBRANCH   5  22
TORSDOF 4
ENDMDL
MODEL 6
REMARK VINA RESULT:      -4.8      2.940      5.631
REMARK  4 active torsions:
REMARK  status: ('A' for Active; 'I' for Inactive)
REMARK    1  A    between atoms: C_15  and  C_2 
REMARK    2  A    between atoms: C_6  and  S_16 
REMARK    3  A    between atoms: N_8  and  C_11 
REMARK    4  A    between atoms: S_16  and  C_15 
ROOT
ATOM      1  C   UNL d   1     -47.597  13.723  23.145  0.00  0.00     0.141 A 
ATOM      2  N   UNL d   1     -47.913  14.407  22.848  0.00  0.00    -0.232 NA
ATOM      3  S   UNL d   1     -48.214  13.240  23.412  0.00  0.00    -0.060 SA
ATOM      4  C   UNL d   1     -48.740  14.365  22.923  0.00  0.00     0.090 A 
ATOM      5  C   UNL d   1     -50.140  14.698  22.861  0.00  0.00     0.128 A 
ATOM      6  C   UNL d   1     -48.934  13.652  23.268  0.00  0.00     0.049 A 
ATOM      7  C   UNL d   1     -49.337  14.901  22.713  0.00  0.00     0.043 A 
ATOM      8  C   UNL d   1     -50.326  13.987  23.205  0.00  0.00     0.024 A 
ATOM      9  C   UNL d   1     -49.727  13.459  23.412  0.00  0.00     0.010 A 
ENDROOT
BRANCH   1  10
ATOM     10  S   UNL d   1     -46.786  13.544  23.174  0.00  0.00    -0.059 SA
BRANCH  10  11
ATOM     11  C   UNL d   1     -46.517  12.820  22.901  0.00  0.00     0.059 C 
BRANCH  11  12
ATOM     12  C   UNL d   1     -45.738  12.748  22.611  0.00  0.00     0.112 A 
ATOM     13  C   UNL d   1     -45.229  12.100  22.776  0.00  0.00     0.119 A 
ATOM     14  N   UNL d   1     -44.523  12.271  22.373  0.00  0.00    -0.284 N 
ATOM     15 BR   UNL d   1     -45.409  11.442  23.242  0.00  0.00    -0.028 Br
ATOM     16  C   UNL d   1     -44.601  12.987  21.983  0.00  0.00     0.148 A 
ATOM     17  C   UNL d   1     -43.824  11.845  22.326  0.00  0.00     0.082 A 
ATOM     18  N   UNL d   1     -45.359  13.277  22.136  0.00  0.00    -0.226 NA
ATOM     19  C   UNL d   1     -43.984  13.294  21.538  0.00  0.00     0.037 A 
ATOM     20  C   UNL d   1     -43.281  12.865  21.491  0.00  0.00     0.005 A 
ATOM     21  C   UNL d   1     -43.203  12.149  21.881  0.00  0.00     0.019 A 
ENDBRANCH  11  12
ENDBRANCH  10  11
ENDBRANCH   1  10
BRANCH   5  22
ATOM     22  N   UNL d   1     -50.749  15.254  22.643  0.00  0.00    -0.114 N 
ATOM     23  O   UNL d   1     -51.064  15.771  23.206  0.00  0.00    -0.532 OA
ATOM     24  O   UNL d   1     -51.022  15.274  21.864  0.00  0.00    -0.532 OA
ENDBRANCH   5  22
TORSDOF 4
ENDMDL
