MODEL 1
REMARK VINA RESULT:      24.4      0.000      0.000
REMARK  3 active torsions:
REMARK  status: ('A' for Active; 'I' for Inactive)
REMARK    1  A    between atoms: C_10  and  C_3 
REMARK    2  A    between atoms: C_13  and  C_7 
REMARK    3  A    between atoms: C_12  and  C_13 
ROOT
ATOM      1  C   UNL d   1     -58.132 -98.762 -43.714  0.00  0.00     0.171 A 
ATOM      2  N   UNL d   1     -58.148 -98.760 -44.538  0.00  0.00    -0.212 N 
ATOM      3  C   UNL d   1     -58.917 -98.764 -43.445  0.00  0.00     0.121 A 
ATOM      4  N   UNL d   1     -57.416 -98.762 -43.313  0.00  0.00    -0.227 NA
ATOM      5  N   UNL d   1     -58.943 -98.761 -44.784  0.00  0.00    -0.162 NA
ATOM      6  C   UNL d   1     -57.447 -98.758 -44.965  0.00  0.00     0.086 A 
ATOM      7  C   UNL d   1     -56.726 -98.758 -44.564  0.00  0.00     0.035 A 
ATOM      8  C   UNL d   1     -56.711 -98.760 -43.740  0.00  0.00     0.085 A 
ATOM      9  C   UNL d   1     -59.417 -98.763 -44.102  0.00  0.00     0.130 A 
ATOM     10  C   UNL d   1     -57.462 -98.756 -45.791  0.00  0.00     0.021 C 
ATOM     11  C   UNL d   1     -55.987 -98.760 -43.340  0.00  0.00     0.021 C 
ENDROOT
BRANCH   3  12
ATOM     12  C   UNL d   1     -59.156 -98.766 -42.655  0.00  0.00     0.215 C 
ATOM     13  O   UNL d   1     -58.589 -98.757 -42.050  0.00  0.00    -0.644 OA
ATOM     14  O   UNL d   1     -59.960 -98.778 -42.460  0.00  0.00    -0.644 OA
ENDBRANCH   3  12
BRANCH   7  15
ATOM     15  C   UNL d   1     -56.021 -98.756 -44.992  0.00  0.00     0.003 C 
BRANCH  15  16
ATOM     16  C   UNL d   1     -55.409 -99.263 -44.773  0.00  0.00     0.000 C 
ATOM     17  C   UNL d   1     -54.763 -99.368 -45.277  0.00  0.00     0.000 C 
ENDBRANCH  15  16
ENDBRANCH   7  15
TORSDOF 3
ENDMDL
