MODEL 1
REMARK VINA RESULT:       9.0      0.000      0.000
REMARK  7 active torsions:
REMARK  status: ('A' for Active; 'I' for Inactive)
REMARK    1  A    between atoms: C_6  and  C_1 
REMARK    2  A    between atoms: C_9  and  N_3 
REMARK    3  A    between atoms: C_11  and  C_4 
REMARK       I    between atoms: N_7  and  C_6 
REMARK    4  A    between atoms: C_15  and  N_7 
REMARK    5  A    between atoms: C_8  and  C_10 
REMARK    6  A    between atoms: O_18  and  C_8 
REMARK    7  A    between atoms: C_27  and  O_18 
ROOT
ATOM      1  C   UNL d   1     -41.727-121.667 -52.689  0.00  0.00     0.096 A 
ATOM      2  N   UNL d   1     -41.681-120.634 -53.671  0.00  0.00    -0.165 NA
ATOM      3  N   UNL d   1     -41.952-121.974 -54.064  0.00  0.00    -0.228 N 
ATOM      4  C   UNL d   1     -41.621-120.871 -52.886  0.00  0.00     0.108 A 
ATOM      5  C   UNL d   1     -41.893-122.213 -53.284  0.00  0.00     0.107 A 
ENDROOT
BRANCH   1   6
ATOM      6  C   UNL d   1     -41.668-121.907 -51.907  0.00  0.00     0.282 C 
ATOM      7  N   UNL d   1     -42.161-122.539 -51.612  0.00  0.00    -0.208 NA
ATOM      8  O   UNL d   1     -41.134-121.538 -51.405  0.00  0.00    -0.265 OA
BRANCH   7   9
ATOM      9  C   UNL d   1     -42.098-122.784 -50.805  0.00  0.00     0.085 A 
ATOM     10  C   UNL d   1     -42.674-122.548 -50.238  0.00  0.00     0.019 A 
ATOM     11  C   UNL d   1     -42.608-122.794 -49.432  0.00  0.00     0.007 A 
ATOM     12  C   UNL d   1     -41.956-123.281 -49.191  0.00  0.00     0.064 A 
ATOM     13  C   UNL d   1     -41.382-123.514 -49.761  0.00  0.00     0.007 A 
ATOM     14  C   UNL d   1     -41.453-123.266 -50.566  0.00  0.00     0.019 A 
BRANCH  12  15
ATOM     15  C   UNL d   1     -41.885-123.531 -48.381  0.00  0.00     0.300 C 
ATOM     16  O   UNL d   1     -41.126-123.535 -48.001  0.00  0.00    -0.259 OA
BRANCH  15  17
ATOM     17  O   UNL d   1     -42.573-123.777 -47.949  0.00  0.00    -0.271 OA
BRANCH  17  18
ATOM     18  C   UNL d   1     -42.613-123.662 -47.114  0.00  0.00     0.126 C 
ATOM     19  C   UNL d   1     -43.327-123.818 -46.704  0.00  0.00     0.029 C 
ENDBRANCH  17  18
ENDBRANCH  15  17
ENDBRANCH  12  15
ENDBRANCH   7   9
ENDBRANCH   1   6
BRANCH   4  20
ATOM     20  C   UNL d   1     -41.458-120.327 -52.309  0.00  0.00     0.023 A 
ATOM     21  C   UNL d   1     -41.393-119.530 -52.496  0.00  0.00     0.022 A 
ATOM     22  C   UNL d   1     -41.228-118.976 -51.915  0.00  0.00     0.099 A 
ATOM     23  N   UNL d   1     -41.127-119.223 -51.133  0.00  0.00    -0.242 NA
ATOM     24  C   UNL d   1     -41.191-120.018 -50.940  0.00  0.00     0.099 A 
ATOM     25  C   UNL d   1     -41.357-120.570 -51.528  0.00  0.00     0.022 A 
ENDBRANCH   4  20
BRANCH   3  26
ATOM     26  C   UNL d   1     -42.104-122.350 -54.777  0.00  0.00     0.083 A 
ATOM     27  C   UNL d   1     -42.567-121.976 -55.340  0.00  0.00     0.019 A 
ATOM     28  C   UNL d   1     -42.718-122.354 -56.052  0.00  0.00     0.002 A 
ATOM     29  C   UNL d   1     -42.407-123.104 -56.202  0.00  0.00     0.000 A 
ATOM     30  C   UNL d   1     -41.941-123.476 -55.632  0.00  0.00     0.002 A 
ATOM     31  C   UNL d   1     -41.790-123.099 -54.920  0.00  0.00     0.019 A 
ENDBRANCH   3  26
TORSDOF 7
ENDMDL
