MODEL 1
REMARK VINA RESULT:     121.5      0.000      0.000
REMARK  5 active torsions:
REMARK  status: ('A' for Active; 'I' for Inactive)
REMARK    1  A    between atoms: N_6  and  S_1 
REMARK    2  A    between atoms: C_11  and  S_1 
REMARK    3  A    between atoms: C_2  and  N_8 
REMARK    4  A    between atoms: C_10  and  C_3 
REMARK       I    between atoms: N_8  and  C_9 
REMARK    5  A    between atoms: C_9  and  C_17 
REMARK       I    between atoms: N_26  and  C_10 
ROOT
ATOM      1  N   UNL d   1     -55.608-100.427 -42.395  0.00  0.00    -0.201 NA
ATOM      2  C   UNL d   1     -55.274-101.163 -42.186  0.00  0.00     0.280 C 
ATOM      3  O   UNL d   1     -54.919-101.632 -42.773  0.00  0.00    -0.265 OA
ENDROOT
BRANCH   2   4
ATOM      4  C   UNL d   1     -55.302-101.415 -41.398  0.00  0.00     0.058 A 
ATOM      5  C   UNL d   1     -55.047-100.891 -40.812  0.00  0.00     0.005 A 
ATOM      6  C   UNL d   1     -55.070-101.132 -40.018  0.00  0.00     0.013 A 
ATOM      7  C   UNL d   1     -55.346-101.888 -39.823  0.00  0.00     0.104 A 
ATOM      8  C   UNL d   1     -55.598-102.400 -40.426  0.00  0.00     0.013 A 
ATOM      9  C   UNL d   1     -55.572-102.153 -41.215  0.00  0.00     0.005 A 
BRANCH   7  10
ATOM     10  S   UNL d   1     -55.370-102.127 -39.037  0.00  0.00     0.271 S 
ATOM     11  O   UNL d   1     -54.720-102.613 -39.140  0.00  0.00    -0.200 OA
ATOM     12  O   UNL d   1     -56.031-101.629 -38.941  0.00  0.00    -0.200 OA
BRANCH  10  13
ATOM     13  N   UNL d   1     -55.395-102.363 -38.260  0.00  0.00    -0.231 N 
ATOM     14  C   UNL d   1     -56.100-102.366 -37.844  0.00  0.00     0.075 A 
ATOM     15  C   UNL d   1     -56.798-102.126 -38.217  0.00  0.00     0.020 C 
ATOM     16  C   UNL d   1     -56.118-102.604 -37.061  0.00  0.00     0.018 A 
ATOM     17  C   UNL d   1     -55.420-102.844 -36.687  0.00  0.00     0.003 A 
ATOM     18  C   UNL d   1     -54.716-102.842 -37.100  0.00  0.00     0.020 A 
ATOM     19  C   UNL d   1     -54.712-102.602 -37.878  0.00  0.00     0.092 A 
ENDBRANCH  10  13
ENDBRANCH   7  10
ENDBRANCH   2   4
BRANCH   1  20
ATOM     20  C   UNL d   1     -55.578-100.179 -43.185  0.00  0.00     0.119 A 
ATOM     21  C   UNL d   1     -56.240-100.040 -43.660  0.00  0.00     0.082 A 
ATOM     22  C   UNL d   1     -55.981 -99.804 -44.403  0.00  0.00     0.016 A 
ATOM     23  C   UNL d   1     -56.388 -99.597 -45.085  0.00  0.00     0.020 A 
ATOM     24  C   UNL d   1     -55.158 -99.794 -44.394  0.00  0.00     0.049 A 
ATOM     25  C   UNL d   1     -55.969 -99.378 -45.764  0.00  0.00     0.080 A 
ATOM     26  N   UNL d   1     -55.142 -99.366 -45.761  0.00  0.00    -0.301 N 
ATOM     27  C   UNL d   1     -54.743 -99.576 -45.070  0.00  0.00     0.087 A 
ATOM     28  C   UNL d   1     -54.730 -99.151 -46.430  0.00  0.00     0.100 C 
ATOM     29  S   UNL d   1     -54.910-100.028 -43.635  0.00  0.00    -0.066 SA
BRANCH  21  30
ATOM     30  C   UNL d   1     -57.026-100.122 -43.436  0.00  0.00     0.281 C 
ATOM     31  O   UNL d   1     -57.343-100.861 -43.378  0.00  0.00    -0.265 OA
ATOM     32  N   UNL d   1     -57.481 -99.454 -43.276  0.00  0.00    -0.205 NA
ATOM     33  C   UNL d   1     -58.268 -99.521 -43.051  0.00  0.00     0.123 C 
ENDBRANCH  21  30
ENDBRANCH   1  20
TORSDOF 5
ENDMDL
