MODEL 1
REMARK VINA RESULT:      35.0      0.000      0.000
REMARK  4 active torsions:
REMARK  status: ('A' for Active; 'I' for Inactive)
REMARK    1  A    between atoms: C_7  and  C_4 
REMARK    2  A    between atoms: C_8  and  C_5 
REMARK    3  A    between atoms: S_9  and  C_6 
REMARK    4  A    between atoms: C_14  and  S_9 
ROOT
ATOM      1  N   UNL d   1     -52.020  26.347  33.355  0.00  0.00    -0.200 NA
ATOM      2  N   UNL d   1     -50.665  25.951  33.323  0.00  0.00    -0.202 NA
ATOM      3  N   UNL d   1     -51.699  24.963  33.368  0.00  0.00    -0.206 NA
ATOM      4  C   UNL d   1     -52.266  25.579  33.374  0.00  0.00     0.187 A 
ATOM      5  C   UNL d   1     -50.906  25.162  33.343  0.00  0.00     0.166 A 
ATOM      6  C   UNL d   1     -51.224  26.532  33.330  0.00  0.00     0.197 A 
ENDROOT
BRANCH   5   7
ATOM      7  C   UNL d   1     -50.342  24.560  33.337  0.00  0.00     0.036 A 
ATOM      8  C   UNL d   1     -50.588  23.793  33.342  0.00  0.00     0.003 A 
ATOM      9  C   UNL d   1     -50.024  23.190  33.336  0.00  0.00     0.000 A 
ATOM     10  C   UNL d   1     -49.219  23.377  33.324  0.00  0.00     0.000 A 
ATOM     11  C   UNL d   1     -48.979  24.166  33.319  0.00  0.00     0.000 A 
ATOM     12  C   UNL d   1     -49.537  24.747  33.325  0.00  0.00     0.003 A 
ENDBRANCH   5   7
BRANCH   6  13
ATOM     13  S   UNL d   1     -50.969  27.343  33.309  0.00  0.00    -0.048 SA
BRANCH  13  14
ATOM     14  C   UNL d   1     -51.485  27.952  33.536  0.00  0.00     0.038 C 
ATOM     15  C   UNL d   1     -51.187  28.686  33.776  0.00  0.00     0.008 C 
ENDBRANCH  13  14
ENDBRANCH   6  13
BRANCH   4  16
ATOM     16  C   UNL d   1     -53.071  25.416  33.399  0.00  0.00     0.151 C 
ATOM     17 CL   UNL d   1     -53.599  26.029  33.357  0.00  0.00    -0.067 Cl
ATOM     18 CL   UNL d   1     -53.335  24.659  33.465  0.00  0.00    -0.067 Cl
ENDBRANCH   4  16
TORSDOF 4
ENDMDL
