MODEL 1
REMARK VINA RESULT:      29.6      0.000      0.000
REMARK  3 active torsions:
REMARK  status: ('A' for Active; 'I' for Inactive)
REMARK    1  A    between atoms: C_8  and  C_2 
REMARK    2  A    between atoms: C_7  and  C_5 
REMARK    3  A    between atoms: C_10  and  C_8 
ROOT
ATOM      1  C   UNL d   1     -57.021 -99.026 -44.329  0.00  0.00     0.101 A 
ATOM      2  O   UNL d   1     -56.408 -99.415 -43.963  0.00  0.00    -0.307 OA
ATOM      3  C   UNL d   1     -55.754 -99.369 -44.477  0.00  0.00     0.101 A 
ATOM      4  C   UNL d   1     -56.733 -98.758 -45.041  0.00  0.00     0.027 A 
ATOM      5  C   UNL d   1     -55.958 -98.983 -45.100  0.00  0.00     0.027 A 
ENDROOT
BRANCH   1   6
ATOM      6  C   UNL d   1     -57.779 -98.940 -44.008  0.00  0.00     0.034 A 
ATOM      7  C   UNL d   1     -58.444 -98.925 -44.538  0.00  0.00     0.070 A 
ATOM      8  C   UNL d   1     -59.224 -98.837 -44.220  0.00  0.00     0.068 A 
ATOM      9 CL   UNL d   1     -58.424 -98.992 -45.422  0.00  0.00    -0.081 Cl
ATOM     10 CL   UNL d   1     -59.763 -98.839 -44.833  0.00  0.00    -0.082 Cl
ATOM     11  C   UNL d   1     -59.310 -98.769 -43.396  0.00  0.00     0.012 A 
ATOM     12  C   UNL d   1     -58.641 -98.787 -42.890  0.00  0.00     0.001 A 
ATOM     13  C   UNL d   1     -57.897 -98.870 -43.198  0.00  0.00     0.003 A 
ENDBRANCH   1   6
BRANCH   3  14
ATOM     14  C   UNL d   1     -54.985 -99.684 -44.356  0.00  0.00     0.036 C 
BRANCH  14  15
ATOM     15  C   UNL d   1     -54.909-100.449 -44.056  0.00  0.00     0.094 A 
ATOM     16  C   UNL d   1     -54.789-101.088 -44.554  0.00  0.00     0.288 A 
ATOM     17  N   UNL d   1     -54.734-101.785 -44.090  0.00  0.00    -0.163 NA
ATOM     18  O   UNL d   1     -54.728-101.055 -45.417  0.00  0.00    -0.265 OA
ATOM     19  C   UNL d   1     -54.819-101.561 -43.356  0.00  0.00     0.313 A 
ATOM     20  S   UNL d   1     -54.931-100.733 -43.292  0.00  0.00    -0.021 SA
ATOM     21  O   UNL d   1     -54.790-102.142 -42.756  0.00  0.00    -0.258 OA
ENDBRANCH  14  15
ENDBRANCH   3  14
TORSDOF 3
ENDMDL
