MODEL 1
REMARK VINA RESULT:      -3.6      0.000      0.000
REMARK  4 active torsions:
REMARK  status: ('A' for Active; 'I' for Inactive)
REMARK    1  A    between atoms: C_7  and  C_3 
REMARK       I    between atoms: N_13  and  C_7 
REMARK    2  A    between atoms: C_14  and  N_13 
REMARK    3  A    between atoms: C_16  and  C_14 
REMARK    4  A    between atoms: C_15  and  C_16 
ROOT
ATOM      1  C   UNL d   1      32.979  20.404 -21.864  0.00  0.00     0.285 C 
ATOM      2  O   UNL d   1      33.230  19.971 -21.221  0.00  0.00    -0.265 OA
ATOM      3  N   UNL d   1      32.802  20.029 -22.573  0.00  0.00    -0.206 NA
ENDROOT
BRANCH   1   4
ATOM      4  C   UNL d   1      32.898  21.226 -21.811  0.00  0.00     0.133 A 
ATOM      5  C   UNL d   1      32.468  21.550 -21.185  0.00  0.00     0.272 A 
ATOM      6  N   UNL d   1      32.379  22.371 -21.120  0.00  0.00    -0.265 N 
ATOM      7  O   UNL d   1      32.122  21.062 -20.620  0.00  0.00    -0.266 OA
ATOM      8  C   UNL d   1      32.725  22.859 -21.686  0.00  0.00     0.181 A 
ATOM      9  C   UNL d   1      31.994  22.841 -20.576  0.00  0.00     0.123 A 
ATOM     10  N   UNL d   1      33.154  22.538 -22.309  0.00  0.00    -0.220 NA
ATOM     11  S   UNL d   1      32.552  23.640 -21.489  0.00  0.00    -0.049 SA
ATOM     12  C   UNL d   1      33.241  21.720 -22.372  0.00  0.00     0.111 A 
ATOM     13  C   UNL d   1      32.095  23.624 -20.794  0.00  0.00     0.043 A 
ENDBRANCH   1   4
BRANCH   3  14
ATOM     14  C   UNL d   1      32.878  19.214 -22.636  0.00  0.00     0.102 C 
BRANCH  14  15
ATOM     15  C   UNL d   1      32.792  18.833 -23.363  0.00  0.00     0.021 C 
BRANCH  15  16
ATOM     16  C   UNL d   1      32.643  18.019 -23.393  0.00  0.00     0.002 A 
ATOM     17  C   UNL d   1      33.241  17.486 -23.189  0.00  0.00     0.000 A 
ATOM     18  C   UNL d   1      33.093  16.682 -23.219  0.00  0.00     0.000 A 
ATOM     19  C   UNL d   1      32.345  16.396 -23.453  0.00  0.00     0.000 A 
ATOM     20  C   UNL d   1      31.757  16.933 -23.653  0.00  0.00     0.000 A 
ATOM     21  C   UNL d   1      31.898  17.743 -23.626  0.00  0.00     0.000 A 
ENDBRANCH  15  16
ENDBRANCH  14  15
ENDBRANCH   3  14
TORSDOF 4
ENDMDL
MODEL 2
REMARK VINA RESULT:      -2.2      1.245      1.511
REMARK  4 active torsions:
REMARK  status: ('A' for Active; 'I' for Inactive)
REMARK    1  A    between atoms: C_7  and  C_3 
REMARK       I    between atoms: N_13  and  C_7 
REMARK    2  A    between atoms: C_14  and  N_13 
REMARK    3  A    between atoms: C_16  and  C_14 
REMARK    4  A    between atoms: C_15  and  C_16 
ROOT
ATOM      1  C   UNL d   1      32.856  20.865 -21.808  0.00  0.00     0.285 C 
ATOM      2  O   UNL d   1      32.543  21.230 -22.466  0.00  0.00    -0.265 OA
ATOM      3  N   UNL d   1      33.088  20.078 -21.841  0.00  0.00    -0.206 NA
ENDROOT
BRANCH   1   4
ATOM      4  C   UNL d   1      32.943  21.282 -21.098  0.00  0.00     0.133 A 
ATOM      5  C   UNL d   1      32.817  22.097 -21.091  0.00  0.00     0.272 A 
ATOM      6  N   UNL d   1      32.901  22.527 -20.387  0.00  0.00    -0.265 N 
ATOM      7  O   UNL d   1      32.606  22.493 -21.781  0.00  0.00    -0.266 OA
ATOM      8  C   UNL d   1      33.112  22.131 -19.697  0.00  0.00     0.181 A 
ATOM      9  C   UNL d   1      32.815  23.320 -20.213  0.00  0.00     0.123 A 
ATOM     10  N   UNL d   1      33.238  21.319 -19.703  0.00  0.00    -0.220 NA
ATOM     11  S   UNL d   1      33.156  22.685 -19.089  0.00  0.00    -0.049 SA
ATOM     12  C   UNL d   1      33.154  20.893 -20.404  0.00  0.00     0.111 A 
ATOM     13  C   UNL d   1      32.969  23.426 -19.416  0.00  0.00     0.043 A 
ENDBRANCH   1   4
BRANCH   3  14
ATOM     14  C   UNL d   1      33.005  19.656 -22.540  0.00  0.00     0.102 C 
BRANCH  14  15
ATOM     15  C   UNL d   1      33.240  18.865 -22.591  0.00  0.00     0.021 C 
BRANCH  15  16
ATOM     16  C   UNL d   1      32.969  18.388 -23.211  0.00  0.00     0.002 A 
ATOM     17  C   UNL d   1      33.226  18.534 -23.982  0.00  0.00     0.000 A 
ATOM     18  C   UNL d   1      32.958  18.062 -24.594  0.00  0.00     0.000 A 
ATOM     19  C   UNL d   1      32.426  17.435 -24.446  0.00  0.00     0.000 A 
ATOM     20  C   UNL d   1      32.176  17.299 -23.676  0.00  0.00     0.000 A 
ATOM     21  C   UNL d   1      32.441  17.769 -23.055  0.00  0.00     0.000 A 
ENDBRANCH  15  16
ENDBRANCH  14  15
ENDBRANCH   3  14
TORSDOF 4
ENDMDL
MODEL 3
REMARK VINA RESULT:      -2.1      3.523      5.620
REMARK  4 active torsions:
REMARK  status: ('A' for Active; 'I' for Inactive)
REMARK    1  A    between atoms: C_7  and  C_3 
REMARK       I    between atoms: N_13  and  C_7 
REMARK    2  A    between atoms: C_14  and  N_13 
REMARK    3  A    between atoms: C_16  and  C_14 
REMARK    4  A    between atoms: C_15  and  C_16 
ROOT
ATOM      1  C   UNL d   1      30.869  17.590 -24.407  0.00  0.00     0.285 C 
ATOM      2  O   UNL d   1      30.827  18.028 -25.093  0.00  0.00    -0.265 OA
ATOM      3  N   UNL d   1      31.482  17.714 -23.873  0.00  0.00    -0.206 NA
ENDROOT
BRANCH   1   4
ATOM      4  C   UNL d   1      30.297  17.017 -24.238  0.00  0.00     0.133 A 
ATOM      5  C   UNL d   1      29.519  17.253 -24.097  0.00  0.00     0.272 A 
ATOM      6  N   UNL d   1      28.936  16.689 -23.927  0.00  0.00    -0.265 N 
ATOM      7  O   UNL d   1      29.312  18.049 -24.124  0.00  0.00    -0.266 OA
ATOM      8  C   UNL d   1      29.142  15.893 -23.900  0.00  0.00     0.181 A 
ATOM      9  C   UNL d   1      28.138  16.754 -23.767  0.00  0.00     0.123 A 
ATOM     10  N   UNL d   1      29.916  15.657 -24.039  0.00  0.00    -0.220 NA
ATOM     11  S   UNL d   1      28.464  15.460 -23.721  0.00  0.00    -0.049 SA
ATOM     12  C   UNL d   1      30.496  16.219 -24.209  0.00  0.00     0.111 A 
ATOM     13  C   UNL d   1      27.839  16.003 -23.639  0.00  0.00     0.043 A 
ENDBRANCH   1   4
BRANCH   3  14
ATOM     14  C   UNL d   1      32.055  18.280 -24.031  0.00  0.00     0.102 C 
BRANCH  14  15
ATOM     15  C   UNL d   1      32.729  18.348 -23.560  0.00  0.00     0.021 C 
BRANCH  15  16
ATOM     16  C   UNL d   1      32.898  19.060 -23.172  0.00  0.00     0.002 A 
ATOM     17  C   UNL d   1      33.015  19.748 -23.614  0.00  0.00     0.000 A 
ATOM     18  C   UNL d   1      33.182  20.451 -23.231  0.00  0.00     0.000 A 
ATOM     19  C   UNL d   1      33.236  20.479 -22.398  0.00  0.00     0.000 A 
ATOM     20  C   UNL d   1      33.119  19.790 -21.968  0.00  0.00     0.000 A 
ATOM     21  C   UNL d   1      32.950  19.078 -22.346  0.00  0.00     0.000 A 
ENDBRANCH  15  16
ENDBRANCH  14  15
ENDBRANCH   3  14
TORSDOF 4
ENDMDL
MODEL 4
REMARK VINA RESULT:      -1.1      1.475      2.207
REMARK  4 active torsions:
REMARK  status: ('A' for Active; 'I' for Inactive)
REMARK    1  A    between atoms: C_7  and  C_3 
REMARK       I    between atoms: N_13  and  C_7 
REMARK    2  A    between atoms: C_14  and  N_13 
REMARK    3  A    between atoms: C_16  and  C_14 
REMARK    4  A    between atoms: C_15  and  C_16 
ROOT
ATOM      1  C   UNL d   1      32.768  19.211 -23.292  0.00  0.00     0.285 C 
ATOM      2  O   UNL d   1      33.240  19.209 -23.957  0.00  0.00    -0.265 OA
ATOM      3  N   UNL d   1      32.197  18.631 -23.188  0.00  0.00    -0.206 NA
ENDROOT
BRANCH   1   4
ATOM      4  C   UNL d   1      32.858  19.798 -22.715  0.00  0.00     0.133 A 
ATOM      5  C   UNL d   1      32.976  20.580 -22.949  0.00  0.00     0.272 A 
ATOM      6  N   UNL d   1      33.067  21.176 -22.382  0.00  0.00    -0.265 N 
ATOM      7  O   UNL d   1      33.005  20.777 -23.748  0.00  0.00    -0.266 OA
ATOM      8  C   UNL d   1      33.038  20.980 -21.583  0.00  0.00     0.181 A 
ATOM      9  C   UNL d   1      33.189  21.981 -22.444  0.00  0.00     0.123 A 
ATOM     10  N   UNL d   1      32.920  20.201 -21.348  0.00  0.00    -0.220 NA
ATOM     11  S   UNL d   1      33.143  21.670 -21.147  0.00  0.00    -0.049 SA
ATOM     12  C   UNL d   1      32.830  19.608 -21.914  0.00  0.00     0.111 A 
ATOM     13  C   UNL d   1      33.237  22.294 -21.689  0.00  0.00     0.043 A 
ENDBRANCH   1   4
BRANCH   3  14
ATOM     14  C   UNL d   1      32.100  18.045 -23.755  0.00  0.00     0.102 C 
BRANCH  14  15
ATOM     15  C   UNL d   1      31.352  17.858 -24.052  0.00  0.00     0.021 C 
BRANCH  15  16
ATOM     16  C   UNL d   1      31.134  17.068 -24.169  0.00  0.00     0.002 A 
ATOM     17  C   UNL d   1      30.811  16.836 -24.892  0.00  0.00     0.000 A 
ATOM     18  C   UNL d   1      30.595  16.055 -25.007  0.00  0.00     0.000 A 
ATOM     19  C   UNL d   1      30.700  15.492 -24.399  0.00  0.00     0.000 A 
ATOM     20  C   UNL d   1      31.021  15.732 -23.684  0.00  0.00     0.000 A 
ATOM     21  C   UNL d   1      31.241  16.516 -23.560  0.00  0.00     0.000 A 
ENDBRANCH  15  16
ENDBRANCH  14  15
ENDBRANCH   3  14
TORSDOF 4
ENDMDL
