MODEL 1
REMARK VINA RESULT:      24.4      0.000      0.000
REMARK  3 active torsions:
REMARK  status: ('A' for Active; 'I' for Inactive)
REMARK    1  A    between atoms: N_7  and  C_2 
REMARK    2  A    between atoms: C_10  and  N_7 
REMARK    3  A    between atoms: C_12  and  C_10 
ROOT
ATOM      1  C   UNL d   1     -58.495 -98.756 -45.364  0.00  0.00     0.184 A 
ATOM      2  C   UNL d   1     -58.165 -98.756 -44.634  0.00  0.00     0.108 A 
ATOM      3  C   UNL d   1     -59.336 -98.756 -45.447  0.00  0.00     0.321 A 
ATOM      4  O   UNL d   1     -59.809 -98.757 -44.796  0.00  0.00    -0.272 OA
ATOM      5  C   UNL d   1     -58.646 -98.756 -43.961  0.00  0.00     0.042 A 
ATOM      6  C   UNL d   1     -59.474 -98.757 -44.043  0.00  0.00     0.105 A 
ATOM      7  O   UNL d   1     -59.688 -98.756 -46.212  0.00  0.00    -0.257 OA
ATOM      8  N   UNL d   1     -57.987 -98.755 -46.044  0.00  0.00    -0.141 N 
ATOM      9  C   UNL d   1     -58.305 -98.756 -43.219  0.00  0.00     0.004 A 
ATOM     10  C   UNL d   1     -59.949 -98.757 -43.381  0.00  0.00     0.025 A 
ATOM     11  C   UNL d   1     -58.773 -98.757 -42.545  0.00  0.00     0.000 A 
ATOM     12  C   UNL d   1     -59.614 -98.757 -42.629  0.00  0.00     0.002 A 
ENDROOT
BRANCH   2  13
ATOM     13  N   UNL d   1     -57.343 -98.755 -44.553  0.00  0.00    -0.242 NA
BRANCH  13  14
ATOM     14  C   UNL d   1     -56.906 -99.215 -45.062  0.00  0.00     0.099 C 
BRANCH  14  15
ATOM     15  C   UNL d   1     -56.174 -99.533 -44.785  0.00  0.00     0.019 A 
ATOM     16  C   UNL d   1     -56.092-100.334 -44.723  0.00  0.00     0.002 A 
ATOM     17  C   UNL d   1     -55.376-100.645 -44.452  0.00  0.00     0.000 A 
ATOM     18  C   UNL d   1     -54.761-100.148 -44.249  0.00  0.00     0.000 A 
ATOM     19  C   UNL d   1     -54.855 -99.326 -44.316  0.00  0.00     0.000 A 
ATOM     20  C   UNL d   1     -55.571 -99.017 -44.587  0.00  0.00     0.002 A 
ENDBRANCH  14  15
ENDBRANCH  13  14
ENDBRANCH   2  13
TORSDOF 3
ENDMDL
