MODEL 1
REMARK VINA RESULT:      33.0      0.000      0.000
REMARK  4 active torsions:
REMARK  status: ('A' for Active; 'I' for Inactive)
REMARK    1  A    between atoms: C_7  and  N_2 
REMARK    2  A    between atoms: C_10  and  C_7 
REMARK    3  A    between atoms: O_8  and  C_10 
REMARK    4  A    between atoms: C_9  and  O_8 
ROOT
ATOM      1  C   UNL d   1      56.831  49.392  51.600  0.00  0.00     0.296 A 
ATOM      2  N   UNL d   1      57.488  49.547  51.129  0.00  0.00    -0.266 N 
ATOM      3  S   UNL d   1      56.178  49.262  51.089  0.00  0.00    -0.025 SA
ATOM      4  C   UNL d   1      57.250  49.515  50.335  0.00  0.00     0.074 A 
ATOM      5  C   UNL d   1      56.448  49.340  50.311  0.00  0.00     0.050 A 
ATOM      6  O   UNL d   1      56.811  49.368  52.420  0.00  0.00    -0.259 OA
ATOM      7  C   UNL d   1      57.674  49.624  49.633  0.00  0.00     0.018 A 
ATOM      8  C   UNL d   1      56.052  49.271  49.585  0.00  0.00     0.008 A 
ATOM      9  C   UNL d   1      57.284  49.557  48.908  0.00  0.00     0.002 A 
ATOM     10  C   UNL d   1      56.482  49.382  48.884  0.00  0.00     0.001 A 
ENDROOT
BRANCH   2  11
ATOM     11  C   UNL d   1      58.250  49.708  51.399  0.00  0.00     0.110 C 
BRANCH  11  12
ATOM     12  C   UNL d   1      58.898  49.313  51.079  0.00  0.00     0.142 C 
BRANCH  12  13
ATOM     13  O   UNL d   1      59.483  48.988  51.566  0.00  0.00    -0.304 OA
BRANCH  13  14
ATOM     14  C   UNL d   1      60.276  49.182  51.450  0.00  0.00     0.100 A 
ATOM     15  C   UNL d   1      60.807  49.133  52.080  0.00  0.00     0.025 A 
ATOM     16  C   UNL d   1      61.597  49.326  51.965  0.00  0.00     0.002 A 
ATOM     17  C   UNL d   1      61.854  49.568  51.219  0.00  0.00     0.000 A 
ATOM     18  C   UNL d   1      61.319  49.616  50.589  0.00  0.00     0.002 A 
ATOM     19  C   UNL d   1      60.529  49.420  50.714  0.00  0.00     0.025 A 
ENDBRANCH  13  14
ENDBRANCH  12  13
ENDBRANCH  11  12
ENDBRANCH   2  11
TORSDOF 4
ENDMDL
