MODEL 1
REMARK VINA RESULT:      50.3      0.000      0.000
REMARK  9 active torsions:
REMARK  status: ('A' for Active; 'I' for Inactive)
REMARK    1  A    between atoms: C_2  and  N_1 
REMARK    2  A    between atoms: C_6  and  C_2 
REMARK    3  A    between atoms: C_8  and  C_2 
REMARK    4  A    between atoms: C_10  and  N_3 
REMARK       I    between atoms: C_4  and  N_7 
REMARK    5  A    between atoms: C_5  and  C_4 
REMARK       I    between atoms: N_9  and  C_5 
REMARK    6  A    between atoms: N_7  and  C_8 
REMARK    7  A    between atoms: C_24  and  N_9 
REMARK    8  A    between atoms: C_26  and  C_24 
REMARK    9  A    between atoms: O_29  and  C_25 
ROOT
ATOM      1  C   UNL d   1      46.197 -18.316  42.320  0.00  0.00     0.106 C 
ENDROOT
BRANCH   1   2
ATOM      2  N   UNL d   1      45.972 -18.046  41.564  0.00  0.00    -0.298 N 
ATOM      3  C   UNL d   1      46.484 -18.122  40.932  0.00  0.00     0.100 A 
ATOM      4  C   UNL d   1      46.259 -17.852  40.177  0.00  0.00     0.100 A 
ATOM      5  N   UNL d   1      45.517 -17.508  40.071  0.00  0.00    -0.301 N 
ATOM      6  C   UNL d   1      45.004 -17.436  40.721  0.00  0.00     0.100 A 
ATOM      7  C   UNL d   1      45.229 -17.702  41.459  0.00  0.00     0.100 A 
BRANCH   5   8
ATOM      8  C   UNL d   1      45.290 -17.243  39.343  0.00  0.00     0.064 A 
ATOM      9  C   UNL d   1      44.812 -17.717  38.855  0.00  0.00     0.020 A 
ATOM     10  C   UNL d   1      44.577 -17.455  38.111  0.00  0.00     0.026 A 
ATOM     11  C   UNL d   1      44.817 -16.712  37.844  0.00  0.00     0.094 A 
ATOM     12  C   UNL d   1      45.296 -16.234  38.331  0.00  0.00     0.026 A 
ATOM     13  C   UNL d   1      45.530 -16.500  39.076  0.00  0.00     0.020 A 
BRANCH  11  14
ATOM     14  O   UNL d   1      44.580 -16.446  37.096  0.00  0.00    -0.328 OA
ATOM     15  C   UNL d   1      44.574 -15.638  36.926  0.00  0.00     0.181 C 
ENDBRANCH  11  14
ENDBRANCH   5   8
ENDBRANCH   1   2
BRANCH   1  16
ATOM     16  C   UNL d   1      46.042 -19.114  42.530  0.00  0.00     0.118 A 
ATOM     17  O   UNL d   1      45.357 -19.578  42.487  0.00  0.00    -0.304 OA
ATOM     18  C   UNL d   1      45.553 -20.330  42.780  0.00  0.00     0.123 A 
ATOM     19  C   UNL d   1      46.338 -20.330  42.997  0.00  0.00     0.029 A 
ATOM     20  C   UNL d   1      46.645 -19.575  42.842  0.00  0.00     0.028 A 
ENDBRANCH   1  16
BRANCH   1  21
ATOM     21  C   UNL d   1      46.566 -17.819  42.861  0.00  0.00     0.122 C 
BRANCH  21  22
ATOM     22  N   UNL d   1      46.116 -17.232  43.258  0.00  0.00    -0.201 NA
ATOM     23  C   UNL d   1      46.163 -17.156  44.076  0.00  0.00     0.337 C 
ATOM     24  O   UNL d   1      46.647 -17.650  44.508  0.00  0.00    -0.260 OA
BRANCH  23  25
ATOM     25  C   UNL d   1      45.716 -16.578  44.449  0.00  0.00     0.337 C 
ATOM     26  N   UNL d   1      45.971 -15.793  44.428  0.00  0.00    -0.200 NA
ATOM     27  O   UNL d   1      45.023 -16.768  44.839  0.00  0.00    -0.260 OA
BRANCH  26  28
ATOM     28  C   UNL d   1      45.528 -15.205  44.800  0.00  0.00     0.127 C 
BRANCH  28  29
ATOM     29  C   UNL d   1      45.469 -14.456  44.460  0.00  0.00     0.119 A 
ATOM     30  O   UNL d   1      45.079 -14.185  43.785  0.00  0.00    -0.304 OA
ATOM     31  C   UNL d   1      45.223 -13.372  43.725  0.00  0.00     0.123 A 
ATOM     32  C   UNL d   1      45.693 -13.146  44.353  0.00  0.00     0.029 A 
ATOM     33  C   UNL d   1      45.849 -13.813  44.811  0.00  0.00     0.028 A 
ENDBRANCH  28  29
ENDBRANCH  26  28
ENDBRANCH  23  25
ENDBRANCH  21  22
ENDBRANCH   1  21
TORSDOF 9
ENDMDL
