MODEL 1
REMARK VINA RESULT:      -9.5      0.000      0.000
REMARK  2 active torsions:
REMARK  status: ('A' for Active; 'I' for Inactive)
REMARK    1  A    between atoms: N_6  and  C_1 
REMARK    2  A    between atoms: C_7  and  C_2 
REMARK       I    between atoms: C_8  and  N_6 
ROOT
ATOM      1  C   UNL d   1      53.236  32.173  53.539  0.00  0.00     0.119 A 
ATOM      2  C   UNL d   1      53.536  32.846  53.855  0.00  0.00     0.084 A 
ATOM      3  S   UNL d   1      52.573  32.373  53.072  0.00  0.00    -0.068 SA
ATOM      4  C   UNL d   1      53.084  33.470  53.603  0.00  0.00     0.013 A 
ATOM      5  C   UNL d   1      52.482  33.173  53.113  0.00  0.00     0.031 A 
ATOM      6  C   UNL d   1      53.136  34.278  53.752  0.00  0.00     0.001 A 
ATOM      7  C   UNL d   1      51.943  33.702  52.782  0.00  0.00     0.006 A 
ATOM      8  C   UNL d   1      52.585  34.799  53.412  0.00  0.00     0.000 A 
ATOM      9  C   UNL d   1      52.008  34.501  52.940  0.00  0.00     0.001 A 
ENDROOT
BRANCH   1  10
ATOM     10  N   UNL d   1      53.551  31.390  53.668  0.00  0.00    -0.201 NA
ATOM     11  C   UNL d   1      53.191  30.723  53.351  0.00  0.00     0.280 C 
ATOM     12  O   UNL d   1      52.495  30.797  52.886  0.00  0.00    -0.265 OA
ATOM     13  C   UNL d   1      53.505  29.971  53.483  0.00  0.00     0.068 C 
ENDBRANCH   1  10
BRANCH   2  14
ATOM     14  C   UNL d   1      54.209  32.873  54.363  0.00  0.00     0.299 C 
ATOM     15  O   UNL d   1      54.956  32.962  54.009  0.00  0.00    -0.264 OA
ATOM     16  N   UNL d   1      54.141  32.814  55.178  0.00  0.00    -0.102 N 
ENDBRANCH   2  14
TORSDOF 2
ENDMDL
MODEL 2
REMARK VINA RESULT:      -9.2      1.363      2.767
REMARK  2 active torsions:
REMARK  status: ('A' for Active; 'I' for Inactive)
REMARK    1  A    between atoms: N_6  and  C_1 
REMARK    2  A    between atoms: C_7  and  C_2 
REMARK       I    between atoms: C_8  and  N_6 
ROOT
ATOM      1  C   UNL d   1      53.251  33.439  53.959  0.00  0.00     0.119 A 
ATOM      2  C   UNL d   1      53.741  32.846  54.185  0.00  0.00     0.084 A 
ATOM      3  S   UNL d   1      52.697  33.132  53.416  0.00  0.00    -0.068 SA
ATOM      4  C   UNL d   1      53.515  32.169  53.802  0.00  0.00     0.013 A 
ATOM      5  C   UNL d   1      52.862  32.348  53.321  0.00  0.00     0.031 A 
ATOM      6  C   UNL d   1      53.816  31.402  53.823  0.00  0.00     0.001 A 
ATOM      7  C   UNL d   1      52.526  31.746  52.869  0.00  0.00     0.006 A 
ATOM      8  C   UNL d   1      53.466  30.806  53.362  0.00  0.00     0.000 A 
ATOM      9  C   UNL d   1      52.835  30.991  52.900  0.00  0.00     0.001 A 
ENDROOT
BRANCH   1  10
ATOM     10  N   UNL d   1      53.301  34.245  54.236  0.00  0.00    -0.201 NA
ATOM     11  C   UNL d   1      52.837  34.842  53.911  0.00  0.00     0.280 C 
ATOM     12  O   UNL d   1      52.298  34.669  53.291  0.00  0.00    -0.265 OA
ATOM     13  C   UNL d   1      52.894  35.617  54.187  0.00  0.00     0.068 C 
ENDBRANCH   1  10
BRANCH   2  14
ATOM     14  C   UNL d   1      54.377  32.938  54.733  0.00  0.00     0.299 C 
ATOM     15  O   UNL d   1      55.119  33.157  54.430  0.00  0.00    -0.264 OA
ATOM     16  N   UNL d   1      54.277  32.818  55.538  0.00  0.00    -0.102 N 
ENDBRANCH   2  14
TORSDOF 2
ENDMDL
MODEL 3
REMARK VINA RESULT:      -9.0      1.350      1.996
REMARK  2 active torsions:
REMARK  status: ('A' for Active; 'I' for Inactive)
REMARK    1  A    between atoms: N_6  and  C_1 
REMARK    2  A    between atoms: C_7  and  C_2 
REMARK       I    between atoms: C_8  and  N_6 
ROOT
ATOM      1  C   UNL d   1      53.156  31.999  53.495  0.00  0.00     0.119 A 
ATOM      2  C   UNL d   1      52.874  32.750  53.504  0.00  0.00     0.084 A 
ATOM      3  S   UNL d   1      53.817  31.960  54.004  0.00  0.00    -0.068 SA
ATOM      4  C   UNL d   1      53.335  33.190  54.003  0.00  0.00     0.013 A 
ATOM      5  C   UNL d   1      53.925  32.696  54.316  0.00  0.00     0.031 A 
ATOM      6  C   UNL d   1      53.302  33.984  54.222  0.00  0.00     0.001 A 
ATOM      7  C   UNL d   1      54.471  33.015  54.845  0.00  0.00     0.006 A 
ATOM      8  C   UNL d   1      53.859  34.291  54.756  0.00  0.00     0.000 A 
ATOM      9  C   UNL d   1      54.425  33.804  55.051  0.00  0.00     0.001 A 
ENDROOT
BRANCH   1  10
ATOM     10  N   UNL d   1      52.826  31.359  53.038  0.00  0.00    -0.201 NA
ATOM     11  C   UNL d   1      53.047  30.578  53.168  0.00  0.00     0.280 C 
ATOM     12  O   UNL d   1      53.610  30.390  53.762  0.00  0.00    -0.265 OA
ATOM     13  C   UNL d   1      52.720  29.967  52.719  0.00  0.00     0.068 C 
ENDBRANCH   1  10
BRANCH   2  14
ATOM     14  C   UNL d   1      52.206  33.011  53.059  0.00  0.00     0.299 C 
ATOM     15  O   UNL d   1      52.334  33.246  52.272  0.00  0.00    -0.264 OA
ATOM     16  N   UNL d   1      51.452  33.036  53.382  0.00  0.00    -0.102 N 
ENDBRANCH   2  14
TORSDOF 2
ENDMDL
MODEL 4
REMARK VINA RESULT:      -8.8      1.602      2.888
REMARK  2 active torsions:
REMARK  status: ('A' for Active; 'I' for Inactive)
REMARK    1  A    between atoms: N_6  and  C_1 
REMARK    2  A    between atoms: C_7  and  C_2 
REMARK       I    between atoms: C_8  and  N_6 
ROOT
ATOM      1  C   UNL d   1      52.291  33.424  53.455  0.00  0.00     0.119 A 
ATOM      2  C   UNL d   1      52.794  32.800  53.481  0.00  0.00     0.084 A 
ATOM      3  S   UNL d   1      52.591  34.026  53.950  0.00  0.00    -0.068 SA
ATOM      4  C   UNL d   1      53.406  32.985  53.978  0.00  0.00     0.013 A 
ATOM      5  C   UNL d   1      53.278  33.752  54.272  0.00  0.00     0.031 A 
ATOM      6  C   UNL d   1      54.071  32.558  54.210  0.00  0.00     0.001 A 
ATOM      7  C   UNL d   1      53.829  34.073  54.795  0.00  0.00     0.006 A 
ATOM      8  C   UNL d   1      54.617  32.895  54.739  0.00  0.00     0.000 A 
ATOM      9  C   UNL d   1      54.483  33.637  55.015  0.00  0.00     0.001 A 
ENDROOT
BRANCH   1  10
ATOM     10  N   UNL d   1      51.574  33.455  52.993  0.00  0.00    -0.201 NA
ATOM     11  C   UNL d   1      51.142  34.150  52.914  0.00  0.00     0.280 C 
ATOM     12  O   UNL d   1      51.399  34.855  53.290  0.00  0.00    -0.265 OA
ATOM     13  C   UNL d   1      50.449  34.166  52.465  0.00  0.00     0.068 C 
ENDBRANCH   1  10
BRANCH   2  14
ATOM     14  C   UNL d   1      52.681  32.082  53.052  0.00  0.00     0.299 C 
ATOM     15  O   UNL d   1      53.002  32.033  52.287  0.00  0.00    -0.264 OA
ATOM     16  N   UNL d   1      52.271  31.447  53.370  0.00  0.00    -0.102 N 
ENDBRANCH   2  14
TORSDOF 2
ENDMDL
MODEL 5
REMARK VINA RESULT:      -8.6      1.569      3.299
REMARK  2 active torsions:
REMARK  status: ('A' for Active; 'I' for Inactive)
REMARK    1  A    between atoms: N_6  and  C_1 
REMARK    2  A    between atoms: C_7  and  C_2 
REMARK       I    between atoms: C_8  and  N_6 
ROOT
ATOM      1  C   UNL d   1      52.877  33.616  53.731  0.00  0.00     0.119 A 
ATOM      2  C   UNL d   1      52.415  33.138  53.282  0.00  0.00     0.084 A 
ATOM      3  S   UNL d   1      53.513  33.164  54.030  0.00  0.00    -0.068 SA
ATOM      4  C   UNL d   1      52.737  32.395  53.285  0.00  0.00     0.013 A 
ATOM      5  C   UNL d   1      53.424  32.411  53.753  0.00  0.00     0.031 A 
ATOM      6  C   UNL d   1      52.500  31.694  52.922  0.00  0.00     0.001 A 
ATOM      7  C   UNL d   1      53.858  31.716  53.845  0.00  0.00     0.006 A 
ATOM      8  C   UNL d   1      52.948  31.002  53.025  0.00  0.00     0.000 A 
ATOM      9  C   UNL d   1      53.609  31.030  53.479  0.00  0.00     0.001 A 
ENDROOT
BRANCH   1  10
ATOM     10  N   UNL d   1      52.731  34.445  53.872  0.00  0.00    -0.201 NA
ATOM     11  C   UNL d   1      53.188  34.879  54.399  0.00  0.00     0.280 C 
ATOM     12  O   UNL d   1      53.817  34.513  54.817  0.00  0.00    -0.265 OA
ATOM     13  C   UNL d   1      53.037  35.681  54.526  0.00  0.00     0.068 C 
ENDBRANCH   1  10
BRANCH   2  14
ATOM     14  C   UNL d   1      51.716  33.392  52.883  0.00  0.00     0.299 C 
ATOM     15  O   UNL d   1      51.795  33.677  52.107  0.00  0.00    -0.264 OA
ATOM     16  N   UNL d   1      50.979  33.363  53.241  0.00  0.00    -0.102 N 
ENDBRANCH   2  14
TORSDOF 2
ENDMDL
MODEL 6
REMARK VINA RESULT:      -8.3      1.917      2.889
REMARK  2 active torsions:
REMARK  status: ('A' for Active; 'I' for Inactive)
REMARK    1  A    between atoms: N_6  and  C_1 
REMARK    2  A    between atoms: C_7  and  C_2 
REMARK       I    between atoms: C_8  and  N_6 
ROOT
ATOM      1  C   UNL d   1      52.428  34.015  53.678  0.00  0.00     0.119 A 
ATOM      2  C   UNL d   1      52.981  34.414  54.100  0.00  0.00     0.084 A 
ATOM      3  S   UNL d   1      52.602  33.200  53.719  0.00  0.00    -0.068 SA
ATOM      4  C   UNL d   1      53.503  33.878  54.409  0.00  0.00     0.013 A 
ATOM      5  C   UNL d   1      53.265  33.118  54.170  0.00  0.00     0.031 A 
ATOM      6  C   UNL d   1      54.171  33.973  54.881  0.00  0.00     0.001 A 
ATOM      7  C   UNL d   1      53.711  32.468  54.415  0.00  0.00     0.006 A 
ATOM      8  C   UNL d   1      54.609  33.309  55.119  0.00  0.00     0.000 A 
ATOM      9  C   UNL d   1      54.371  32.580  54.883  0.00  0.00     0.001 A 
ENDROOT
BRANCH   1  10
ATOM     10  N   UNL d   1      51.776  34.377  53.262  0.00  0.00    -0.201 NA
ATOM     11  C   UNL d   1      51.114  33.944  53.039  0.00  0.00     0.280 C 
ATOM     12  O   UNL d   1      51.063  33.125  53.217  0.00  0.00    -0.265 OA
ATOM     13  C   UNL d   1      50.490  34.305  52.637  0.00  0.00     0.068 C 
ENDBRANCH   1  10
BRANCH   2  14
ATOM     14  C   UNL d   1      52.994  35.253  54.191  0.00  0.00     0.299 C 
ATOM     15  O   UNL d   1      53.382  35.700  53.607  0.00  0.00    -0.264 OA
ATOM     16  N   UNL d   1      52.639  35.626  54.830  0.00  0.00    -0.102 N 
ENDBRANCH   2  14
TORSDOF 2
ENDMDL
MODEL 7
REMARK VINA RESULT:      -8.1      1.238      2.370
REMARK  2 active torsions:
REMARK  status: ('A' for Active; 'I' for Inactive)
REMARK    1  A    between atoms: N_6  and  C_1 
REMARK    2  A    between atoms: C_7  and  C_2 
REMARK       I    between atoms: C_8  and  N_6 
ROOT
ATOM      1  C   UNL d   1      53.309  33.481  53.973  0.00  0.00     0.119 A 
ATOM      2  C   UNL d   1      52.906  33.000  53.474  0.00  0.00     0.084 A 
ATOM      3  S   UNL d   1      52.908  34.212  54.018  0.00  0.00    -0.068 SA
ATOM      4  C   UNL d   1      52.259  33.402  53.199  0.00  0.00     0.013 A 
ATOM      5  C   UNL d   1      52.261  34.161  53.539  0.00  0.00     0.031 A 
ATOM      6  C   UNL d   1      51.659  33.183  52.678  0.00  0.00     0.001 A 
ATOM      7  C   UNL d   1      51.653  34.683  53.345  0.00  0.00     0.006 A 
ATOM      8  C   UNL d   1      51.054  33.722  52.493  0.00  0.00     0.000 A 
ATOM      9  C   UNL d   1      51.066  34.451  52.827  0.00  0.00     0.001 A 
ENDROOT
BRANCH   1  10
ATOM     10  N   UNL d   1      54.027  33.268  54.383  0.00  0.00    -0.201 NA
ATOM     11  C   UNL d   1      54.391  33.784  54.911  0.00  0.00     0.280 C 
ATOM     12  O   UNL d   1      54.060  34.541  55.061  0.00  0.00    -0.265 OA
ATOM     13  C   UNL d   1      55.084  33.566  55.301  0.00  0.00     0.068 C 
ENDBRANCH   1  10
BRANCH   2  14
ATOM     14  C   UNL d   1      53.138  32.211  53.284  0.00  0.00     0.299 C 
ATOM     15  O   UNL d   1      53.635  32.102  52.627  0.00  0.00    -0.264 OA
ATOM     16  N   UNL d   1      52.889  31.568  53.727  0.00  0.00    -0.102 N 
ENDBRANCH   2  14
TORSDOF 2
ENDMDL
