MODEL 1
REMARK VINA RESULT:      45.7      0.000      0.000
REMARK  8 active torsions:
REMARK  status: ('A' for Active; 'I' for Inactive)
REMARK    1  A    between atoms: C_16  and  N_1 
REMARK    2  A    between atoms: S_7  and  C_2 
REMARK       I    between atoms: C_6  and  N_12 
REMARK    3  A    between atoms: C_9  and  C_6 
REMARK    4  A    between atoms: C_13  and  S_7 
REMARK    5  A    between atoms: C_8  and  C_13 
REMARK    6  A    between atoms: N_12  and  C_22 
REMARK    7  A    between atoms: C_22  and  C_16 
REMARK    8  A    between atoms: O_24  and  C_18 
ROOT
ATOM      1  N   UNL d   1      13.523  14.008  -3.518  0.00  0.00    -0.302 N 
ATOM      2  C   UNL d   1      13.856  12.964  -2.750  0.00  0.00     0.049 A 
ATOM      3  C   UNL d   1      13.870  13.788  -2.795  0.00  0.00     0.087 A 
ATOM      4  C   UNL d   1      13.501  12.666  -3.442  0.00  0.00     0.024 A 
ATOM      5  C   UNL d   1      13.295  13.319  -3.918  0.00  0.00     0.065 A 
ATOM      6  C   UNL d   1      13.337  11.906  -3.708  0.00  0.00     0.002 A 
ATOM      7  C   UNL d   1      12.927  13.197  -4.654  0.00  0.00     0.018 A 
ATOM      8  C   UNL d   1      12.975  11.783  -4.432  0.00  0.00     0.000 A 
ATOM      9  C   UNL d   1      12.769  12.436  -4.907  0.00  0.00     0.002 A 
ENDROOT
BRANCH   1  10
ATOM     10  C   UNL d   1      13.423  14.781  -3.790  0.00  0.00     0.101 C 
BRANCH  10  11
ATOM     11  C   UNL d   1      14.080  15.258  -3.936  0.00  0.00     0.121 C 
BRANCH  11  12
ATOM     12  N   UNL d   1      14.005  15.940  -4.393  0.00  0.00    -0.205 NA
ATOM     13  C   UNL d   1      14.649  16.443  -4.491  0.00  0.00     0.279 C 
ATOM     14  O   UNL d   1      15.372  16.268  -4.134  0.00  0.00    -0.265 OA
BRANCH  13  15
ATOM     15  C   UNL d   1      14.574  17.125  -4.948  0.00  0.00     0.058 A 
ATOM     16  C   UNL d   1      15.091  17.771  -4.821  0.00  0.00     0.007 A 
ATOM     17  C   UNL d   1      15.017  18.454  -5.277  0.00  0.00     0.024 A 
ATOM     18  C   UNL d   1      14.426  18.489  -5.859  0.00  0.00     0.094 A 
ATOM     19  C   UNL d   1      13.918  17.851  -5.982  0.00  0.00     0.024 A 
ATOM     20  C   UNL d   1      13.995  17.177  -5.528  0.00  0.00     0.007 A 
BRANCH  18  21
ATOM     21  O   UNL d   1      14.341  19.177  -6.329  0.00  0.00    -0.328 OA
ATOM     22  C   UNL d   1      14.578  19.923  -6.053  0.00  0.00     0.181 C 
ENDBRANCH  18  21
ENDBRANCH  13  15
ENDBRANCH  11  12
ENDBRANCH  10  11
ENDBRANCH   1  10
BRANCH   2  23
ATOM     23  S   UNL d   1      14.143  12.503  -2.128  0.00  0.00    -0.080 SA
BRANCH  23  24
ATOM     24  C   UNL d   1      14.527  12.865  -1.489  0.00  0.00     0.100 C 
BRANCH  24  25
ATOM     25  C   UNL d   1      14.674  12.445  -0.798  0.00  0.00     0.303 C 
ATOM     26  O   UNL d   1      15.175  11.790  -0.817  0.00  0.00    -0.263 OA
ATOM     27  N   UNL d   1      14.323  12.676  -0.088  0.00  0.00    -0.102 N 
ENDBRANCH  24  25
ENDBRANCH  23  24
ENDBRANCH   2  23
TORSDOF 8
ENDMDL
