MODEL 1
REMARK VINA RESULT:      -7.3      0.000      0.000
REMARK  5 active torsions:
REMARK  status: ('A' for Active; 'I' for Inactive)
REMARK    1  A    between atoms: C_8  and  N_1 
REMARK       I    between atoms: N_2  and  C_4 
REMARK    2  A    between atoms: C_3  and  N_2 
REMARK    3  A    between atoms: N_6  and  C_3 
REMARK    4  A    between atoms: C_4  and  C_12 
REMARK    5  A    between atoms: C_7  and  N_6 
ROOT
ATOM      1  N   UNL d   1      52.659  32.480  53.082  0.00  0.00    -0.168 NA
ATOM      2  C   UNL d   1      52.387  33.163  53.457  0.00  0.00     0.282 C 
ATOM      3  O   UNL d   1      52.784  33.461  54.110  0.00  0.00    -0.265 OA
ENDROOT
BRANCH   2   4
ATOM      4  C   UNL d   1      51.713  33.548  53.171  0.00  0.00     0.058 A 
ATOM      5  C   UNL d   1      50.968  33.340  53.475  0.00  0.00     0.006 A 
ATOM      6  C   UNL d   1      50.298  33.718  53.195  0.00  0.00     0.024 A 
ATOM      7  C   UNL d   1      50.364  34.303  52.613  0.00  0.00     0.127 A 
ATOM      8  C   UNL d   1      51.107  34.504  52.315  0.00  0.00     0.024 A 
ATOM      9  C   UNL d   1      51.781  34.120  52.601  0.00  0.00     0.006 A 
BRANCH   7  10
ATOM     10  N   UNL d   1      49.690  34.681  52.333  0.00  0.00    -0.114 N 
ATOM     11  O   UNL d   1      49.429  34.552  51.560  0.00  0.00    -0.532 OA
ATOM     12  O   UNL d   1      49.275  35.189  52.826  0.00  0.00    -0.532 OA
ENDBRANCH   7  10
ENDBRANCH   2   4
BRANCH   1  13
ATOM     13  C   UNL d   1      53.329  32.093  53.360  0.00  0.00     0.275 C 
ATOM     14  S   UNL d   1      54.031  32.512  53.457  0.00  0.00    -0.023 SA
BRANCH  13  15
ATOM     15  N   UNL d   1      53.302  31.291  53.543  0.00  0.00    -0.369 NA
BRANCH  15  16
ATOM     16  C   UNL d   1      53.279  30.505  53.726  0.00  0.00     0.180 A 
ATOM     17  C   UNL d   1      53.172  29.888  53.338  0.00  0.00     0.255 A 
ATOM     18  S   UNL d   1      53.184  29.229  53.682  0.00  0.00    -0.043 SA
ATOM     19  O   UNL d   1      53.055  29.920  52.616  0.00  0.00    -0.277 OA
ATOM     20  C   UNL d   1      53.302  29.197  54.404  0.00  0.00     0.041 A 
ATOM     21  C   UNL d   1      53.408  29.813  54.792  0.00  0.00     0.043 A 
ENDBRANCH  15  16
ENDBRANCH  13  15
ENDBRANCH   1  13
TORSDOF 5
ENDMDL
MODEL 2
REMARK VINA RESULT:      -6.8      1.696      4.849
REMARK  5 active torsions:
REMARK  status: ('A' for Active; 'I' for Inactive)
REMARK    1  A    between atoms: C_8  and  N_1 
REMARK       I    between atoms: N_2  and  C_4 
REMARK    2  A    between atoms: C_3  and  N_2 
REMARK    3  A    between atoms: N_6  and  C_3 
REMARK    4  A    between atoms: C_4  and  C_12 
REMARK    5  A    between atoms: C_7  and  N_6 
ROOT
ATOM      1  N   UNL d   1      52.082  33.180  53.316  0.00  0.00    -0.168 NA
ATOM      2  C   UNL d   1      52.754  32.814  53.009  0.00  0.00     0.282 C 
ATOM      3  O   UNL d   1      53.253  33.225  52.504  0.00  0.00    -0.265 OA
ENDROOT
BRANCH   2   4
ATOM      4  C   UNL d   1      52.924  32.030  53.211  0.00  0.00     0.058 A 
ATOM      5  C   UNL d   1      52.541  31.414  52.806  0.00  0.00     0.006 A 
ATOM      6  C   UNL d   1      52.706  30.637  53.003  0.00  0.00     0.024 A 
ATOM      7  C   UNL d   1      53.252  30.467  53.603  0.00  0.00     0.127 A 
ATOM      8  C   UNL d   1      53.628  31.085  54.001  0.00  0.00     0.024 A 
ATOM      9  C   UNL d   1      53.459  31.868  53.799  0.00  0.00     0.006 A 
BRANCH   7  10
ATOM     10  N   UNL d   1      53.415  29.687  53.799  0.00  0.00    -0.114 N 
ATOM     11  O   UNL d   1      52.826  29.205  54.121  0.00  0.00    -0.532 OA
ATOM     12  O   UNL d   1      54.168  29.386  53.674  0.00  0.00    -0.532 OA
ENDBRANCH   7  10
ENDBRANCH   2   4
BRANCH   1  13
ATOM     13  C   UNL d   1      51.907  33.959  53.119  0.00  0.00     0.275 C 
ATOM     14  S   UNL d   1      52.469  34.548  53.248  0.00  0.00    -0.023 SA
BRANCH  13  15
ATOM     15  N   UNL d   1      51.176  34.154  52.795  0.00  0.00    -0.369 NA
BRANCH  15  16
ATOM     16  C   UNL d   1      50.460  34.343  52.474  0.00  0.00     0.180 A 
ATOM     17  C   UNL d   1      49.843  34.650  52.734  0.00  0.00     0.255 A 
ATOM     18  S   UNL d   1      49.261  34.751  52.281  0.00  0.00    -0.043 SA
ATOM     19  O   UNL d   1      49.799  34.857  53.435  0.00  0.00    -0.277 OA
ATOM     20  C   UNL d   1      49.306  34.544  51.580  0.00  0.00     0.041 A 
ATOM     21  C   UNL d   1      49.922  34.237  51.320  0.00  0.00     0.043 A 
ENDBRANCH  15  16
ENDBRANCH  13  15
ENDBRANCH   1  13
TORSDOF 5
ENDMDL
MODEL 3
REMARK VINA RESULT:      -6.8      2.821      5.447
REMARK  5 active torsions:
REMARK  status: ('A' for Active; 'I' for Inactive)
REMARK    1  A    between atoms: C_8  and  N_1 
REMARK       I    between atoms: N_2  and  C_4 
REMARK    2  A    between atoms: C_3  and  N_2 
REMARK    3  A    between atoms: N_6  and  C_3 
REMARK    4  A    between atoms: C_4  and  C_12 
REMARK    5  A    between atoms: C_7  and  N_6 
ROOT
ATOM      1  N   UNL d   1      50.414  34.501  52.959  0.00  0.00    -0.168 NA
ATOM      2  C   UNL d   1      51.160  34.330  52.650  0.00  0.00     0.282 C 
ATOM      3  O   UNL d   1      51.262  34.251  51.840  0.00  0.00    -0.265 OA
ENDROOT
BRANCH   2   4
ATOM      4  C   UNL d   1      51.805  34.238  53.160  0.00  0.00     0.058 A 
ATOM      5  C   UNL d   1      52.265  34.901  53.355  0.00  0.00     0.006 A 
ATOM      6  C   UNL d   1      52.904  34.815  53.859  0.00  0.00     0.024 A 
ATOM      7  C   UNL d   1      53.089  34.071  54.173  0.00  0.00     0.127 A 
ATOM      8  C   UNL d   1      52.626  33.416  53.975  0.00  0.00     0.024 A 
ATOM      9  C   UNL d   1      51.982  33.508  53.465  0.00  0.00     0.006 A 
BRANCH   7  10
ATOM     10  N   UNL d   1      53.730  33.987  54.679  0.00  0.00    -0.114 N 
ATOM     11  O   UNL d   1      54.244  33.345  54.598  0.00  0.00    -0.532 OA
ATOM     12  O   UNL d   1      53.859  34.544  55.267  0.00  0.00    -0.532 OA
ENDBRANCH   7  10
ENDBRANCH   2   4
BRANCH   1  13
ATOM     13  C   UNL d   1      49.769  34.593  52.458  0.00  0.00     0.275 C 
ATOM     14  S   UNL d   1      49.744  34.179  51.746  0.00  0.00    -0.023 SA
BRANCH  13  15
ATOM     15  N   UNL d   1      49.149  35.095  52.662  0.00  0.00    -0.369 NA
BRANCH  15  16
ATOM     16  C   UNL d   1      48.543  35.587  52.866  0.00  0.00     0.180 A 
ATOM     17  C   UNL d   1      47.951  35.849  52.516  0.00  0.00     0.255 A 
ATOM     18  S   UNL d   1      47.484  36.307  52.871  0.00  0.00    -0.043 SA
ATOM     19  O   UNL d   1      47.818  35.660  51.821  0.00  0.00    -0.277 OA
ATOM     20  C   UNL d   1      47.618  36.495  53.566  0.00  0.00     0.041 A 
ATOM     21  C   UNL d   1      48.209  36.234  53.916  0.00  0.00     0.043 A 
ENDBRANCH  15  16
ENDBRANCH  13  15
ENDBRANCH   1  13
TORSDOF 5
ENDMDL
MODEL 4
REMARK VINA RESULT:      -6.7      1.940      2.465
REMARK  5 active torsions:
REMARK  status: ('A' for Active; 'I' for Inactive)
REMARK    1  A    between atoms: C_8  and  N_1 
REMARK       I    between atoms: N_2  and  C_4 
REMARK    2  A    between atoms: C_3  and  N_2 
REMARK    3  A    between atoms: N_6  and  C_3 
REMARK    4  A    between atoms: C_4  and  C_12 
REMARK    5  A    between atoms: C_7  and  N_6 
ROOT
ATOM      1  N   UNL d   1      51.895  33.181  53.370  0.00  0.00    -0.168 NA
ATOM      2  C   UNL d   1      51.665  33.577  52.684  0.00  0.00     0.282 C 
ATOM      3  O   UNL d   1      52.136  33.547  52.013  0.00  0.00    -0.265 OA
ENDROOT
BRANCH   2   4
ATOM      4  C   UNL d   1      50.957  34.004  52.675  0.00  0.00     0.058 A 
ATOM      5  C   UNL d   1      50.521  34.052  51.969  0.00  0.00     0.006 A 
ATOM      6  C   UNL d   1      49.820  34.473  51.955  0.00  0.00     0.024 A 
ATOM      7  C   UNL d   1      49.547  34.849  52.642  0.00  0.00     0.127 A 
ATOM      8  C   UNL d   1      49.985  34.797  53.340  0.00  0.00     0.024 A 
ATOM      9  C   UNL d   1      50.693  34.370  53.348  0.00  0.00     0.006 A 
BRANCH   7  10
ATOM     10  N   UNL d   1      48.842  35.272  52.625  0.00  0.00    -0.114 N 
ATOM     11  O   UNL d   1      48.351  35.238  51.962  0.00  0.00    -0.532 OA
ATOM     12  O   UNL d   1      48.628  35.728  53.272  0.00  0.00    -0.532 OA
ENDBRANCH   7  10
ENDBRANCH   2   4
BRANCH   1  13
ATOM     13  C   UNL d   1      52.598  32.754  53.387  0.00  0.00     0.275 C 
ATOM     14  S   UNL d   1      52.700  32.117  52.875  0.00  0.00    -0.023 SA
BRANCH  13  15
ATOM     15  N   UNL d   1      53.200  32.960  53.910  0.00  0.00    -0.369 NA
BRANCH  15  16
ATOM     16  C   UNL d   1      53.793  33.161  54.420  0.00  0.00     0.180 A 
ATOM     17  C   UNL d   1      54.062  32.867  55.039  0.00  0.00     0.255 A 
ATOM     18  S   UNL d   1      54.630  33.198  55.388  0.00  0.00    -0.043 SA
ATOM     19  O   UNL d   1      53.774  32.253  55.314  0.00  0.00    -0.277 OA
ATOM     20  C   UNL d   1      54.917  33.812  55.113  0.00  0.00     0.041 A 
ATOM     21  C   UNL d   1      54.649  34.105  54.494  0.00  0.00     0.043 A 
ENDBRANCH  15  16
ENDBRANCH  13  15
ENDBRANCH   1  13
TORSDOF 5
ENDMDL
