MODEL 1
REMARK VINA RESULT:      38.2      0.000      0.000
REMARK  5 active torsions:
REMARK  status: ('A' for Active; 'I' for Inactive)
REMARK    1  A    between atoms: S_10  and  C_1 
REMARK    2  A    between atoms: C_2  and  C_3 
REMARK    3  A    between atoms: C_13  and  C_6 
REMARK       I    between atoms: N_8  and  C_9 
REMARK    4  A    between atoms: C_9  and  C_11 
REMARK    5  A    between atoms: C_11  and  S_10 
ROOT
ATOM      1  C   UNL d   1      13.281  12.658  -3.385  0.00  0.00     0.194 A 
ATOM      2  C   UNL d   1      13.469  12.639  -4.808  0.00  0.00     0.156 A 
ATOM      3  N   UNL d   1      13.293  12.244  -4.106  0.00  0.00    -0.217 NA
ATOM      4  N   UNL d   1      13.441  13.448  -3.375  0.00  0.00    -0.221 NA
ATOM      5  C   UNL d   1      13.618  13.843  -4.085  0.00  0.00     0.085 A 
ATOM      6  C   UNL d   1      13.630  13.428  -4.798  0.00  0.00     0.042 A 
ENDROOT
BRANCH   1   7
ATOM      7  S   UNL d   1      13.101  12.251  -2.678  0.00  0.00    -0.043 SA
BRANCH   7   8
ATOM      8  C   UNL d   1      13.672  11.783  -2.305  0.00  0.00     0.099 C 
BRANCH   8   9
ATOM      9  C   UNL d   1      13.764  11.818  -1.486  0.00  0.00     0.272 C 
ATOM     10  N   UNL d   1      14.523  11.891  -1.153  0.00  0.00    -0.267 N 
ATOM     11  C   UNL d   1      15.186  11.928  -1.646  0.00  0.00     0.110 A 
ATOM     12  C   UNL d   1      14.607  11.925  -0.345  0.00  0.00     0.110 A 
ATOM     13  C   UNL d   1      15.932  11.999  -1.330  0.00  0.00     0.142 A 
ATOM     14  O   UNL d   1      16.027  12.034  -0.507  0.00  0.00    -0.300 OA
ATOM     15  C   UNL d   1      15.364  11.998  -0.014  0.00  0.00     0.142 A 
ATOM     16  O   UNL d   1      13.095  11.781  -0.988  0.00  0.00    -0.266 OA
ENDBRANCH   8   9
ENDBRANCH   7   8
ENDBRANCH   1   7
BRANCH   2  17
ATOM     17  C   UNL d   1      13.477  12.212  -5.509  0.00  0.00     0.435 C 
ATOM     18  F   UNL d   1      13.492  11.781  -6.224  0.00  0.00    -0.165 F 
ATOM     19  F   UNL d   1      14.186  12.608  -5.719  0.00  0.00    -0.165 F 
ATOM     20  F   UNL d   1      12.770  11.820  -5.295  0.00  0.00    -0.165 F 
ENDBRANCH   2  17
BRANCH   5  21
ATOM     21  C   UNL d   1      13.784  14.661  -4.074  0.00  0.00     0.018 A 
ATOM     22  C   UNL d   1      13.425  15.168  -4.632  0.00  0.00     0.002 A 
ATOM     23  C   UNL d   1      13.588  15.973  -4.621  0.00  0.00     0.000 A 
ATOM     24  C   UNL d   1      14.113  16.286  -4.053  0.00  0.00     0.000 A 
ATOM     25  C   UNL d   1      14.470  15.793  -3.502  0.00  0.00     0.000 A 
ATOM     26  C   UNL d   1      14.301  14.962  -3.513  0.00  0.00     0.002 A 
ENDBRANCH   5  21
TORSDOF 5
ENDMDL
MODEL 2
REMARK VINA RESULT:      40.2      2.086      3.866
REMARK  5 active torsions:
REMARK  status: ('A' for Active; 'I' for Inactive)
REMARK    1  A    between atoms: S_10  and  C_1 
REMARK    2  A    between atoms: C_2  and  C_3 
REMARK    3  A    between atoms: C_13  and  C_6 
REMARK       I    between atoms: N_8  and  C_9 
REMARK    4  A    between atoms: C_9  and  C_11 
REMARK    5  A    between atoms: C_11  and  S_10 
ROOT
ATOM      1  C   UNL d   1      13.853  13.998  -3.201  0.00  0.00     0.194 A 
ATOM      2  C   UNL d   1      13.467  12.719  -3.727  0.00  0.00     0.156 A 
ATOM      3  N   UNL d   1      13.574  13.530  -3.830  0.00  0.00    -0.217 NA
ATOM      4  N   UNL d   1      14.017  13.656  -2.490  0.00  0.00    -0.221 NA
ATOM      5  C   UNL d   1      13.907  12.838  -2.390  0.00  0.00     0.085 A 
ATOM      6  C   UNL d   1      13.631  12.377  -3.016  0.00  0.00     0.042 A 
ENDROOT
BRANCH   1   7
ATOM      7  S   UNL d   1      13.959  14.819  -3.314  0.00  0.00    -0.043 SA
BRANCH   7   8
ATOM      8  C   UNL d   1      14.166  15.309  -2.680  0.00  0.00     0.099 C 
BRANCH   8   9
ATOM      9  C   UNL d   1      14.634  15.976  -2.809  0.00  0.00     0.272 C 
ATOM     10  N   UNL d   1      14.919  16.417  -2.164  0.00  0.00    -0.267 N 
ATOM     11  C   UNL d   1      14.733  16.184  -1.393  0.00  0.00     0.110 A 
ATOM     12  C   UNL d   1      15.380  17.074  -2.297  0.00  0.00     0.110 A 
ATOM     13  C   UNL d   1      15.008  16.609  -0.755  0.00  0.00     0.142 A 
ATOM     14  O   UNL d   1      15.478  17.280  -0.882  0.00  0.00    -0.300 OA
ATOM     15  C   UNL d   1      15.664  17.512  -1.654  0.00  0.00     0.142 A 
ATOM     16  O   UNL d   1      14.822  16.210  -3.588  0.00  0.00    -0.266 OA
ENDBRANCH   8   9
ENDBRANCH   7   8
ENDBRANCH   1   7
BRANCH   2  17
ATOM     17  C   UNL d   1      13.191  12.275  -4.359  0.00  0.00     0.435 C 
ATOM     18  F   UNL d   1      12.907  11.818  -4.997  0.00  0.00    -0.165 F 
ATOM     19  F   UNL d   1      12.792  11.781  -3.812  0.00  0.00    -0.165 F 
ATOM     20  F   UNL d   1      13.591  12.770  -4.901  0.00  0.00    -0.165 F 
ENDBRANCH   2  17
BRANCH   5  21
ATOM     21  C   UNL d   1      14.078  12.484  -1.653  0.00  0.00     0.018 A 
ATOM     22  C   UNL d   1      14.862  12.465  -1.370  0.00  0.00     0.002 A 
ATOM     23  C   UNL d   1      15.030  12.117  -0.645  0.00  0.00     0.000 A 
ATOM     24  C   UNL d   1      14.416  11.781  -0.190  0.00  0.00     0.000 A 
ATOM     25  C   UNL d   1      13.642  11.796  -0.463  0.00  0.00     0.000 A 
ATOM     26  C   UNL d   1      13.469  12.155  -1.211  0.00  0.00     0.002 A 
ENDBRANCH   5  21
TORSDOF 5
ENDMDL
