MODEL 1
REMARK VINA RESULT:      -7.8      0.000      0.000
REMARK  5 active torsions:
REMARK  status: ('A' for Active; 'I' for Inactive)
REMARK    1  A    between atoms: C_9  and  C_3 
REMARK    2  A    between atoms: C_8  and  C_4 
REMARK    3  A    between atoms: C_11  and  C_8 
REMARK    4  A    between atoms: O_16  and  C_9 
REMARK    5  A    between atoms: C_18  and  C_11 
ROOT
ATOM      1  N   UNL d   1     -49.748  14.441  23.177  0.00  0.00    -0.254 N 
ATOM      2  C   UNL d   1     -50.498  14.505  23.516  0.00  0.00     0.182 A 
ATOM      3  C   UNL d   1     -49.866  13.021  23.185  0.00  0.00     0.097 A 
ATOM      4  C   UNL d   1     -49.428  13.701  23.010  0.00  0.00     0.075 A 
ATOM      5  N   UNL d   1     -50.928  13.825  23.687  0.00  0.00    -0.222 NA
ATOM      6  C   UNL d   1     -50.616  13.081  23.524  0.00  0.00     0.090 A 
ATOM      7  C   UNL d   1     -49.317  15.122  23.005  0.00  0.00     0.267 A 
ATOM      8  S   UNL d   1     -50.817  15.242  23.682  0.00  0.00    -0.049 SA
ATOM      9  C   UNL d   1     -49.637  15.862  23.172  0.00  0.00     0.068 A 
ATOM     10  O   UNL d   1     -48.567  15.062  22.666  0.00  0.00    -0.267 OA
ATOM     11  C   UNL d   1     -50.387  15.921  23.511  0.00  0.00     0.043 A 
ATOM     12  C   UNL d   1     -51.050  12.405  23.698  0.00  0.00     0.021 C 
ENDROOT
BRANCH   4  13
ATOM     13  C   UNL d   1     -48.678  13.641  22.671  0.00  0.00     0.018 C 
BRANCH  13  14
ATOM     14  C   UNL d   1     -48.021  13.910  23.094  0.00  0.00     0.002 C 
BRANCH  14  15
ATOM     15  C   UNL d   1     -47.264  13.686  22.855  0.00  0.00     0.000 A 
ATOM     16  C   UNL d   1     -47.115  13.517  22.065  0.00  0.00     0.000 A 
ATOM     17  C   UNL d   1     -46.357  13.294  21.830  0.00  0.00     0.000 A 
ATOM     18  C   UNL d   1     -45.751  13.239  22.386  0.00  0.00     0.000 A 
ATOM     19  C   UNL d   1     -45.905  13.409  23.176  0.00  0.00     0.000 A 
ATOM     20  C   UNL d   1     -46.663  13.633  23.411  0.00  0.00     0.000 A 
ENDBRANCH  14  15
ENDBRANCH  13  14
ENDBRANCH   4  13
BRANCH   3  21
ATOM     21  C   UNL d   1     -49.551  12.281  23.020  0.00  0.00     0.299 C 
ATOM     22  O   UNL d   1     -49.550  11.990  22.248  0.00  0.00    -0.259 OA
BRANCH  21  23
ATOM     23  O   UNL d   1     -49.233  11.823  23.626  0.00  0.00    -0.296 OA
ATOM     24  C   UNL d   1     -49.055  11.026  23.502  0.00  0.00     0.185 C 
ENDBRANCH  21  23
ENDBRANCH   3  21
TORSDOF 5
ENDMDL
MODEL 2
REMARK VINA RESULT:      -7.6      1.637      3.263
REMARK  5 active torsions:
REMARK  status: ('A' for Active; 'I' for Inactive)
REMARK    1  A    between atoms: C_9  and  C_3 
REMARK    2  A    between atoms: C_8  and  C_4 
REMARK    3  A    between atoms: C_11  and  C_8 
REMARK    4  A    between atoms: O_16  and  C_9 
REMARK    5  A    between atoms: C_18  and  C_11 
ROOT
ATOM      1  N   UNL d   1     -47.430  13.380  22.771  0.00  0.00    -0.254 N 
ATOM      2  C   UNL d   1     -46.813  12.877  22.989  0.00  0.00     0.182 A 
ATOM      3  C   UNL d   1     -48.359  12.312  22.938  0.00  0.00     0.097 A 
ATOM      4  C   UNL d   1     -48.204  13.103  22.745  0.00  0.00     0.075 A 
ATOM      5  N   UNL d   1     -46.974  12.093  23.180  0.00  0.00    -0.222 NA
ATOM      6  C   UNL d   1     -47.745  11.806  23.156  0.00  0.00     0.090 A 
ATOM      7  C   UNL d   1     -47.269  14.165  22.580  0.00  0.00     0.267 A 
ATOM      8  S   UNL d   1     -46.041  13.153  23.015  0.00  0.00    -0.049 SA
ATOM      9  C   UNL d   1     -46.495  14.443  22.606  0.00  0.00     0.068 A 
ATOM     10  O   UNL d   1     -47.883  14.672  22.362  0.00  0.00    -0.267 OA
ATOM     11  C   UNL d   1     -45.881  13.937  22.824  0.00  0.00     0.043 A 
ATOM     12  C   UNL d   1     -47.899  11.022  23.349  0.00  0.00     0.021 C 
ENDROOT
BRANCH   4  13
ATOM     13  C   UNL d   1     -48.818  13.609  22.527  0.00  0.00     0.018 C 
BRANCH  13  14
ATOM     14  C   UNL d   1     -48.881  14.348  22.892  0.00  0.00     0.002 C 
BRANCH  14  15
ATOM     15  C   UNL d   1     -49.611  14.733  22.906  0.00  0.00     0.000 A 
ATOM     16  C   UNL d   1     -50.079  14.752  22.231  0.00  0.00     0.000 A 
ATOM     17  C   UNL d   1     -50.808  15.139  22.250  0.00  0.00     0.000 A 
ATOM     18  C   UNL d   1     -51.064  15.504  22.942  0.00  0.00     0.000 A 
ATOM     19  C   UNL d   1     -50.591  15.483  23.615  0.00  0.00     0.000 A 
ATOM     20  C   UNL d   1     -49.863  15.096  23.597  0.00  0.00     0.000 A 
ENDBRANCH  14  15
ENDBRANCH  13  14
ENDBRANCH   4  13
BRANCH   3  21
ATOM     21  C   UNL d   1     -49.129  12.032  22.913  0.00  0.00     0.299 C 
ATOM     22  O   UNL d   1     -49.496  11.882  22.189  0.00  0.00    -0.259 OA
BRANCH  21  23
ATOM     23  O   UNL d   1     -49.544  11.897  23.612  0.00  0.00    -0.296 OA
ATOM     24  C   UNL d   1     -50.319  11.614  23.594  0.00  0.00     0.185 C 
ENDBRANCH  21  23
ENDBRANCH   3  21
TORSDOF 5
ENDMDL
MODEL 3
REMARK VINA RESULT:      -7.0      0.920      2.451
REMARK  5 active torsions:
REMARK  status: ('A' for Active; 'I' for Inactive)
REMARK    1  A    between atoms: C_9  and  C_3 
REMARK    2  A    between atoms: C_8  and  C_4 
REMARK    3  A    between atoms: C_11  and  C_8 
REMARK    4  A    between atoms: O_16  and  C_9 
REMARK    5  A    between atoms: C_18  and  C_11 
ROOT
ATOM      1  N   UNL d   1     -49.748  12.862  23.153  0.00  0.00    -0.254 N 
ATOM      2  C   UNL d   1     -50.504  12.964  23.469  0.00  0.00     0.182 A 
ATOM      3  C   UNL d   1     -49.618  14.274  23.011  0.00  0.00     0.097 A 
ATOM      4  C   UNL d   1     -49.301  13.513  22.923  0.00  0.00     0.075 A 
ATOM      5  N   UNL d   1     -50.812  13.722  23.553  0.00  0.00    -0.222 NA
ATOM      6  C   UNL d   1     -50.373  14.380  23.326  0.00  0.00     0.090 A 
ATOM      7  C   UNL d   1     -49.440  12.103  23.068  0.00  0.00     0.267 A 
ATOM      8  S   UNL d   1     -50.950  12.315  23.698  0.00  0.00    -0.049 SA
ATOM      9  C   UNL d   1     -49.887  11.451  23.298  0.00  0.00     0.068 A 
ATOM     10  O   UNL d   1     -48.684  11.996  22.753  0.00  0.00    -0.267 OA
ATOM     11  C   UNL d   1     -50.642  11.557  23.613  0.00  0.00     0.043 A 
ATOM     12  C   UNL d   1     -50.686  15.135  23.413  0.00  0.00     0.021 C 
ENDROOT
BRANCH   4  13
ATOM     13  C   UNL d   1     -48.546  13.407  22.608  0.00  0.00     0.018 C 
BRANCH  13  14
ATOM     14  C   UNL d   1     -47.948  13.099  23.088  0.00  0.00     0.002 C 
BRANCH  14  15
ATOM     15  C   UNL d   1     -47.160  13.173  22.854  0.00  0.00     0.000 A 
ATOM     16  C   UNL d   1     -46.933  12.949  22.097  0.00  0.00     0.000 A 
ATOM     17  C   UNL d   1     -46.144  13.024  21.867  0.00  0.00     0.000 A 
ATOM     18  C   UNL d   1     -45.587  13.324  22.395  0.00  0.00     0.000 A 
ATOM     19  C   UNL d   1     -45.819  13.548  23.152  0.00  0.00     0.000 A 
ATOM     20  C   UNL d   1     -46.608  13.473  23.382  0.00  0.00     0.000 A 
ENDBRANCH  14  15
ENDBRANCH  13  14
ENDBRANCH   4  13
BRANCH   3  21
ATOM     21  C   UNL d   1     -49.175  14.926  22.783  0.00  0.00     0.299 C 
ATOM     22  O   UNL d   1     -48.747  15.357  23.341  0.00  0.00    -0.259 OA
BRANCH  21  23
ATOM     23  O   UNL d   1     -49.155  15.156  21.993  0.00  0.00    -0.296 OA
ATOM     24  C   UNL d   1     -48.817  15.877  21.772  0.00  0.00     0.185 C 
ENDBRANCH  21  23
ENDBRANCH   3  21
TORSDOF 5
ENDMDL
MODEL 4
REMARK VINA RESULT:      -5.3      1.323      1.655
REMARK  5 active torsions:
REMARK  status: ('A' for Active; 'I' for Inactive)
REMARK    1  A    between atoms: C_9  and  C_3 
REMARK    2  A    between atoms: C_8  and  C_4 
REMARK    3  A    between atoms: C_11  and  C_8 
REMARK    4  A    between atoms: O_16  and  C_9 
REMARK    5  A    between atoms: C_18  and  C_11 
ROOT
ATOM      1  N   UNL d   1     -48.390  13.956  22.702  0.00  0.00    -0.254 N 
ATOM      2  C   UNL d   1     -49.064  14.429  22.745  0.00  0.00     0.182 A 
ATOM      3  C   UNL d   1     -49.195  12.793  22.877  0.00  0.00     0.097 A 
ATOM      4  C   UNL d   1     -48.450  13.137  22.768  0.00  0.00     0.075 A 
ATOM      5  N   UNL d   1     -49.801  14.080  22.854  0.00  0.00    -0.222 NA
ATOM      6  C   UNL d   1     -49.872  13.263  22.921  0.00  0.00     0.090 A 
ATOM      7  C   UNL d   1     -47.651  14.305  22.593  0.00  0.00     0.267 A 
ATOM      8  S   UNL d   1     -49.005  15.244  22.680  0.00  0.00    -0.049 SA
ATOM      9  C   UNL d   1     -47.591  15.123  22.528  0.00  0.00     0.068 A 
ATOM     10  O   UNL d   1     -46.974  13.835  22.550  0.00  0.00    -0.267 OA
ATOM     11  C   UNL d   1     -48.268  15.593  22.572  0.00  0.00     0.043 A 
ATOM     12  C   UNL d   1     -50.611  12.920  23.029  0.00  0.00     0.021 C 
ENDROOT
BRANCH   4  13
ATOM     13  C   UNL d   1     -47.773  12.668  22.724  0.00  0.00     0.018 C 
BRANCH  13  14
ATOM     14  C   UNL d   1     -47.259  12.639  23.371  0.00  0.00     0.002 C 
BRANCH  14  15
ATOM     15  C   UNL d   1     -46.588  12.161  23.336  0.00  0.00     0.000 A 
ATOM     16  C   UNL d   1     -45.915  12.423  22.944  0.00  0.00     0.000 A 
ATOM     17  C   UNL d   1     -45.246  11.941  22.911  0.00  0.00     0.000 A 
ATOM     18  C   UNL d   1     -45.253  11.200  23.271  0.00  0.00     0.000 A 
ATOM     19  C   UNL d   1     -45.929  10.941  23.662  0.00  0.00     0.000 A 
ATOM     20  C   UNL d   1     -46.598  11.423  23.695  0.00  0.00     0.000 A 
ENDBRANCH  14  15
ENDBRANCH  13  14
ENDBRANCH   4  13
BRANCH   3  21
ATOM     21  C   UNL d   1     -49.259  11.978  22.943  0.00  0.00     0.299 C 
ATOM     22  O   UNL d   1     -49.116  11.493  22.290  0.00  0.00    -0.259 OA
BRANCH  21  23
ATOM     23  O   UNL d   1     -49.467  11.635  23.662  0.00  0.00    -0.296 OA
ATOM     24  C   UNL d   1     -49.720  10.850  23.698  0.00  0.00     0.185 C 
ENDBRANCH  21  23
ENDBRANCH   3  21
TORSDOF 5
ENDMDL
MODEL 5
REMARK VINA RESULT:      -5.1      3.078      5.109
REMARK  5 active torsions:
REMARK  status: ('A' for Active; 'I' for Inactive)
REMARK    1  A    between atoms: C_9  and  C_3 
REMARK    2  A    between atoms: C_8  and  C_4 
REMARK    3  A    between atoms: C_11  and  C_8 
REMARK    4  A    between atoms: O_16  and  C_9 
REMARK    5  A    between atoms: C_18  and  C_11 
ROOT
ATOM      1  N   UNL d   1     -45.386  11.427  23.092  0.00  0.00    -0.254 N 
ATOM      2  C   UNL d   1     -44.588  11.393  22.886  0.00  0.00     0.182 A 
ATOM      3  C   UNL d   1     -45.481  12.722  22.504  0.00  0.00     0.097 A 
ATOM      4  C   UNL d   1     -45.837  12.090  22.903  0.00  0.00     0.075 A 
ATOM      5  N   UNL d   1     -44.241  12.024  22.490  0.00  0.00    -0.222 NA
ATOM      6  C   UNL d   1     -44.683  12.691  22.297  0.00  0.00     0.090 A 
ATOM      7  C   UNL d   1     -45.735  10.795  23.489  0.00  0.00     0.267 A 
ATOM      8  S   UNL d   1     -44.139  10.733  23.074  0.00  0.00    -0.049 SA
ATOM      9  C   UNL d   1     -45.284  10.132  23.678  0.00  0.00     0.068 A 
ATOM     10  O   UNL d   1     -46.533  10.826  23.697  0.00  0.00    -0.267 OA
ATOM     11  C   UNL d   1     -44.487  10.101  23.470  0.00  0.00     0.043 A 
ATOM     12  C   UNL d   1     -44.330  13.319  21.901  0.00  0.00     0.021 C 
ENDROOT
BRANCH   4  13
ATOM     13  C   UNL d   1     -46.635  12.121  23.111  0.00  0.00     0.018 C 
BRANCH  13  14
ATOM     14  C   UNL d   1     -47.152  11.548  22.816  0.00  0.00     0.002 C 
BRANCH  14  15
ATOM     15  C   UNL d   1     -47.966  11.659  22.886  0.00  0.00     0.000 A 
ATOM     16  C   UNL d   1     -48.304  11.765  23.627  0.00  0.00     0.000 A 
ATOM     17  C   UNL d   1     -49.119  11.877  23.694  0.00  0.00     0.000 A 
ATOM     18  C   UNL d   1     -49.591  11.882  23.019  0.00  0.00     0.000 A 
ATOM     19  C   UNL d   1     -49.248  11.775  22.278  0.00  0.00     0.000 A 
ATOM     20  C   UNL d   1     -48.433  11.664  22.212  0.00  0.00     0.000 A 
ENDBRANCH  14  15
ENDBRANCH  13  14
ENDBRANCH   4  13
BRANCH   3  21
ATOM     21  C   UNL d   1     -45.926  13.384  22.314  0.00  0.00     0.299 C 
ATOM     22  O   UNL d   1     -46.216  13.488  21.549  0.00  0.00    -0.259 OA
BRANCH  21  23
ATOM     23  O   UNL d   1     -46.088  13.953  22.888  0.00  0.00    -0.296 OA
ATOM     24  C   UNL d   1     -46.508  14.637  22.696  0.00  0.00     0.185 C 
ENDBRANCH  21  23
ENDBRANCH   3  21
TORSDOF 5
ENDMDL
