MODEL 1
REMARK VINA RESULT:      42.4      0.000      0.000
REMARK  2 active torsions:
REMARK  status: ('A' for Active; 'I' for Inactive)
REMARK    1  A    between atoms: N_7  and  C_3 
REMARK       I    between atoms: C_8  and  N_7 
REMARK    2  A    between atoms: C_10  and  C_8 
ROOT
ATOM      1  C   UNL d   1      56.868  49.400  50.884  0.00  0.00     0.343 A 
ATOM      2  N   UNL d   1      57.559  49.487  51.315  0.00  0.00    -0.241 N 
ATOM      3  C   UNL d   1      58.273  49.617  50.929  0.00  0.00     0.159 A 
ATOM      4  N   UNL d   1      56.889  49.443  50.059  0.00  0.00    -0.224 N 
ATOM      5  C   UNL d   1      58.293  49.660  50.105  0.00  0.00     0.099 A 
ATOM      6  C   UNL d   1      57.599  49.573  49.657  0.00  0.00     0.271 A 
ATOM      7  O   UNL d   1      56.150  49.269  51.273  0.00  0.00    -0.245 OA
ATOM      8  O   UNL d   1      57.619  49.616  48.841  0.00  0.00    -0.266 OA
ATOM      9  C   UNL d   1      57.539  49.444  52.139  0.00  0.00     0.105 C 
ATOM     10  C   UNL d   1      56.190  49.355  49.624  0.00  0.00     0.107 C 
ENDROOT
BRANCH   3  11
ATOM     11  N   UNL d   1      58.972  49.705  51.365  0.00  0.00    -0.190 NA
ATOM     12  C   UNL d   1      59.645  49.280  51.154  0.00  0.00     0.280 C 
ATOM     13  O   UNL d   1      59.624  48.764  50.509  0.00  0.00    -0.265 OA
BRANCH  12  14
ATOM     14  C   UNL d   1      60.340  49.369  51.589  0.00  0.00     0.058 A 
ATOM     15  C   UNL d   1      60.292  49.526  52.381  0.00  0.00     0.006 A 
ATOM     16  C   UNL d   1      60.975  49.615  52.815  0.00  0.00     0.012 A 
ATOM     17  C   UNL d   1      61.716  49.549  52.465  0.00  0.00     0.058 A 
ATOM     18  C   UNL d   1      61.753  49.385  51.635  0.00  0.00     0.012 A 
ATOM     19 CL   UNL d   1      62.411  49.639  52.904  0.00  0.00    -0.082 Cl
ATOM     20  C   UNL d   1      61.071  49.296  51.201  0.00  0.00     0.006 A 
ENDBRANCH  12  14
ENDBRANCH   3  11
TORSDOF 2
ENDMDL
