MODEL 1
REMARK VINA RESULT:      23.9      0.000      0.000
REMARK  1 active torsions:
REMARK  status: ('A' for Active; 'I' for Inactive)
REMARK    1  A    between atoms: C_12  and  N_4 
ROOT
ATOM      1  C   UNL d   1     -54.742-101.297 -37.662  0.00  0.00     0.081 A 
ATOM      2  C   UNL d   1     -54.758-102.109 -37.554  0.00  0.00     0.118 A 
ATOM      3  C   UNL d   1     -54.728-100.985 -38.442  0.00  0.00     0.268 A 
ATOM      4  N   UNL d   1     -54.731-101.491 -39.091  0.00  0.00    -0.249 N 
ATOM      5  N   UNL d   1     -54.760-102.633 -38.188  0.00  0.00    -0.212 NA
ATOM      6  C   UNL d   1     -54.747-102.320 -38.967  0.00  0.00     0.209 A 
ATOM      7  S   UNL d   1     -54.768-102.227 -36.716  0.00  0.00    -0.068 SA
ATOM      8  C   UNL d   1     -54.743-100.932 -36.922  0.00  0.00     0.013 A 
ATOM      9  C   UNL d   1     -54.760-101.543 -36.348  0.00  0.00     0.031 A 
ATOM     10  S   UNL d   1     -54.750-102.865 -39.603  0.00  0.00    -0.038 SA
ATOM     11  O   UNL d   1     -54.712-100.147 -38.578  0.00  0.00    -0.267 OA
ATOM     12  C   UNL d   1     -54.731-100.141 -36.692  0.00  0.00     0.001 A 
ATOM     13  C   UNL d   1     -54.764-101.340 -35.540  0.00  0.00     0.006 A 
ATOM     14  C   UNL d   1     -54.736 -99.950 -35.896  0.00  0.00     0.000 A 
ATOM     15  C   UNL d   1     -54.752-100.540 -35.322  0.00  0.00     0.001 A 
ENDROOT
BRANCH   4  16
ATOM     16  C   UNL d   1     -54.717-101.168 -39.859  0.00  0.00     0.085 C 
ATOM     17  C   UNL d   1     -54.737-101.660 -40.515  0.00  0.00     0.021 C 
ENDBRANCH   4  16
TORSDOF 1
ENDMDL
MODEL 2
REMARK VINA RESULT:      24.1      7.197      8.203
REMARK  1 active torsions:
REMARK  status: ('A' for Active; 'I' for Inactive)
REMARK    1  A    between atoms: C_12  and  N_4 
ROOT
ATOM      1  C   UNL d   1     -57.684 -98.757 -44.522  0.00  0.00     0.081 A 
ATOM      2  C   UNL d   1     -57.782 -98.758 -43.709  0.00  0.00     0.118 A 
ATOM      3  C   UNL d   1     -58.362 -98.756 -45.019  0.00  0.00     0.268 A 
ATOM      4  N   UNL d   1     -59.116 -98.757 -44.690  0.00  0.00    -0.249 N 
ATOM      5  N   UNL d   1     -58.526 -98.758 -43.359  0.00  0.00    -0.212 NA
ATOM      6  C   UNL d   1     -59.204 -98.758 -43.856  0.00  0.00     0.209 A 
ATOM      7  S   UNL d   1     -57.000 -98.758 -43.385  0.00  0.00    -0.068 SA
ATOM      8  C   UNL d   1     -56.877 -98.756 -44.691  0.00  0.00     0.013 A 
ATOM      9  C   UNL d   1     -56.473 -98.757 -43.956  0.00  0.00     0.031 A 
ATOM     10  S   UNL d   1     -59.955 -98.759 -43.486  0.00  0.00    -0.038 SA
ATOM     11  O   UNL d   1     -58.285 -98.755 -45.864  0.00  0.00    -0.267 OA
ATOM     12  C   UNL d   1     -56.457 -98.755 -45.399  0.00  0.00     0.001 A 
ATOM     13  C   UNL d   1     -55.640 -98.757 -43.951  0.00  0.00     0.006 A 
ATOM     14  C   UNL d   1     -55.638 -98.755 -45.386  0.00  0.00     0.000 A 
ATOM     15  C   UNL d   1     -55.229 -98.756 -44.672  0.00  0.00     0.001 A 
ENDROOT
BRANCH   4  16
ATOM     16  C   UNL d   1     -59.780 -98.756 -45.194  0.00  0.00     0.085 C 
ATOM     17  C   UNL d   1     -59.683 -98.762 -46.008  0.00  0.00     0.021 C 
ENDBRANCH   4  16
TORSDOF 1
ENDMDL
MODEL 3
REMARK VINA RESULT:      25.2      7.182      8.107
REMARK  1 active torsions:
REMARK  status: ('A' for Active; 'I' for Inactive)
REMARK    1  A    between atoms: C_12  and  N_4 
ROOT
ATOM      1  C   UNL d   1     -57.607 -98.758 -44.383  0.00  0.00     0.081 A 
ATOM      2  C   UNL d   1     -57.758 -98.758 -45.188  0.00  0.00     0.118 A 
ATOM      3  C   UNL d   1     -58.250 -98.757 -43.843  0.00  0.00     0.268 A 
ATOM      4  N   UNL d   1     -59.024 -98.758 -44.120  0.00  0.00    -0.249 N 
ATOM      5  N   UNL d   1     -58.523 -98.759 -45.488  0.00  0.00    -0.212 NA
ATOM      6  C   UNL d   1     -59.166 -98.759 -44.947  0.00  0.00     0.209 A 
ATOM      7  S   UNL d   1     -56.998 -98.759 -45.562  0.00  0.00    -0.068 SA
ATOM      8  C   UNL d   1     -56.790 -98.757 -44.267  0.00  0.00     0.013 A 
ATOM      9  C   UNL d   1     -56.435 -98.758 -45.027  0.00  0.00     0.031 A 
ATOM     10  S   UNL d   1     -59.940 -98.759 -45.267  0.00  0.00    -0.038 SA
ATOM     11  O   UNL d   1     -58.118 -98.756 -43.004  0.00  0.00    -0.267 OA
ATOM     12  C   UNL d   1     -56.324 -98.756 -43.588  0.00  0.00     0.001 A 
ATOM     13  C   UNL d   1     -55.604 -98.758 -45.087  0.00  0.00     0.006 A 
ATOM     14  C   UNL d   1     -55.508 -98.756 -43.654  0.00  0.00     0.000 A 
ATOM     15  C   UNL d   1     -55.147 -98.757 -44.395  0.00  0.00     0.001 A 
ENDROOT
BRANCH   4  16
ATOM     16  C   UNL d   1     -59.653 -98.757 -43.574  0.00  0.00     0.085 C 
ATOM     17  C   UNL d   1     -59.518 -98.935 -42.786  0.00  0.00     0.021 C 
ENDBRANCH   4  16
TORSDOF 1
ENDMDL
MODEL 4
REMARK VINA RESULT:      26.7      7.062      7.749
REMARK  1 active torsions:
REMARK  status: ('A' for Active; 'I' for Inactive)
REMARK    1  A    between atoms: C_12  and  N_4 
ROOT
ATOM      1  C   UNL d   1     -57.585 -98.758 -44.048  0.00  0.00     0.081 A 
ATOM      2  C   UNL d   1     -57.653 -98.757 -44.864  0.00  0.00     0.118 A 
ATOM      3  C   UNL d   1     -56.822 -98.759 -43.698  0.00  0.00     0.268 A 
ATOM      4  N   UNL d   1     -56.149 -98.759 -44.171  0.00  0.00    -0.249 N 
ATOM      5  N   UNL d   1     -56.994 -98.756 -45.357  0.00  0.00    -0.212 NA
ATOM      6  C   UNL d   1     -56.231 -98.757 -45.006  0.00  0.00     0.209 A 
ATOM      7  S   UNL d   1     -58.484 -98.756 -45.024  0.00  0.00    -0.068 SA
ATOM      8  C   UNL d   1     -58.342 -98.758 -43.721  0.00  0.00     0.013 A 
ATOM      9  C   UNL d   1     -58.886 -98.757 -44.359  0.00  0.00     0.031 A 
ATOM     10  S   UNL d   1     -55.569 -98.757 -45.519  0.00  0.00    -0.038 SA
ATOM     11  O   UNL d   1     -56.727 -98.761 -42.854  0.00  0.00    -0.267 OA
ATOM     12  C   UNL d   1     -58.611 -98.759 -42.942  0.00  0.00     0.001 A 
ATOM     13  C   UNL d   1     -59.703 -98.756 -44.197  0.00  0.00     0.006 A 
ATOM     14  C   UNL d   1     -59.416 -98.759 -42.790  0.00  0.00     0.000 A 
ATOM     15  C   UNL d   1     -59.960 -98.757 -43.408  0.00  0.00     0.001 A 
ENDROOT
BRANCH   4  16
ATOM     16  C   UNL d   1     -55.397 -98.760 -43.811  0.00  0.00     0.085 C 
ATOM     17  C   UNL d   1     -54.718 -98.774 -44.270  0.00  0.00     0.021 C 
ENDBRANCH   4  16
TORSDOF 1
ENDMDL
