MODEL 1
REMARK VINA RESULT:      58.4      0.000      0.000
REMARK  6 active torsions:
REMARK  status: ('A' for Active; 'I' for Inactive)
REMARK    1  A    between atoms: S_2  and  N_1 
REMARK    2  A    between atoms: C_11  and  S_2 
REMARK    3  A    between atoms: C_6  and  C_4 
REMARK    4  A    between atoms: C_12  and  C_5 
REMARK    5  A    between atoms: O_14  and  C_8 
REMARK    6  A    between atoms: O_16  and  C_13 
ROOT
ATOM      1  N   UNL d   1      45.798 -17.265  42.796  0.00  0.00    -0.152 N 
ATOM      2  N   UNL d   1      45.726 -16.444  42.955  0.00  0.00    -0.155 NA
ATOM      3  C   UNL d   1      45.961 -17.665  43.501  0.00  0.00     0.098 A 
ATOM      4  C   UNL d   1      45.847 -16.338  43.763  0.00  0.00     0.104 A 
ATOM      5  C   UNL d   1      45.990 -17.095  44.090  0.00  0.00     0.041 A 
ENDROOT
BRANCH   3   6
ATOM      6  C   UNL d   1      46.072 -18.478  43.591  0.00  0.00     0.043 A 
ATOM      7  C   UNL d   1      45.729 -18.873  44.229  0.00  0.00     0.118 A 
ATOM      8  C   UNL d   1      45.840 -19.686  44.319  0.00  0.00     0.116 A 
ATOM      9  C   UNL d   1      46.291 -20.076  43.768  0.00  0.00     0.026 A 
ATOM     10  C   UNL d   1      46.642 -19.708  43.127  0.00  0.00     0.002 A 
ATOM     11  C   UNL d   1      46.531 -18.896  43.037  0.00  0.00     0.004 A 
BRANCH   7  12
ATOM     12  O   UNL d   1      45.275 -18.456  44.776  0.00  0.00    -0.326 OA
ATOM     13  C   UNL d   1      44.456 -18.553  44.791  0.00  0.00     0.181 C 
ENDBRANCH   7  12
BRANCH   8  14
ATOM     14  O   UNL d   1      45.494 -20.054  44.954  0.00  0.00    -0.326 OA
ATOM     15  C   UNL d   1      44.727 -20.317  44.952  0.00  0.00     0.181 C 
ENDBRANCH   8  14
ENDBRANCH   3   6
BRANCH   1  16
ATOM     16  S   UNL d   1      45.715 -17.609  42.045  0.00  0.00     0.286 S 
ATOM     17  O   UNL d   1      45.099 -18.018  41.679  0.00  0.00    -0.198 OA
ATOM     18  O   UNL d   1      46.392 -17.518  41.575  0.00  0.00    -0.198 OA
BRANCH  16  19
ATOM     19  C   UNL d   1      45.806 -17.888  41.274  0.00  0.00     0.105 A 
ATOM     20  C   UNL d   1      46.542 -18.039  41.000  0.00  0.00     0.013 A 
ATOM     21  C   UNL d   1      46.635 -18.320  40.226  0.00  0.00     0.001 A 
ATOM     22  C   UNL d   1      45.971 -18.439  39.750  0.00  0.00     0.000 A 
ATOM     23  C   UNL d   1      45.215 -18.278  40.049  0.00  0.00     0.001 A 
ATOM     24  C   UNL d   1      45.142 -18.008  40.798  0.00  0.00     0.013 A 
ENDBRANCH  16  19
ENDBRANCH   1  16
BRANCH   4  25
ATOM     25  C   UNL d   1      45.826 -15.630  44.147  0.00  0.00     0.019 A 
ATOM     26  C   UNL d   1      45.111 -15.213  44.196  0.00  0.00     0.002 A 
ATOM     27  C   UNL d   1      45.065 -14.483  44.586  0.00  0.00     0.000 A 
ATOM     28  C   UNL d   1      45.737 -14.174  44.926  0.00  0.00     0.000 A 
ATOM     29  C   UNL d   1      46.464 -14.576  44.889  0.00  0.00     0.000 A 
ATOM     30  C   UNL d   1      46.493 -15.320  44.487  0.00  0.00     0.002 A 
ENDBRANCH   4  25
TORSDOF 6
ENDMDL
