MODEL 1
REMARK VINA RESULT:      -8.9      0.000      0.000
REMARK  3 active torsions:
REMARK  status: ('A' for Active; 'I' for Inactive)
REMARK    1  A    between atoms: N_5  and  C_2 
REMARK    2  A    between atoms: C_9  and  C_3 
REMARK       I    between atoms: C_7  and  N_5 
REMARK    3  A    between atoms: C_8  and  C_7 
ROOT
ATOM      1  N   UNL d   1      52.313  33.562  53.724  0.00  0.00    -0.200 NA
ATOM      2  C   UNL d   1      51.730  33.225  53.260  0.00  0.00     0.216 A 
ATOM      3  C   UNL d   1      52.966  33.058  53.726  0.00  0.00     0.172 A 
ATOM      4  N   UNL d   1      52.780  32.404  53.259  0.00  0.00    -0.187 NA
ATOM      5  S   UNL d   1      52.010  32.503  52.966  0.00  0.00     0.054 SA
ENDROOT
BRANCH   2   6
ATOM      6  N   UNL d   1      50.986  33.545  53.109  0.00  0.00    -0.181 NA
ATOM      7  C   UNL d   1      50.901  34.114  52.526  0.00  0.00     0.281 C 
ATOM      8  O   UNL d   1      51.555  34.365  52.092  0.00  0.00    -0.265 OA
BRANCH   7   9
ATOM      9  C   UNL d   1      50.156  34.435  52.375  0.00  0.00     0.058 A 
ATOM     10  C   UNL d   1      49.772  34.876  52.955  0.00  0.00     0.006 A 
ATOM     11  C   UNL d   1      49.027  35.197  52.803  0.00  0.00     0.012 A 
ATOM     12  C   UNL d   1      48.667  35.078  52.072  0.00  0.00     0.058 A 
ATOM     13  C   UNL d   1      49.052  34.638  51.493  0.00  0.00     0.012 A 
ATOM     14 CL   UNL d   1      47.922  35.399  51.921  0.00  0.00    -0.082 Cl
ATOM     15  C   UNL d   1      49.797  34.316  51.644  0.00  0.00     0.006 A 
ENDBRANCH   7   9
ENDBRANCH   2   6
BRANCH   3  16
ATOM     16  C   UNL d   1      53.674  33.180  54.120  0.00  0.00     0.036 A 
ATOM     17  C   UNL d   1      54.382  33.184  53.698  0.00  0.00     0.003 A 
ATOM     18  C   UNL d   1      55.101  33.308  54.099  0.00  0.00     0.000 A 
ATOM     19  C   UNL d   1      55.105  33.427  54.921  0.00  0.00     0.000 A 
ATOM     20  C   UNL d   1      54.389  33.422  55.337  0.00  0.00     0.000 A 
ATOM     21  C   UNL d   1      53.677  33.299  54.941  0.00  0.00     0.003 A 
ENDBRANCH   3  16
TORSDOF 3
ENDMDL
MODEL 2
REMARK VINA RESULT:      -8.4      2.435      4.980
REMARK  3 active torsions:
REMARK  status: ('A' for Active; 'I' for Inactive)
REMARK    1  A    between atoms: N_5  and  C_2 
REMARK    2  A    between atoms: C_9  and  C_3 
REMARK       I    between atoms: C_7  and  N_5 
REMARK    3  A    between atoms: C_8  and  C_7 
ROOT
ATOM      1  N   UNL d   1      50.862  33.400  53.083  0.00  0.00    -0.200 NA
ATOM      2  C   UNL d   1      51.651  33.294  53.271  0.00  0.00     0.216 A 
ATOM      3  C   UNL d   1      50.749  34.191  52.875  0.00  0.00     0.172 A 
ATOM      4  N   UNL d   1      51.478  34.572  52.937  0.00  0.00    -0.187 NA
ATOM      5  S   UNL d   1      52.044  34.017  53.184  0.00  0.00     0.054 SA
ENDROOT
BRANCH   2   6
ATOM      6  N   UNL d   1      52.000  32.586  53.509  0.00  0.00    -0.181 NA
ATOM      7  C   UNL d   1      52.431  32.146  52.969  0.00  0.00     0.281 C 
ATOM      8  O   UNL d   1      52.515  32.408  52.192  0.00  0.00    -0.265 OA
BRANCH   7   9
ATOM      9  C   UNL d   1      52.781  31.438  53.206  0.00  0.00     0.058 A 
ATOM     10  C   UNL d   1      52.436  30.719  53.002  0.00  0.00     0.006 A 
ATOM     11  C   UNL d   1      52.785  30.010  53.239  0.00  0.00     0.012 A 
ATOM     12  C   UNL d   1      53.480  30.021  53.682  0.00  0.00     0.058 A 
ATOM     13  C   UNL d   1      53.824  30.740  53.886  0.00  0.00     0.012 A 
ATOM     14 CL   UNL d   1      53.830  29.313  53.920  0.00  0.00    -0.082 Cl
ATOM     15  C   UNL d   1      53.475  31.449  53.648  0.00  0.00     0.006 A 
ENDBRANCH   7   9
ENDBRANCH   2   6
BRANCH   3  16
ATOM     16  C   UNL d   1      50.044  34.539  52.647  0.00  0.00     0.036 A 
ATOM     17  C   UNL d   1      49.618  34.992  53.188  0.00  0.00     0.003 A 
ATOM     18  C   UNL d   1      48.900  35.345  52.956  0.00  0.00     0.000 A 
ATOM     19  C   UNL d   1      48.615  35.242  52.183  0.00  0.00     0.000 A 
ATOM     20  C   UNL d   1      49.050  34.784  51.646  0.00  0.00     0.000 A 
ATOM     21  C   UNL d   1      49.759  34.435  51.875  0.00  0.00     0.003 A 
ENDBRANCH   3  16
TORSDOF 3
ENDMDL
MODEL 3
REMARK VINA RESULT:      -8.1      1.983      5.017
REMARK  3 active torsions:
REMARK  status: ('A' for Active; 'I' for Inactive)
REMARK    1  A    between atoms: N_5  and  C_2 
REMARK    2  A    between atoms: C_9  and  C_3 
REMARK       I    between atoms: C_7  and  N_5 
REMARK    3  A    between atoms: C_8  and  C_7 
ROOT
ATOM      1  N   UNL d   1      50.180  34.541  53.151  0.00  0.00    -0.200 NA
ATOM      2  C   UNL d   1      50.827  34.102  52.911  0.00  0.00     0.216 A 
ATOM      3  C   UNL d   1      49.709  34.692  52.490  0.00  0.00     0.172 A 
ATOM      4  N   UNL d   1      50.073  34.341  51.839  0.00  0.00    -0.187 NA
ATOM      5  S   UNL d   1      50.770  33.971  52.095  0.00  0.00     0.054 SA
ENDROOT
BRANCH   2   6
ATOM      6  N   UNL d   1      51.435  33.832  53.397  0.00  0.00    -0.181 NA
ATOM      7  C   UNL d   1      52.175  34.181  53.351  0.00  0.00     0.281 C 
ATOM      8  O   UNL d   1      52.311  34.799  52.822  0.00  0.00    -0.265 OA
BRANCH   7   9
ATOM      9  C   UNL d   1      52.784  33.911  53.836  0.00  0.00     0.058 A 
ATOM     10  C   UNL d   1      53.088  34.399  54.427  0.00  0.00     0.006 A 
ATOM     11  C   UNL d   1      53.697  34.129  54.913  0.00  0.00     0.012 A 
ATOM     12  C   UNL d   1      54.004  33.371  54.808  0.00  0.00     0.058 A 
ATOM     13  C   UNL d   1      53.700  32.885  54.218  0.00  0.00     0.012 A 
ATOM     14 CL   UNL d   1      54.613  33.101  55.294  0.00  0.00    -0.082 Cl
ATOM     15  C   UNL d   1      53.090  33.155  53.732  0.00  0.00     0.006 A 
ENDBRANCH   7   9
ENDBRANCH   2   6
BRANCH   3  16
ATOM     16  C   UNL d   1      49.007  35.114  52.479  0.00  0.00     0.036 A 
ATOM     17  C   UNL d   1      48.530  35.097  51.806  0.00  0.00     0.003 A 
ATOM     18  C   UNL d   1      47.817  35.527  51.795  0.00  0.00     0.000 A 
ATOM     19  C   UNL d   1      47.586  35.970  52.459  0.00  0.00     0.000 A 
ATOM     20  C   UNL d   1      48.072  35.981  53.131  0.00  0.00     0.000 A 
ATOM     21  C   UNL d   1      48.777  35.556  53.142  0.00  0.00     0.003 A 
ENDBRANCH   3  16
TORSDOF 3
ENDMDL
