MODEL 1
REMARK VINA RESULT:      55.7      0.000      0.000
REMARK  4 active torsions:
REMARK  status: ('A' for Active; 'I' for Inactive)
REMARK    1  A    between atoms: N_5  and  S_1 
REMARK    2  A    between atoms: C_6  and  S_1 
REMARK    3  A    between atoms: N_2  and  C_7 
REMARK    4  A    between atoms: C_18  and  N_5 
ROOT
ATOM      1  C   UNL d   1      13.570  15.427  -4.992  0.00  0.00     0.117 A 
ATOM      2  C   UNL d   1      13.340  13.872  -4.518  0.00  0.00     0.070 A 
ATOM      3  C   UNL d   1      14.120  14.859  -5.180  0.00  0.00     0.015 A 
ATOM      4  C   UNL d   1      12.896  15.218  -4.563  0.00  0.00     0.015 A 
ATOM      5  C   UNL d   1      14.007  14.079  -4.943  0.00  0.00     0.018 A 
ATOM      6  C   UNL d   1      12.786  14.439  -4.328  0.00  0.00     0.018 A 
ENDROOT
BRANCH   1   7
ATOM      7  S   UNL d   1      13.684  16.208  -5.229  0.00  0.00     0.327 S 
ATOM      8  O   UNL d   1      14.101  16.356  -4.524  0.00  0.00    -0.186 OA
ATOM      9  O   UNL d   1      13.273  16.054  -5.917  0.00  0.00    -0.186 OA
BRANCH   7  10
ATOM     10  N   UNL d   1      13.801  16.986  -5.458  0.00  0.00    -0.317 NA
BRANCH  10  11
ATOM     11  C   UNL d   1      13.913  17.770  -5.686  0.00  0.00     0.145 A 
ATOM     12  C   UNL d   1      13.344  18.155  -6.158  0.00  0.00     0.033 A 
ATOM     13  C   UNL d   1      13.456  18.940  -6.386  0.00  0.00     0.003 A 
ATOM     14  C   UNL d   1      14.124  19.349  -6.154  0.00  0.00     0.000 A 
ATOM     15  C   UNL d   1      14.700  18.975  -5.681  0.00  0.00     0.003 A 
ATOM     16  C   UNL d   1      14.234  20.136  -6.384  0.00  0.00     0.000 C 
ATOM     17  C   UNL d   1      14.588  18.184  -5.450  0.00  0.00     0.033 A 
ENDBRANCH  10  11
ENDBRANCH   7  10
ENDBRANCH   1   7
BRANCH   2  18
ATOM     18  N   UNL d   1      13.226  13.091  -4.281  0.00  0.00    -0.242 N 
ATOM     19  C   UNL d   1      13.338  12.790  -3.516  0.00  0.00     0.267 A 
ATOM     20  C   UNL d   1      13.161  11.982  -3.526  0.00  0.00     0.066 A 
ATOM     21  O   UNL d   1      13.583  13.222  -2.859  0.00  0.00    -0.267 OA
ATOM     22  C   UNL d   1      12.940  11.782  -4.294  0.00  0.00     0.066 A 
ATOM     23  C   UNL d   1      12.979  12.463  -4.761  0.00  0.00     0.267 A 
ATOM     24  O   UNL d   1      12.802  12.509  -5.569  0.00  0.00    -0.267 OA
ENDBRANCH   2  18
TORSDOF 4
ENDMDL
