MODEL 1
REMARK VINA RESULT:      44.7      0.000      0.000
REMARK  4 active torsions:
REMARK  status: ('A' for Active; 'I' for Inactive)
REMARK    1  A    between atoms: S_18  and  C_6 
REMARK    2  A    between atoms: C_8  and  N_12 
REMARK       I    between atoms: N_12  and  C_16 
REMARK    3  A    between atoms: C_16  and  C_21 
REMARK    4  A    between atoms: C_21  and  S_18 
ROOT
ATOM      1  N   UNL d   1      57.715  49.691  50.846  0.00  0.00    -0.242 N 
ATOM      2  C   UNL d   1      58.032  49.686  50.089  0.00  0.00     0.153 A 
ATOM      3  C   UNL d   1      58.217  49.702  51.502  0.00  0.00     0.357 A 
ATOM      4  N   UNL d   1      58.850  49.691  49.981  0.00  0.00    -0.203 NA
ATOM      5  N   UNL d   1      59.035  49.707  51.394  0.00  0.00    -0.167 NA
ATOM      6  C   UNL d   1      59.351  49.702  50.632  0.00  0.00     0.200 A 
ATOM      7  C   UNL d   1      56.898  49.686  50.954  0.00  0.00     0.086 A 
ATOM      8  C   UNL d   1      57.529  49.675  49.434  0.00  0.00     0.038 A 
ATOM      9  C   UNL d   1      56.396  49.675  50.303  0.00  0.00     0.019 A 
ATOM     10  C   UNL d   1      56.712  49.670  49.541  0.00  0.00     0.004 A 
ATOM     11  O   UNL d   1      57.902  49.707  52.277  0.00  0.00    -0.244 OA
ATOM     12  C   UNL d   1      56.209  49.659  48.882  0.00  0.00     0.000 C 
ENDROOT
BRANCH   6  13
ATOM     13  S   UNL d   1      60.168  49.707  50.524  0.00  0.00    -0.043 SA
BRANCH  13  14
ATOM     14  C   UNL d   1      60.647  49.210  50.977  0.00  0.00     0.101 C 
BRANCH  14  15
ATOM     15  C   UNL d   1      61.122  48.655  50.604  0.00  0.00     0.287 C 
ATOM     16  N   UNL d   1      60.908  47.858  50.619  0.00  0.00    -0.186 NA
ATOM     17  O   UNL d   1      61.808  48.886  50.217  0.00  0.00    -0.265 OA
BRANCH  16  18
ATOM     18  C   UNL d   1      61.382  47.296  50.245  0.00  0.00     0.194 A 
ATOM     19  N   UNL d   1      62.146  47.331  49.931  0.00  0.00    -0.107 NA
ATOM     20  O   UNL d   1      62.333  46.594  49.626  0.00  0.00    -0.210 OA
ATOM     21  C   UNL d   1      61.697  46.098  49.745  0.00  0.00     0.128 A 
ATOM     22  C   UNL d   1      61.104  46.532  50.130  0.00  0.00     0.068 A 
ATOM     23  C   UNL d   1      61.665  45.297  49.514  0.00  0.00     0.029 C 
ENDBRANCH  16  18
ENDBRANCH  14  15
ENDBRANCH  13  14
ENDBRANCH   6  13
TORSDOF 4
ENDMDL
