MODEL 1
REMARK VINA RESULT:      57.4      0.000      0.000
REMARK  4 active torsions:
REMARK  status: ('A' for Active; 'I' for Inactive)
REMARK    1  A    between atoms: N_2  and  S_1 
REMARK    2  A    between atoms: C_4  and  S_1 
REMARK    3  A    between atoms: C_3  and  C_8 
REMARK       I    between atoms: N_5  and  C_3 
REMARK    4  A    between atoms: C_17  and  N_5 
ROOT
ATOM      1  C   UNL d   1      13.637  14.888  -4.692  0.00  0.00     0.104 A 
ATOM      2  C   UNL d   1      14.069  16.432  -5.043  0.00  0.00     0.058 A 
ATOM      3  C   UNL d   1      13.360  15.251  -5.381  0.00  0.00     0.013 A 
ATOM      4  C   UNL d   1      14.141  15.310  -4.170  0.00  0.00     0.013 A 
ATOM      5  C   UNL d   1      13.576  16.021  -5.555  0.00  0.00     0.005 A 
ATOM      6  C   UNL d   1      14.354  16.083  -4.351  0.00  0.00     0.005 A 
ENDROOT
BRANCH   2   7
ATOM      7  C   UNL d   1      14.296  17.222  -5.212  0.00  0.00     0.279 C 
ATOM      8  N   UNL d   1      13.763  17.749  -5.548  0.00  0.00    -0.208 NA
ATOM      9  O   UNL d   1      15.079  17.448  -5.026  0.00  0.00    -0.265 OA
BRANCH   8  10
ATOM     10  C   UNL d   1      13.991  18.535  -5.715  0.00  0.00     0.085 A 
ATOM     11  C   UNL d   1      14.676  18.849  -5.356  0.00  0.00     0.020 A 
ATOM     12  C   UNL d   1      14.908  19.617  -5.514  0.00  0.00     0.013 A 
ATOM     13  C   UNL d   1      14.463  20.084  -6.030  0.00  0.00     0.058 A 
ATOM     14  C   UNL d   1      13.777  19.770  -6.389  0.00  0.00     0.013 A 
ATOM     15 CL   UNL d   1      14.708  20.878  -6.188  0.00  0.00    -0.082 Cl
ATOM     16  C   UNL d   1      13.548  18.994  -6.227  0.00  0.00     0.020 A 
ENDBRANCH   8  10
ENDBRANCH   2   7
BRANCH   1  17
ATOM     17  S   UNL d   1      13.429  14.102  -4.495  0.00  0.00     0.272 S 
ATOM     18  O   UNL d   1      13.527  13.847  -5.287  0.00  0.00    -0.200 OA
ATOM     19  O   UNL d   1      13.326  14.351  -3.684  0.00  0.00    -0.200 OA
BRANCH  17  20
ATOM     20  N   UNL d   1      13.216  13.324  -4.264  0.00  0.00    -0.225 N 
ATOM     21  C   UNL d   1      13.229  13.105  -3.473  0.00  0.00     0.118 A 
ATOM     22  C   UNL d   1      13.019  12.343  -3.259  0.00  0.00     0.142 A 
ATOM     23  O   UNL d   1      12.789  11.780  -3.854  0.00  0.00    -0.300 OA
ATOM     24  C   UNL d   1      12.775  11.995  -4.646  0.00  0.00     0.142 A 
ATOM     25  C   UNL d   1      12.986  12.761  -4.859  0.00  0.00     0.118 A 
ENDBRANCH  17  20
ENDBRANCH   1  17
TORSDOF 4
ENDMDL
