MODEL 1
REMARK VINA RESULT:      -2.6      0.000      0.000
REMARK  4 active torsions:
REMARK  status: ('A' for Active; 'I' for Inactive)
REMARK    1  A    between atoms: C_7  and  C_1 
REMARK    2  A    between atoms: C_6  and  C_3 
REMARK    3  A    between atoms: O_15  and  C_8 
REMARK    4  A    between atoms: O_16  and  C_12 
ROOT
ATOM      1  C   UNL d   1      32.858  21.876 -20.960  0.00  0.00     0.042 A 
ATOM      2  C   UNL d   1      32.530  22.620 -21.087  0.00  0.00     0.098 A 
ATOM      3  C   UNL d   1      32.430  23.137 -20.457  0.00  0.00     0.048 A 
ATOM      4  C   UNL d   1      33.087  21.647 -20.206  0.00  0.00     0.005 A 
ATOM      5  C   UNL d   1      32.658  22.910 -19.694  0.00  0.00     0.096 A 
ATOM      6  C   UNL d   1      32.988  22.162 -19.569  0.00  0.00     0.024 A 
ENDROOT
BRANCH   1   7
ATOM      7  C   UNL d   1      32.958  21.361 -21.598  0.00  0.00     0.107 A 
ATOM      8  C   UNL d   1      32.763  19.963 -21.793  0.00  0.00     0.048 A 
ATOM      9  C   UNL d   1      33.014  20.042 -22.575  0.00  0.00     0.169 A 
ATOM     10  N   UNL d   1      33.238  20.775 -22.877  0.00  0.00    -0.142 NA
ATOM     11  N   UNL d   1      33.208  21.435 -22.380  0.00  0.00    -0.148 NA
BRANCH   9  12
ATOM     12  C   UNL d   1      33.041  19.376 -23.064  0.00  0.00     0.231 C 
ATOM     13  O   UNL d   1      33.169  19.466 -23.874  0.00  0.00    -0.643 OA
ATOM     14  O   UNL d   1      32.940  18.624 -22.744  0.00  0.00    -0.643 OA
ENDBRANCH   9  12
ENDBRANCH   1   7
BRANCH   2  15
ATOM     15  O   UNL d   1      32.302  22.847 -21.850  0.00  0.00    -0.328 OA
ATOM     16  C   UNL d   1      32.097  23.634 -22.000  0.00  0.00     0.181 C 
ENDBRANCH   2  15
BRANCH   5  17
ATOM     17  O   UNL d   1      32.557  23.429 -19.061  0.00  0.00    -0.328 OA
ATOM     18  C   UNL d   1      33.137  23.487 -18.475  0.00  0.00     0.181 C 
ENDBRANCH   5  17
TORSDOF 4
ENDMDL
MODEL 2
REMARK VINA RESULT:      -2.4      1.132      1.516
REMARK  4 active torsions:
REMARK  status: ('A' for Active; 'I' for Inactive)
REMARK    1  A    between atoms: C_7  and  C_1 
REMARK    2  A    between atoms: C_6  and  C_3 
REMARK    3  A    between atoms: O_15  and  C_8 
REMARK    4  A    between atoms: O_16  and  C_12 
ROOT
ATOM      1  C   UNL d   1      32.772  20.927 -21.489  0.00  0.00     0.042 A 
ATOM      2  C   UNL d   1      32.951  21.617 -21.901  0.00  0.00     0.098 A 
ATOM      3  C   UNL d   1      32.842  22.347 -21.544  0.00  0.00     0.048 A 
ATOM      4  C   UNL d   1      32.484  20.965 -20.721  0.00  0.00     0.005 A 
ATOM      5  C   UNL d   1      32.552  22.392 -20.770  0.00  0.00     0.096 A 
ATOM      6  C   UNL d   1      32.373  21.697 -20.358  0.00  0.00     0.024 A 
ENDROOT
BRANCH   1   7
ATOM      7  C   UNL d   1      32.884  20.194 -21.853  0.00  0.00     0.107 A 
ATOM      8  C   UNL d   1      32.551  19.649 -23.127  0.00  0.00     0.048 A 
ATOM      9  C   UNL d   1      32.899  18.934 -22.906  0.00  0.00     0.169 A 
ATOM     10  N   UNL d   1      33.241  18.839 -22.163  0.00  0.00    -0.142 NA
ATOM     11  N   UNL d   1      33.230  19.477 -21.637  0.00  0.00    -0.148 NA
BRANCH   9  12
ATOM     12  C   UNL d   1      32.905  18.301 -23.439  0.00  0.00     0.231 C 
ATOM     13  O   UNL d   1      32.764  17.535 -23.169  0.00  0.00    -0.643 OA
ATOM     14  O   UNL d   1      33.050  18.436 -24.238  0.00  0.00    -0.643 OA
ENDBRANCH   9  12
ENDBRANCH   1   7
BRANCH   2  15
ATOM     15  O   UNL d   1      33.241  21.572 -22.675  0.00  0.00    -0.328 OA
ATOM     16  C   UNL d   1      33.222  22.243 -23.160  0.00  0.00     0.181 C 
ENDBRANCH   2  15
BRANCH   5  17
ATOM     17  O   UNL d   1      32.442  23.126 -20.411  0.00  0.00    -0.328 OA
ATOM     18  C   UNL d   1      32.793  23.287 -19.679  0.00  0.00     0.181 C 
ENDBRANCH   5  17
TORSDOF 4
ENDMDL
MODEL 3
REMARK VINA RESULT:      -2.4      3.979      6.429
REMARK  4 active torsions:
REMARK  status: ('A' for Active; 'I' for Inactive)
REMARK    1  A    between atoms: C_7  and  C_1 
REMARK    2  A    between atoms: C_6  and  C_3 
REMARK    3  A    between atoms: O_15  and  C_8 
REMARK    4  A    between atoms: O_16  and  C_12 
ROOT
ATOM      1  C   UNL d   1      30.486  17.236 -24.231  0.00  0.00     0.042 A 
ATOM      2  C   UNL d   1      30.546  16.482 -23.907  0.00  0.00     0.098 A 
ATOM      3  C   UNL d   1      29.886  15.997 -23.873  0.00  0.00     0.048 A 
ATOM      4  C   UNL d   1      29.767  17.507 -24.521  0.00  0.00     0.005 A 
ATOM      5  C   UNL d   1      29.159  16.264 -24.164  0.00  0.00     0.096 A 
ATOM      6  C   UNL d   1      29.100  17.023 -24.489  0.00  0.00     0.024 A 
ENDROOT
BRANCH   1   7
ATOM      7  C   UNL d   1      31.154  17.721 -24.263  0.00  0.00     0.107 A 
ATOM      8  C   UNL d   1      31.740  18.678 -23.384  0.00  0.00     0.048 A 
ATOM      9  C   UNL d   1      32.341  18.808 -23.934  0.00  0.00     0.169 A 
ATOM     10  N   UNL d   1      32.357  18.401 -24.650  0.00  0.00    -0.142 NA
ATOM     11  N   UNL d   1      31.757  17.855 -24.810  0.00  0.00    -0.148 NA
BRANCH   9  12
ATOM     12  C   UNL d   1      32.936  19.356 -23.765  0.00  0.00     0.231 C 
ATOM     13  O   UNL d   1      33.241  19.410 -23.000  0.00  0.00    -0.643 OA
ATOM     14  O   UNL d   1      33.225  19.848 -24.359  0.00  0.00    -0.643 OA
ENDBRANCH   9  12
ENDBRANCH   1   7
BRANCH   2  15
ATOM     15  O   UNL d   1      31.274  16.215 -23.616  0.00  0.00    -0.328 OA
ATOM     16  C   UNL d   1      31.334  15.453 -23.299  0.00  0.00     0.181 C 
ENDBRANCH   2  15
BRANCH   5  17
ATOM     17  O   UNL d   1      28.495  15.776 -24.129  0.00  0.00    -0.328 OA
ATOM     18  C   UNL d   1      27.797  16.048 -23.776  0.00  0.00     0.181 C 
ENDBRANCH   5  17
TORSDOF 4
ENDMDL
MODEL 4
REMARK VINA RESULT:      -2.3      1.859      5.067
REMARK  4 active torsions:
REMARK  status: ('A' for Active; 'I' for Inactive)
REMARK    1  A    between atoms: C_7  and  C_1 
REMARK    2  A    between atoms: C_6  and  C_3 
REMARK    3  A    between atoms: O_15  and  C_8 
REMARK    4  A    between atoms: O_16  and  C_12 
ROOT
ATOM      1  C   UNL d   1      32.594  18.565 -23.235  0.00  0.00     0.042 A 
ATOM      2  C   UNL d   1      32.801  18.723 -24.016  0.00  0.00     0.098 A 
ATOM      3  C   UNL d   1      32.659  18.164 -24.599  0.00  0.00     0.048 A 
ATOM      4  C   UNL d   1      32.245  17.848 -23.036  0.00  0.00     0.005 A 
ATOM      5  C   UNL d   1      32.307  17.440 -24.404  0.00  0.00     0.096 A 
ATOM      6  C   UNL d   1      32.100  17.283 -23.618  0.00  0.00     0.024 A 
ENDROOT
BRANCH   1   7
ATOM      7  C   UNL d   1      32.739  19.131 -22.652  0.00  0.00     0.107 A 
ATOM      8  C   UNL d   1      32.217  20.424 -22.361  0.00  0.00     0.048 A 
ATOM      9  C   UNL d   1      32.720  20.476 -21.709  0.00  0.00     0.169 A 
ATOM     10  N   UNL d   1      33.236  19.862 -21.521  0.00  0.00    -0.142 NA
ATOM     11  N   UNL d   1      33.241  19.187 -21.999  0.00  0.00    -0.148 NA
BRANCH   9  12
ATOM     12  C   UNL d   1      32.708  21.154 -21.237  0.00  0.00     0.231 C 
ATOM     13  O   UNL d   1      33.087  21.841 -21.494  0.00  0.00    -0.643 OA
ATOM     14  O   UNL d   1      32.319  21.146 -20.511  0.00  0.00    -0.643 OA
ENDBRANCH   9  12
ENDBRANCH   1   7
BRANCH   2  15
ATOM     15  O   UNL d   1      33.152  19.447 -24.211  0.00  0.00    -0.328 OA
ATOM     16  C   UNL d   1      33.241  19.659 -25.006  0.00  0.00     0.181 C 
ENDBRANCH   2  15
BRANCH   5  17
ATOM     17  O   UNL d   1      32.165  16.878 -24.990  0.00  0.00    -0.328 OA
ATOM     18  C   UNL d   1      32.285  16.075 -24.834  0.00  0.00     0.181 C 
ENDBRANCH   5  17
TORSDOF 4
ENDMDL
MODEL 5
REMARK VINA RESULT:      -2.3      5.955      7.008
REMARK  4 active torsions:
REMARK  status: ('A' for Active; 'I' for Inactive)
REMARK    1  A    between atoms: C_7  and  C_1 
REMARK    2  A    between atoms: C_6  and  C_3 
REMARK    3  A    between atoms: O_15  and  C_8 
REMARK    4  A    between atoms: O_16  and  C_12 
ROOT
ATOM      1  C   UNL d   1      29.623  16.210 -23.969  0.00  0.00     0.042 A 
ATOM      2  C   UNL d   1      29.062  16.792 -24.119  0.00  0.00     0.098 A 
ATOM      3  C   UNL d   1      28.297  16.708 -23.834  0.00  0.00     0.048 A 
ATOM      4  C   UNL d   1      29.423  15.542 -23.535  0.00  0.00     0.005 A 
ATOM      5  C   UNL d   1      28.090  16.037 -23.395  0.00  0.00     0.096 A 
ATOM      6  C   UNL d   1      28.656  15.453 -23.246  0.00  0.00     0.024 A 
ENDROOT
BRANCH   1   7
ATOM      7  C   UNL d   1      30.392  16.300 -24.259  0.00  0.00     0.107 A 
ATOM      8  C   UNL d   1      31.641  16.673 -23.683  0.00  0.00     0.048 A 
ATOM      9  C   UNL d   1      32.001  16.585 -24.420  0.00  0.00     0.169 A 
ATOM     10  N   UNL d   1      31.567  16.355 -25.081  0.00  0.00    -0.142 NA
ATOM     11  N   UNL d   1      30.757  16.213 -24.994  0.00  0.00    -0.148 NA
BRANCH   9  12
ATOM     12  C   UNL d   1      32.812  16.729 -24.497  0.00  0.00     0.231 C 
ATOM     13  O   UNL d   1      33.241  16.354 -25.094  0.00  0.00    -0.643 OA
ATOM     14  O   UNL d   1      33.190  17.246 -23.980  0.00  0.00    -0.643 OA
ENDBRANCH   9  12
ENDBRANCH   1   7
BRANCH   2  15
ATOM     15  O   UNL d   1      29.269  17.463 -24.558  0.00  0.00    -0.328 OA
ATOM     16  C   UNL d   1      28.731  18.087 -24.633  0.00  0.00     0.181 C 
ENDBRANCH   2  15
BRANCH   5  17
ATOM     17  O   UNL d   1      27.321  15.952 -23.109  0.00  0.00    -0.328 OA
ATOM     18  C   UNL d   1      26.768  15.503 -23.529  0.00  0.00     0.181 C 
ENDBRANCH   5  17
TORSDOF 4
ENDMDL
MODEL 6
REMARK VINA RESULT:      -2.2      5.129      6.549
REMARK  4 active torsions:
REMARK  status: ('A' for Active; 'I' for Inactive)
REMARK    1  A    between atoms: C_7  and  C_1 
REMARK    2  A    between atoms: C_6  and  C_3 
REMARK    3  A    between atoms: O_15  and  C_8 
REMARK    4  A    between atoms: O_16  and  C_12 
ROOT
ATOM      1  C   UNL d   1      31.255  17.157 -24.425  0.00  0.00     0.042 A 
ATOM      2  C   UNL d   1      32.007  16.877 -24.242  0.00  0.00     0.098 A 
ATOM      3  C   UNL d   1      32.660  17.364 -24.335  0.00  0.00     0.048 A 
ATOM      4  C   UNL d   1      31.154  17.924 -24.701  0.00  0.00     0.005 A 
ATOM      5  C   UNL d   1      32.565  18.138 -24.613  0.00  0.00     0.096 A 
ATOM      6  C   UNL d   1      31.808  18.418 -24.796  0.00  0.00     0.024 A 
ENDROOT
BRANCH   1   7
ATOM      7  C   UNL d   1      30.601  16.662 -24.330  0.00  0.00     0.107 A 
ATOM      8  C   UNL d   1      29.389  16.739 -23.585  0.00  0.00     0.048 A 
ATOM      9  C   UNL d   1      29.167  16.001 -23.880  0.00  0.00     0.169 A 
ATOM     10  N   UNL d   1      29.654  15.586 -24.399  0.00  0.00    -0.142 NA
ATOM     11  N   UNL d   1      30.375  15.925 -24.622  0.00  0.00    -0.148 NA
BRANCH   9  12
ATOM     12  C   UNL d   1      28.444  15.670 -23.650  0.00  0.00     0.231 C 
ATOM     13  O   UNL d   1      27.853  15.545 -24.212  0.00  0.00    -0.643 OA
ATOM     14  O   UNL d   1      28.314  15.467 -22.863  0.00  0.00    -0.643 OA
ENDBRANCH   9  12
ENDBRANCH   1   7
BRANCH   2  15
ATOM     15  O   UNL d   1      32.103  16.102 -23.965  0.00  0.00    -0.328 OA
ATOM     16  C   UNL d   1      32.819  15.876 -23.618  0.00  0.00     0.181 C 
ENDBRANCH   2  15
BRANCH   5  17
ATOM     17  O   UNL d   1      33.221  18.628 -24.706  0.00  0.00    -0.328 OA
ATOM     18  C   UNL d   1      33.124  19.411 -24.954  0.00  0.00     0.181 C 
ENDBRANCH   5  17
TORSDOF 4
ENDMDL
MODEL 7
REMARK VINA RESULT:      -2.2      2.001      2.673
REMARK  4 active torsions:
REMARK  status: ('A' for Active; 'I' for Inactive)
REMARK    1  A    between atoms: C_7  and  C_1 
REMARK    2  A    between atoms: C_6  and  C_3 
REMARK    3  A    between atoms: O_15  and  C_8 
REMARK    4  A    between atoms: O_16  and  C_12 
ROOT
ATOM      1  C   UNL d   1      32.608  23.099 -20.368  0.00  0.00     0.042 A 
ATOM      2  C   UNL d   1      32.884  22.365 -20.118  0.00  0.00     0.098 A 
ATOM      3  C   UNL d   1      33.036  22.233 -19.323  0.00  0.00     0.048 A 
ATOM      4  C   UNL d   1      32.484  23.702 -19.825  0.00  0.00     0.005 A 
ATOM      5  C   UNL d   1      32.913  22.837 -18.771  0.00  0.00     0.096 A 
ATOM      6  C   UNL d   1      32.635  23.575 -19.024  0.00  0.00     0.024 A 
ENDROOT
BRANCH   1   7
ATOM      7  C   UNL d   1      32.456  23.226 -21.170  0.00  0.00     0.107 A 
ATOM      8  C   UNL d   1      33.169  22.967 -22.376  0.00  0.00     0.048 A 
ATOM      9  C   UNL d   1      32.547  23.295 -22.808  0.00  0.00     0.169 A 
ATOM     10  N   UNL d   1      31.877  23.591 -22.431  0.00  0.00    -0.142 NA
ATOM     11  N   UNL d   1      31.837  23.554 -21.605  0.00  0.00    -0.148 NA
BRANCH   9  12
ATOM     12  C   UNL d   1      32.596  23.328 -23.633  0.00  0.00     0.231 C 
ATOM     13  O   UNL d   1      33.240  22.988 -24.020  0.00  0.00    -0.643 OA
ATOM     14  O   UNL d   1      32.003  23.699 -24.067  0.00  0.00    -0.643 OA
ENDBRANCH   9  12
ENDBRANCH   1   7
BRANCH   2  15
ATOM     15  O   UNL d   1      33.007  21.760 -20.670  0.00  0.00    -0.328 OA
ATOM     16  C   UNL d   1      33.179  20.994 -20.408  0.00  0.00     0.181 C 
ENDBRANCH   2  15
BRANCH   5  17
ATOM     17  O   UNL d   1      33.065  22.705 -17.971  0.00  0.00    -0.328 OA
ATOM     18  C   UNL d   1      33.150  23.344 -17.452  0.00  0.00     0.181 C 
ENDBRANCH   5  17
TORSDOF 4
ENDMDL
MODEL 8
REMARK VINA RESULT:      -2.1      1.695      4.266
REMARK  4 active torsions:
REMARK  status: ('A' for Active; 'I' for Inactive)
REMARK    1  A    between atoms: C_7  and  C_1 
REMARK    2  A    between atoms: C_6  and  C_3 
REMARK    3  A    between atoms: O_15  and  C_8 
REMARK    4  A    between atoms: O_16  and  C_12 
ROOT
ATOM      1  C   UNL d   1      32.795  22.129 -20.315  0.00  0.00     0.042 A 
ATOM      2  C   UNL d   1      32.575  22.484 -21.024  0.00  0.00     0.098 A 
ATOM      3  C   UNL d   1      32.524  22.036 -21.709  0.00  0.00     0.048 A 
ATOM      4  C   UNL d   1      32.963  21.326 -20.288  0.00  0.00     0.005 A 
ATOM      5  C   UNL d   1      32.693  21.225 -21.688  0.00  0.00     0.096 A 
ATOM      6  C   UNL d   1      32.913  20.870 -20.973  0.00  0.00     0.024 A 
ENDROOT
BRANCH   1   7
ATOM      7  C   UNL d   1      32.844  22.586 -19.628  0.00  0.00     0.107 A 
ATOM      8  C   UNL d   1      32.274  22.499 -18.325  0.00  0.00     0.048 A 
ATOM      9  C   UNL d   1      32.672  23.189 -18.111  0.00  0.00     0.169 A 
ATOM     10  N   UNL d   1      33.157  23.584 -18.646  0.00  0.00    -0.142 NA
ATOM     11  N   UNL d   1      33.240  23.275 -19.409  0.00  0.00    -0.148 NA
BRANCH   9  12
ATOM     12  C   UNL d   1      32.582  23.490 -17.346  0.00  0.00     0.231 C 
ATOM     13  O   UNL d   1      31.833  23.700 -17.072  0.00  0.00    -0.643 OA
ATOM     14  O   UNL d   1      33.240  23.580 -16.858  0.00  0.00    -0.643 OA
ENDBRANCH   9  12
ENDBRANCH   1   7
BRANCH   2  15
ATOM     15  O   UNL d   1      32.407  23.294 -21.045  0.00  0.00    -0.328 OA
ATOM     16  C   UNL d   1      32.211  23.655 -21.764  0.00  0.00     0.181 C 
ENDBRANCH   2  15
BRANCH   5  17
ATOM     17  O   UNL d   1      32.641  20.774 -22.376  0.00  0.00    -0.328 OA
ATOM     18  C   UNL d   1      32.852  19.974 -22.365  0.00  0.00     0.181 C 
ENDBRANCH   5  17
TORSDOF 4
ENDMDL
MODEL 9
REMARK VINA RESULT:      -1.5      2.667      5.854
REMARK  4 active torsions:
REMARK  status: ('A' for Active; 'I' for Inactive)
REMARK    1  A    between atoms: C_7  and  C_1 
REMARK    2  A    between atoms: C_6  and  C_3 
REMARK    3  A    between atoms: O_15  and  C_8 
REMARK    4  A    between atoms: O_16  and  C_12 
ROOT
ATOM      1  C   UNL d   1      31.956  17.799 -23.905  0.00  0.00     0.042 A 
ATOM      2  C   UNL d   1      32.228  17.050 -23.700  0.00  0.00     0.098 A 
ATOM      3  C   UNL d   1      31.838  16.383 -23.976  0.00  0.00     0.048 A 
ATOM      4  C   UNL d   1      31.295  17.884 -24.385  0.00  0.00     0.005 A 
ATOM      5  C   UNL d   1      31.171  16.462 -24.460  0.00  0.00     0.096 A 
ATOM      6  C   UNL d   1      30.900  17.217 -24.665  0.00  0.00     0.024 A 
ENDROOT
BRANCH   1   7
ATOM      7  C   UNL d   1      32.353  18.468 -23.624  0.00  0.00     0.107 A 
ATOM      8  C   UNL d   1      32.227  19.295 -22.471  0.00  0.00     0.048 A 
ATOM      9  C   UNL d   1      32.855  19.757 -22.740  0.00  0.00     0.169 A 
ATOM     10  N   UNL d   1      33.238  19.583 -23.449  0.00  0.00    -0.142 NA
ATOM     11  N   UNL d   1      32.980  18.932 -23.889  0.00  0.00    -0.148 NA
BRANCH   9  12
ATOM     12  C   UNL d   1      33.105  20.406 -22.292  0.00  0.00     0.231 C 
ATOM     13  O   UNL d   1      33.241  20.319 -21.483  0.00  0.00    -0.643 OA
ATOM     14  O   UNL d   1      33.218  21.137 -22.653  0.00  0.00    -0.643 OA
ENDBRANCH   9  12
ENDBRANCH   1   7
BRANCH   2  15
ATOM     15  O   UNL d   1      32.895  16.970 -23.216  0.00  0.00    -0.328 OA
ATOM     16  C   UNL d   1      33.214  16.220 -23.077  0.00  0.00     0.181 C 
ENDBRANCH   2  15
BRANCH   5  17
ATOM     17  O   UNL d   1      30.780  15.792 -24.737  0.00  0.00    -0.328 OA
ATOM     18  C   UNL d   1      30.036  15.863 -25.095  0.00  0.00     0.181 C 
ENDBRANCH   5  17
TORSDOF 4
ENDMDL
