MODEL 1
REMARK VINA RESULT:      62.6      0.000      0.000
REMARK  5 active torsions:
REMARK  status: ('A' for Active; 'I' for Inactive)
REMARK    1  A    between atoms: N_3  and  C_1 
REMARK    2  A    between atoms: C_12  and  N_2 
REMARK       I    between atoms: C_6  and  N_3 
REMARK    3  A    between atoms: C_8  and  C_6 
REMARK    4  A    between atoms: C_16  and  C_12 
REMARK    5  A    between atoms: O_22  and  C_16 
ROOT
ATOM      1  C   UNL d   1     -50.802  26.152  33.417  0.00  0.00     0.183 A 
ATOM      2  N   UNL d   1     -50.634  25.348  33.378  0.00  0.00    -0.280 N 
ATOM      3  S   UNL d   1     -51.622  26.240  33.429  0.00  0.00    -0.048 SA
ATOM      4  C   UNL d   1     -51.963  25.485  33.396  0.00  0.00     0.051 A 
ATOM      5  C   UNL d   1     -51.349  24.931  33.364  0.00  0.00     0.072 A 
ATOM      6  C   UNL d   1     -52.748  25.232  33.390  0.00  0.00     0.038 A 
ATOM      7  C   UNL d   1     -51.521  24.126  33.327  0.00  0.00     0.020 A 
ATOM      8  C   UNL d   1     -52.920  24.427  33.353  0.00  0.00     0.141 A 
ATOM      9  C   UNL d   1     -52.307  23.873  33.322  0.00  0.00     0.031 A 
ATOM     10  F   UNL d   1     -53.700  24.180  33.348  0.00  0.00    -0.204 F 
ENDROOT
BRANCH   1  11
ATOM     11  N   UNL d   1     -50.241  26.759  33.442  0.00  0.00    -0.183 NA
ATOM     12  C   UNL d   1     -50.445  27.487  33.773  0.00  0.00     0.287 C 
ATOM     13  O   UNL d   1     -51.203  27.602  34.077  0.00  0.00    -0.265 OA
BRANCH  12  14
ATOM     14  C   UNL d   1     -49.899  28.089  33.800  0.00  0.00     0.088 A 
ATOM     15  S   UNL d   1     -49.236  28.132  34.298  0.00  0.00    -0.071 SA
ATOM     16  C   UNL d   1     -48.843  28.827  34.141  0.00  0.00     0.087 A 
ATOM     17 CL   UNL d   1     -48.160  29.104  34.498  0.00  0.00    -0.075 Cl
ATOM     18  C   UNL d   1     -49.255  29.214  33.554  0.00  0.00     0.019 A 
ATOM     19  C   UNL d   1     -49.900  28.759  33.347  0.00  0.00     0.013 A 
ENDBRANCH  12  14
ENDBRANCH   1  11
BRANCH   2  20
ATOM     20  C   UNL d   1     -50.108  24.717  33.343  0.00  0.00     0.151 C 
BRANCH  20  21
ATOM     21  C   UNL d   1     -49.328  24.827  33.558  0.00  0.00     0.314 C 
ATOM     22  O   UNL d   1     -48.771  24.263  33.356  0.00  0.00    -0.257 OA
BRANCH  21  23
ATOM     23  O   UNL d   1     -49.105  25.490  33.970  0.00  0.00    -0.295 OA
ATOM     24  C   UNL d   1     -48.322  25.617  34.149  0.00  0.00     0.185 C 
ENDBRANCH  21  23
ENDBRANCH  20  21
ENDBRANCH   2  20
TORSDOF 5
ENDMDL
