MODEL 1
REMARK VINA RESULT:      -8.0      0.000      0.000
REMARK  4 active torsions:
REMARK  status: ('A' for Active; 'I' for Inactive)
REMARK    1  A    between atoms: C_3  and  C_1 
REMARK    2  A    between atoms: C_11  and  N_2 
REMARK    3  A    between atoms: C_12  and  C_11 
REMARK       I    between atoms: N_13  and  C_12 
REMARK    4  A    between atoms: C_16  and  N_13 
ROOT
ATOM      1  C   UNL d   1     -48.002  12.498  22.953  0.00  0.00     0.171 A 
ATOM      2  N   UNL d   1     -47.999  13.322  22.864  0.00  0.00    -0.284 N 
ATOM      3  N   UNL d   1     -47.216  12.238  22.923  0.00  0.00    -0.225 NA
ATOM      4  C   UNL d   1     -47.217  13.564  22.781  0.00  0.00     0.083 A 
ATOM      5  C   UNL d   1     -46.735  12.896  22.817  0.00  0.00     0.099 A 
ATOM      6  C   UNL d   1     -46.869  14.330  22.673  0.00  0.00     0.019 A 
ATOM      7  C   UNL d   1     -45.896  12.983  22.746  0.00  0.00     0.021 A 
ATOM      8  C   UNL d   1     -46.065  14.386  22.608  0.00  0.00     0.002 A 
ATOM      9  C   UNL d   1     -45.582  13.718  22.644  0.00  0.00     0.002 A 
ENDROOT
BRANCH   2  10
ATOM     10  C   UNL d   1     -48.667  13.804  22.862  0.00  0.00     0.145 C 
BRANCH  10  11
ATOM     11  C   UNL d   1     -48.849  14.227  22.188  0.00  0.00     0.297 C 
ATOM     12  N   UNL d   1     -49.441  14.805  22.208  0.00  0.00    -0.207 NA
ATOM     13  O   UNL d   1     -48.448  14.087  21.472  0.00  0.00    -0.264 OA
BRANCH  12  14
ATOM     14  C   UNL d   1     -49.962  15.123  22.758  0.00  0.00     0.085 A 
ATOM     15  C   UNL d   1     -50.710  14.828  22.955  0.00  0.00     0.019 A 
ATOM     16  C   UNL d   1     -51.034  15.319  23.527  0.00  0.00     0.002 A 
ATOM     17  C   UNL d   1     -50.501  15.922  23.698  0.00  0.00     0.002 A 
ATOM     18  C   UNL d   1     -49.848  15.797  23.225  0.00  0.00     0.019 A 
ENDBRANCH  12  14
ENDBRANCH  10  11
ENDBRANCH   2  10
BRANCH   1  19
ATOM     19  C   UNL d   1     -48.675  12.017  23.054  0.00  0.00     0.184 A 
ATOM     20  C   UNL d   1     -48.931  11.429  22.535  0.00  0.00     0.235 A 
ATOM     21  N   UNL d   1     -49.620  11.093  22.851  0.00  0.00    -0.081 NA
ATOM     22  N   UNL d   1     -48.571  11.211  21.826  0.00  0.00    -0.123 N 
ATOM     23  O   UNL d   1     -49.785  11.474  23.564  0.00  0.00    -0.104 OA
ATOM     24  N   UNL d   1     -49.200  12.049  23.691  0.00  0.00    -0.097 NA
ENDBRANCH   1  19
TORSDOF 4
ENDMDL
MODEL 2
REMARK VINA RESULT:      -7.5      1.258      3.840
REMARK  4 active torsions:
REMARK  status: ('A' for Active; 'I' for Inactive)
REMARK    1  A    between atoms: C_3  and  C_1 
REMARK    2  A    between atoms: C_11  and  N_2 
REMARK    3  A    between atoms: C_12  and  C_11 
REMARK       I    between atoms: N_13  and  C_12 
REMARK    4  A    between atoms: C_16  and  N_13 
ROOT
ATOM      1  C   UNL d   1     -49.851  13.813  23.134  0.00  0.00     0.171 A 
ATOM      2  N   UNL d   1     -49.220  13.289  23.009  0.00  0.00    -0.284 N 
ATOM      3  N   UNL d   1     -50.494  13.370  23.412  0.00  0.00    -0.225 NA
ATOM      4  C   UNL d   1     -49.476  12.534  23.210  0.00  0.00     0.083 A 
ATOM      5  C   UNL d   1     -50.261  12.583  23.457  0.00  0.00     0.099 A 
ATOM      6  C   UNL d   1     -49.083  11.781  23.198  0.00  0.00     0.019 A 
ATOM      7  C   UNL d   1     -50.667  11.882  23.698  0.00  0.00     0.021 A 
ATOM      8  C   UNL d   1     -49.494  11.125  23.433  0.00  0.00     0.002 A 
ATOM      9  C   UNL d   1     -50.280  11.175  23.681  0.00  0.00     0.002 A 
ENDROOT
BRANCH   2  10
ATOM     10  C   UNL d   1     -48.473  13.501  22.734  0.00  0.00     0.145 C 
BRANCH  10  11
ATOM     11  C   UNL d   1     -48.232  13.238  22.000  0.00  0.00     0.297 C 
ATOM     12  N   UNL d   1     -47.425  13.190  21.821  0.00  0.00    -0.207 NA
ATOM     13  O   UNL d   1     -48.786  13.015  21.420  0.00  0.00    -0.264 OA
BRANCH  12  14
ATOM     14  C   UNL d   1     -46.709  13.342  22.194  0.00  0.00     0.085 A 
ATOM     15  C   UNL d   1     -46.351  14.082  22.290  0.00  0.00     0.019 A 
ATOM     16  C   UNL d   1     -45.645  13.973  22.693  0.00  0.00     0.002 A 
ATOM     17  C   UNL d   1     -45.550  13.173  22.857  0.00  0.00     0.002 A 
ATOM     18  C   UNL d   1     -46.202  12.792  22.550  0.00  0.00     0.019 A 
ENDBRANCH  12  14
ENDBRANCH  10  11
ENDBRANCH   2  10
BRANCH   1  19
ATOM     19  C   UNL d   1     -49.840  14.635  23.003  0.00  0.00     0.184 A 
ATOM     20  C   UNL d   1     -50.395  15.062  22.567  0.00  0.00     0.235 A 
ATOM     21  N   UNL d   1     -50.170  15.861  22.581  0.00  0.00    -0.081 NA
ATOM     22  N   UNL d   1     -51.058  14.756  22.184  0.00  0.00    -0.123 N 
ATOM     23  O   UNL d   1     -49.478  15.922  23.025  0.00  0.00    -0.104 OA
ATOM     24  N   UNL d   1     -49.272  15.162  23.288  0.00  0.00    -0.097 NA
ENDBRANCH   1  19
TORSDOF 4
ENDMDL
MODEL 3
REMARK VINA RESULT:      -7.5      1.239      2.673
REMARK  4 active torsions:
REMARK  status: ('A' for Active; 'I' for Inactive)
REMARK    1  A    between atoms: C_3  and  C_1 
REMARK    2  A    between atoms: C_11  and  N_2 
REMARK    3  A    between atoms: C_12  and  C_11 
REMARK       I    between atoms: N_13  and  C_12 
REMARK    4  A    between atoms: C_16  and  N_13 
ROOT
ATOM      1  C   UNL d   1     -46.908  13.007  23.004  0.00  0.00     0.171 A 
ATOM      2  N   UNL d   1     -47.736  13.057  23.029  0.00  0.00    -0.284 N 
ATOM      3  N   UNL d   1     -46.696  12.233  23.210  0.00  0.00    -0.225 NA
ATOM      4  C   UNL d   1     -48.027  12.319  23.248  0.00  0.00     0.083 A 
ATOM      5  C   UNL d   1     -47.386  11.811  23.360  0.00  0.00     0.099 A 
ATOM      6  C   UNL d   1     -48.817  12.034  23.365  0.00  0.00     0.019 A 
ATOM      7  C   UNL d   1     -47.525  11.010  23.591  0.00  0.00     0.021 A 
ATOM      8  C   UNL d   1     -48.923  11.263  23.586  0.00  0.00     0.002 A 
ATOM      9  C   UNL d   1     -48.282  10.755  23.698  0.00  0.00     0.002 A 
ENDROOT
BRANCH   2  10
ATOM     10  C   UNL d   1     -48.178  13.731  22.861  0.00  0.00     0.145 C 
BRANCH  10  11
ATOM     11  C   UNL d   1     -48.714  13.712  22.246  0.00  0.00     0.297 C 
ATOM     12  N   UNL d   1     -49.379  14.204  22.260  0.00  0.00    -0.207 NA
ATOM     13  O   UNL d   1     -48.605  13.202  21.597  0.00  0.00    -0.264 OA
BRANCH  12  14
ATOM     14  C   UNL d   1     -49.706  14.770  22.757  0.00  0.00     0.085 A 
ATOM     15  C   UNL d   1     -49.473  15.562  22.823  0.00  0.00     0.019 A 
ATOM     16  C   UNL d   1     -49.950  15.922  23.384  0.00  0.00     0.002 A 
ATOM     17  C   UNL d   1     -50.485  15.370  23.677  0.00  0.00     0.002 A 
ATOM     18  C   UNL d   1     -50.331  14.669  23.291  0.00  0.00     0.019 A 
ENDBRANCH  12  14
ENDBRANCH  10  11
ENDBRANCH   2  10
BRANCH   1  19
ATOM     19  C   UNL d   1     -46.385  13.624  22.807  0.00  0.00     0.184 A 
ATOM     20  C   UNL d   1     -45.747  13.568  22.286  0.00  0.00     0.235 A 
ATOM     21  N   UNL d   1     -45.379  14.311  22.255  0.00  0.00    -0.081 NA
ATOM     22  N   UNL d   1     -45.513  12.898  21.868  0.00  0.00    -0.123 N 
ATOM     23  O   UNL d   1     -45.791  14.821  22.757  0.00  0.00    -0.104 OA
ATOM     24  N   UNL d   1     -46.415  14.395  23.100  0.00  0.00    -0.097 NA
ENDBRANCH   1  19
TORSDOF 4
ENDMDL
MODEL 4
REMARK VINA RESULT:      -6.4      1.017      3.395
REMARK  4 active torsions:
REMARK  status: ('A' for Active; 'I' for Inactive)
REMARK    1  A    between atoms: C_3  and  C_1 
REMARK    2  A    between atoms: C_11  and  N_2 
REMARK    3  A    between atoms: C_12  and  C_11 
REMARK       I    between atoms: N_13  and  C_12 
REMARK    4  A    between atoms: C_16  and  N_13 
ROOT
ATOM      1  C   UNL d   1     -49.028  13.033  22.854  0.00  0.00     0.171 A 
ATOM      2  N   UNL d   1     -48.463  13.620  22.698  0.00  0.00    -0.284 N 
ATOM      3  N   UNL d   1     -49.773  13.398  22.867  0.00  0.00    -0.225 NA
ATOM      4  C   UNL d   1     -48.859  14.336  22.617  0.00  0.00     0.083 A 
ATOM      5  C   UNL d   1     -49.666  14.199  22.721  0.00  0.00     0.099 A 
ATOM      6  C   UNL d   1     -48.582  15.122  22.456  0.00  0.00     0.019 A 
ATOM      7  C   UNL d   1     -50.209  14.845  22.667  0.00  0.00     0.021 A 
ATOM      8  C   UNL d   1     -49.122  15.723  22.409  0.00  0.00     0.002 A 
ATOM      9  C   UNL d   1     -49.928  15.585  22.514  0.00  0.00     0.002 A 
ENDROOT
BRANCH   2  10
ATOM     10  C   UNL d   1     -47.651  13.495  22.637  0.00  0.00     0.145 C 
BRANCH  10  11
ATOM     11  C   UNL d   1     -47.148  13.913  23.125  0.00  0.00     0.297 C 
ATOM     12  N   UNL d   1     -46.329  13.817  23.056  0.00  0.00    -0.207 NA
ATOM     13  O   UNL d   1     -47.443  14.440  23.697  0.00  0.00    -0.264 OA
BRANCH  12  14
ATOM     14  C   UNL d   1     -45.804  13.382  22.597  0.00  0.00     0.085 A 
ATOM     15  C   UNL d   1     -45.545  12.610  22.744  0.00  0.00     0.019 A 
ATOM     16  C   UNL d   1     -45.026  12.397  22.144  0.00  0.00     0.002 A 
ATOM     17  C   UNL d   1     -44.952  13.025  21.618  0.00  0.00     0.002 A 
ATOM     18  C   UNL d   1     -45.429  13.623  21.899  0.00  0.00     0.019 A 
ENDBRANCH  12  14
ENDBRANCH  10  11
ENDBRANCH   2  10
BRANCH   1  19
ATOM     19  C   UNL d   1     -48.875  12.224  22.975  0.00  0.00     0.184 A 
ATOM     20  C   UNL d   1     -48.890  11.637  22.395  0.00  0.00     0.235 A 
ATOM     21  N   UNL d   1     -48.705  10.915  22.759  0.00  0.00    -0.081 NA
ATOM     22  N   UNL d   1     -49.058  11.744  21.595  0.00  0.00    -0.123 N 
ATOM     23  O   UNL d   1     -48.577  11.059  23.561  0.00  0.00    -0.104 OA
ATOM     24  N   UNL d   1     -48.682  11.871  23.697  0.00  0.00    -0.097 NA
ENDBRANCH   1  19
TORSDOF 4
ENDMDL
MODEL 5
REMARK VINA RESULT:      -6.0      8.686     10.573
REMARK  4 active torsions:
REMARK  status: ('A' for Active; 'I' for Inactive)
REMARK    1  A    between atoms: C_3  and  C_1 
REMARK    2  A    between atoms: C_11  and  N_2 
REMARK    3  A    between atoms: C_12  and  C_11 
REMARK       I    between atoms: N_13  and  C_12 
REMARK    4  A    between atoms: C_16  and  N_13 
ROOT
ATOM      1  C   UNL d   1     -40.219  15.118  19.267  0.00  0.00     0.171 A 
ATOM      2  N   UNL d   1     -39.892  14.764  18.593  0.00  0.00    -0.284 N 
ATOM      3  N   UNL d   1     -40.840  15.607  19.018  0.00  0.00    -0.225 NA
ATOM      4  C   UNL d   1     -40.309  15.034  17.938  0.00  0.00     0.083 A 
ATOM      5  C   UNL d   1     -40.894  15.554  18.200  0.00  0.00     0.099 A 
ATOM      6  C   UNL d   1     -40.232  14.870  17.109  0.00  0.00     0.019 A 
ATOM      7  C   UNL d   1     -41.411  15.918  17.638  0.00  0.00     0.021 A 
ATOM      8  C   UNL d   1     -40.738  15.231  16.592  0.00  0.00     0.002 A 
ATOM      9  C   UNL d   1     -41.323  15.751  16.854  0.00  0.00     0.002 A 
ENDROOT
BRANCH   2  10
ATOM     10  C   UNL d   1     -39.260  14.236  18.591  0.00  0.00     0.145 C 
BRANCH  10  11
ATOM     11  C   UNL d   1     -38.572  14.440  18.202  0.00  0.00     0.297 C 
ATOM     12  N   UNL d   1     -38.062  13.851  17.925  0.00  0.00    -0.207 NA
ATOM     13  O   UNL d   1     -38.371  15.238  18.075  0.00  0.00    -0.264 OA
BRANCH  12  14
ATOM     14  C   UNL d   1     -38.026  13.030  17.919  0.00  0.00     0.085 A 
ATOM     15  C   UNL d   1     -38.057  12.540  17.252  0.00  0.00     0.019 A 
ATOM     16  C   UNL d   1     -38.003  11.762  17.505  0.00  0.00     0.002 A 
ATOM     17  C   UNL d   1     -37.940  11.749  18.325  0.00  0.00     0.002 A 
ATOM     18  C   UNL d   1     -37.954  12.526  18.572  0.00  0.00     0.019 A 
ENDBRANCH  12  14
ENDBRANCH  10  11
ENDBRANCH   2  10
BRANCH   1  19
ATOM     19  C   UNL d   1     -39.969  15.003  20.053  0.00  0.00     0.184 A 
ATOM     20  C   UNL d   1     -40.357  14.549  20.622  0.00  0.00     0.235 A 
ATOM     21  N   UNL d   1     -39.916  14.588  21.323  0.00  0.00    -0.081 NA
ATOM     22  N   UNL d   1     -41.058  14.129  20.518  0.00  0.00    -0.123 N 
ATOM     23  O   UNL d   1     -39.258  15.067  21.184  0.00  0.00    -0.104 OA
ATOM     24  N   UNL d   1     -39.290  15.325  20.395  0.00  0.00    -0.097 NA
ENDBRANCH   1  19
TORSDOF 4
ENDMDL
MODEL 6
REMARK VINA RESULT:      -5.5      7.805      9.975
REMARK  4 active torsions:
REMARK  status: ('A' for Active; 'I' for Inactive)
REMARK    1  A    between atoms: C_3  and  C_1 
REMARK    2  A    between atoms: C_11  and  N_2 
REMARK    3  A    between atoms: C_12  and  C_11 
REMARK       I    between atoms: N_13  and  C_12 
REMARK    4  A    between atoms: C_16  and  N_13 
ROOT
ATOM      1  C   UNL d   1     -40.268  14.665  19.552  0.00  0.00     0.171 A 
ATOM      2  N   UNL d   1     -39.544  14.279  19.671  0.00  0.00    -0.284 N 
ATOM      3  N   UNL d   1     -40.445  14.628  18.744  0.00  0.00    -0.225 NA
ATOM      4  C   UNL d   1     -39.280  14.009  18.940  0.00  0.00     0.083 A 
ATOM      5  C   UNL d   1     -39.835  14.223  18.369  0.00  0.00     0.099 A 
ATOM      6  C   UNL d   1     -38.584  13.581  18.712  0.00  0.00     0.019 A 
ATOM      7  C   UNL d   1     -39.704  14.013  17.560  0.00  0.00     0.021 A 
ATOM      8  C   UNL d   1     -38.481  13.392  17.933  0.00  0.00     0.002 A 
ATOM      9  C   UNL d   1     -39.037  13.607  17.361  0.00  0.00     0.002 A 
ENDROOT
BRANCH   2  10
ATOM     10  C   UNL d   1     -39.165  14.189  20.397  0.00  0.00     0.145 C 
BRANCH  10  11
ATOM     11  C   UNL d   1     -38.461  14.581  20.528  0.00  0.00     0.297 C 
ATOM     12  N   UNL d   1     -38.031  14.440  21.221  0.00  0.00    -0.207 NA
ATOM     13  O   UNL d   1     -38.163  15.126  19.974  0.00  0.00    -0.264 OA
BRANCH  12  14
ATOM     14  C   UNL d   1     -38.100  13.976  21.895  0.00  0.00     0.085 A 
ATOM     15  C   UNL d   1     -37.940  13.165  21.954  0.00  0.00     0.019 A 
ATOM     16  C   UNL d   1     -38.083  12.933  22.727  0.00  0.00     0.002 A 
ATOM     17  C   UNL d   1     -38.332  13.584  23.162  0.00  0.00     0.002 A 
ATOM     18  C   UNL d   1     -38.341  14.218  22.650  0.00  0.00     0.019 A 
ENDBRANCH  12  14
ENDBRANCH  10  11
ENDBRANCH   2  10
BRANCH   1  19
ATOM     19  C   UNL d   1     -40.735  15.025  20.141  0.00  0.00     0.184 A 
ATOM     20  C   UNL d   1     -41.365  14.673  20.541  0.00  0.00     0.235 A 
ATOM     21  N   UNL d   1     -41.669  15.229  21.076  0.00  0.00    -0.081 NA
ATOM     22  N   UNL d   1     -41.646  13.906  20.433  0.00  0.00    -0.123 N 
ATOM     23  O   UNL d   1     -41.226  15.921  21.004  0.00  0.00    -0.104 OA
ATOM     24  N   UNL d   1     -40.645  15.796  20.424  0.00  0.00    -0.097 NA
ENDBRANCH   1  19
TORSDOF 4
ENDMDL
