MODEL 1
REMARK VINA RESULT:      -2.9      0.000      0.000
REMARK  3 active torsions:
REMARK  status: ('A' for Active; 'I' for Inactive)
REMARK    1  A    between atoms: S_10  and  C_3 
REMARK    2  A    between atoms: C_14  and  S_10 
REMARK    3  A    between atoms: C_16  and  C_14 
ROOT
ATOM      1  C   UNL d   1      31.106  16.374 -23.769  0.00  0.00     0.155 A 
ATOM      2  C   UNL d   1      31.046  17.066 -24.217  0.00  0.00     0.107 A 
ATOM      3  C   UNL d   1      32.442  17.293 -24.041  0.00  0.00     0.182 A 
ATOM      4  N   UNL d   1      32.503  16.608 -23.597  0.00  0.00    -0.250 N 
ATOM      5  N   UNL d   1      31.720  17.528 -24.354  0.00  0.00    -0.220 NA
ATOM      6  C   UNL d   1      31.829  16.145 -23.459  0.00  0.00     0.285 A 
ATOM      7  N   UNL d   1      30.358  16.032 -23.724  0.00  0.00    -0.239 NA
ATOM      8  C   UNL d   1      30.265  17.157 -24.453  0.00  0.00     0.037 A 
ATOM      9  C   UNL d   1      29.833  16.514 -24.147  0.00  0.00     0.083 A 
ATOM     10  O   UNL d   1      31.897  15.453 -23.008  0.00  0.00    -0.265 OA
ATOM     11  C   UNL d   1      33.236  16.378 -23.285  0.00  0.00     0.104 C 
ATOM     12  C   UNL d   1      29.883  17.730 -24.900  0.00  0.00     0.003 A 
ATOM     13  C   UNL d   1      29.022  16.452 -24.293  0.00  0.00     0.019 A 
ATOM     14  C   UNL d   1      29.072  17.668 -25.046  0.00  0.00     0.000 A 
ATOM     15  C   UNL d   1      28.647  17.033 -24.744  0.00  0.00     0.002 A 
ENDROOT
BRANCH   3  16
ATOM     16  S   UNL d   1      33.114  17.751 -24.175  0.00  0.00    -0.050 SA
BRANCH  16  17
ATOM     17  C   UNL d   1      33.095  18.565 -24.045  0.00  0.00     0.032 C 
ATOM     18  C   UNL d   1      33.026  18.858 -23.280  0.00  0.00     0.007 C 
BRANCH  17  19
ATOM     19  C   UNL d   1      33.146  19.079 -24.687  0.00  0.00     0.007 C 
ATOM     20  C   UNL d   1      33.237  19.892 -24.561  0.00  0.00     0.001 C 
ENDBRANCH  17  19
ENDBRANCH  16  17
ENDBRANCH   3  16
TORSDOF 3
ENDMDL
MODEL 2
REMARK VINA RESULT:      -2.5      2.490      4.652
REMARK  3 active torsions:
REMARK  status: ('A' for Active; 'I' for Inactive)
REMARK    1  A    between atoms: S_10  and  C_3 
REMARK    2  A    between atoms: C_14  and  S_10 
REMARK    3  A    between atoms: C_16  and  C_14 
ROOT
ATOM      1  C   UNL d   1      33.239  20.524 -23.180  0.00  0.00     0.155 A 
ATOM      2  C   UNL d   1      33.238  19.898 -22.639  0.00  0.00     0.107 A 
ATOM      3  C   UNL d   1      33.238  18.972 -23.722  0.00  0.00     0.182 A 
ATOM      4  N   UNL d   1      33.239  19.590 -24.259  0.00  0.00    -0.250 N 
ATOM      5  N   UNL d   1      33.238  19.116 -22.914  0.00  0.00    -0.220 NA
ATOM      6  C   UNL d   1      33.240  20.373 -23.985  0.00  0.00     0.285 A 
ATOM      7  N   UNL d   1      33.240  21.229 -22.755  0.00  0.00    -0.239 NA
ATOM      8  C   UNL d   1      33.238  20.211 -21.880  0.00  0.00     0.037 A 
ATOM      9  C   UNL d   1      33.239  21.041 -21.949  0.00  0.00     0.083 A 
ATOM     10  O   UNL d   1      33.241  20.995 -24.533  0.00  0.00    -0.265 OA
ATOM     11  C   UNL d   1      33.240  19.434 -25.073  0.00  0.00     0.104 C 
ATOM     12  C   UNL d   1      33.237  19.862 -21.137  0.00  0.00     0.003 A 
ATOM     13  C   UNL d   1      33.239  21.512 -21.270  0.00  0.00     0.019 A 
ATOM     14  C   UNL d   1      33.237  20.335 -20.458  0.00  0.00     0.000 A 
ATOM     15  C   UNL d   1      33.238  21.154 -20.527  0.00  0.00     0.002 A 
ENDROOT
BRANCH   3  16
ATOM     16  S   UNL d   1      33.238  18.195 -23.998  0.00  0.00    -0.050 SA
BRANCH  16  17
ATOM     17  C   UNL d   1      32.719  17.640 -23.676  0.00  0.00     0.032 C 
ATOM     18  C   UNL d   1      31.911  17.705 -23.812  0.00  0.00     0.007 C 
BRANCH  17  19
ATOM     19  C   UNL d   1      33.019  17.024 -23.219  0.00  0.00     0.007 C 
ATOM     20  C   UNL d   1      32.670  16.274 -23.255  0.00  0.00     0.001 C 
ENDBRANCH  17  19
ENDBRANCH  16  17
ENDBRANCH   3  16
TORSDOF 3
ENDMDL
MODEL 3
REMARK VINA RESULT:      -1.8      2.992      5.021
REMARK  3 active torsions:
REMARK  status: ('A' for Active; 'I' for Inactive)
REMARK    1  A    between atoms: S_10  and  C_3 
REMARK    2  A    between atoms: C_14  and  S_10 
REMARK    3  A    between atoms: C_16  and  C_14 
ROOT
ATOM      1  C   UNL d   1      33.224  21.147 -21.910  0.00  0.00     0.155 A 
ATOM      2  C   UNL d   1      33.226  21.126 -22.736  0.00  0.00     0.107 A 
ATOM      3  C   UNL d   1      33.235  19.702 -22.694  0.00  0.00     0.182 A 
ATOM      4  N   UNL d   1      33.234  19.720 -21.876  0.00  0.00    -0.250 N 
ATOM      5  N   UNL d   1      33.231  20.397 -23.130  0.00  0.00    -0.220 NA
ATOM      6  C   UNL d   1      33.229  20.449 -21.481  0.00  0.00     0.285 A 
ATOM      7  N   UNL d   1      33.219  21.936 -21.673  0.00  0.00    -0.239 NA
ATOM      8  C   UNL d   1      33.221  21.898 -23.016  0.00  0.00     0.037 A 
ATOM      9  C   UNL d   1      33.216  22.405 -22.355  0.00  0.00     0.083 A 
ATOM     10  O   UNL d   1      33.227  20.462 -20.651  0.00  0.00    -0.265 OA
ATOM     11  C   UNL d   1      33.238  19.013 -21.443  0.00  0.00     0.104 C 
ATOM     12  C   UNL d   1      33.219  22.214 -23.774  0.00  0.00     0.003 A 
ATOM     13  C   UNL d   1      33.211  23.225 -22.463  0.00  0.00     0.019 A 
ATOM     14  C   UNL d   1      33.214  23.033 -23.880  0.00  0.00     0.000 A 
ATOM     15  C   UNL d   1      33.210  23.533 -23.228  0.00  0.00     0.002 A 
ENDROOT
BRANCH   3  16
ATOM     16  S   UNL d   1      33.241  18.975 -23.083  0.00  0.00    -0.050 SA
BRANCH  16  17
ATOM     17  C   UNL d   1      32.769  18.857 -23.749  0.00  0.00     0.032 C 
ATOM     18  C   UNL d   1      31.951  18.828 -23.674  0.00  0.00     0.007 C 
BRANCH  17  19
ATOM     19  C   UNL d   1      33.125  18.770 -24.487  0.00  0.00     0.007 C 
ATOM     20  C   UNL d   1      32.815  18.233 -25.036  0.00  0.00     0.001 C 
ENDBRANCH  17  19
ENDBRANCH  16  17
ENDBRANCH   3  16
TORSDOF 3
ENDMDL
MODEL 4
REMARK VINA RESULT:      -1.7      3.276      4.644
REMARK  3 active torsions:
REMARK  status: ('A' for Active; 'I' for Inactive)
REMARK    1  A    between atoms: S_10  and  C_3 
REMARK    2  A    between atoms: C_14  and  S_10 
REMARK    3  A    between atoms: C_16  and  C_14 
ROOT
ATOM      1  C   UNL d   1      33.239  20.248 -23.765  0.00  0.00     0.155 A 
ATOM      2  C   UNL d   1      33.239  19.932 -23.001  0.00  0.00     0.107 A 
ATOM      3  C   UNL d   1      33.239  21.251 -22.463  0.00  0.00     0.182 A 
ATOM      4  N   UNL d   1      33.240  21.566 -23.218  0.00  0.00    -0.250 N 
ATOM      5  N   UNL d   1      33.238  20.439 -22.345  0.00  0.00    -0.220 NA
ATOM      6  C   UNL d   1      33.240  21.059 -23.875  0.00  0.00     0.285 A 
ATOM      7  N   UNL d   1      33.240  19.622 -24.300  0.00  0.00    -0.239 NA
ATOM      8  C   UNL d   1      33.238  19.113 -23.058  0.00  0.00     0.037 A 
ATOM      9  C   UNL d   1      33.239  18.917 -23.867  0.00  0.00     0.083 A 
ATOM     10  O   UNL d   1      33.241  21.384 -24.638  0.00  0.00    -0.265 OA
ATOM     11  C   UNL d   1      33.240  22.388 -23.327  0.00  0.00     0.104 C 
ATOM     12  C   UNL d   1      33.237  18.517 -22.493  0.00  0.00     0.003 A 
ATOM     13  C   UNL d   1      33.239  18.124 -24.101  0.00  0.00     0.019 A 
ATOM     14  C   UNL d   1      33.237  17.725 -22.727  0.00  0.00     0.000 A 
ATOM     15  C   UNL d   1      33.238  17.532 -23.527  0.00  0.00     0.002 A 
ENDROOT
BRANCH   3  16
ATOM     16  S   UNL d   1      33.238  21.758 -21.812  0.00  0.00    -0.050 SA
BRANCH  16  17
ATOM     17  C   UNL d   1      32.862  21.536 -21.113  0.00  0.00     0.032 C 
ATOM     18  C   UNL d   1      33.212  20.985 -20.614  0.00  0.00     0.007 C 
BRANCH  17  19
ATOM     19  C   UNL d   1      32.134  21.871 -20.921  0.00  0.00     0.007 C 
ATOM     20  C   UNL d   1      31.841  21.812 -20.149  0.00  0.00     0.001 C 
ENDBRANCH  17  19
ENDBRANCH  16  17
ENDBRANCH   3  16
TORSDOF 3
ENDMDL
MODEL 5
REMARK VINA RESULT:      -1.5      2.557      3.641
REMARK  3 active torsions:
REMARK  status: ('A' for Active; 'I' for Inactive)
REMARK    1  A    between atoms: S_10  and  C_3 
REMARK    2  A    between atoms: C_14  and  S_10 
REMARK    3  A    between atoms: C_16  and  C_14 
ROOT
ATOM      1  C   UNL d   1      32.951  18.945 -24.142  0.00  0.00     0.155 A 
ATOM      2  C   UNL d   1      32.950  18.666 -23.364  0.00  0.00     0.107 A 
ATOM      3  C   UNL d   1      33.128  19.999 -22.894  0.00  0.00     0.182 A 
ATOM      4  N   UNL d   1      33.129  20.277 -23.664  0.00  0.00    -0.250 N 
ATOM      5  N   UNL d   1      33.040  19.199 -22.735  0.00  0.00    -0.220 NA
ATOM      6  C   UNL d   1      33.040  19.745 -24.293  0.00  0.00     0.285 A 
ATOM      7  N   UNL d   1      32.853  18.300 -24.645  0.00  0.00    -0.239 NA
ATOM      8  C   UNL d   1      32.853  17.851 -23.379  0.00  0.00     0.037 A 
ATOM      9  C   UNL d   1      32.792  17.620 -24.177  0.00  0.00     0.083 A 
ATOM     10  O   UNL d   1      33.041  20.032 -25.071  0.00  0.00    -0.265 OA
ATOM     11  C   UNL d   1      33.219  21.087 -23.814  0.00  0.00     0.104 C 
ATOM     12  C   UNL d   1      32.810  17.286 -22.785  0.00  0.00     0.003 A 
ATOM     13  C   UNL d   1      32.689  16.823 -24.370  0.00  0.00     0.019 A 
ATOM     14  C   UNL d   1      32.708  16.489 -22.979  0.00  0.00     0.000 A 
ATOM     15  C   UNL d   1      32.648  16.261 -23.767  0.00  0.00     0.002 A 
ENDROOT
BRANCH   3  16
ATOM     16  S   UNL d   1      33.217  20.532 -22.271  0.00  0.00    -0.050 SA
BRANCH  16  17
ATOM     17  C   UNL d   1      32.863  20.380 -21.541  0.00  0.00     0.032 C 
ATOM     18  C   UNL d   1      33.181  19.812 -21.040  0.00  0.00     0.007 C 
BRANCH  17  19
ATOM     19  C   UNL d   1      32.191  20.803 -21.323  0.00  0.00     0.007 C 
ATOM     20  C   UNL d   1      32.234  21.369 -20.720  0.00  0.00     0.001 C 
ENDBRANCH  17  19
ENDBRANCH  16  17
ENDBRANCH   3  16
TORSDOF 3
ENDMDL
MODEL 6
REMARK VINA RESULT:      -1.3      3.473      5.534
REMARK  3 active torsions:
REMARK  status: ('A' for Active; 'I' for Inactive)
REMARK    1  A    between atoms: S_10  and  C_3 
REMARK    2  A    between atoms: C_14  and  S_10 
REMARK    3  A    between atoms: C_16  and  C_14 
ROOT
ATOM      1  C   UNL d   1      33.187  21.972 -22.895  0.00  0.00     0.155 A 
ATOM      2  C   UNL d   1      33.197  21.339 -22.364  0.00  0.00     0.107 A 
ATOM      3  C   UNL d   1      33.223  20.430 -23.460  0.00  0.00     0.182 A 
ATOM      4  N   UNL d   1      33.212  21.055 -23.988  0.00  0.00    -0.250 N 
ATOM      5  N   UNL d   1      33.215  20.561 -22.650  0.00  0.00    -0.220 NA
ATOM      6  C   UNL d   1      33.194  21.833 -23.702  0.00  0.00     0.285 A 
ATOM      7  N   UNL d   1      33.169  22.671 -22.459  0.00  0.00    -0.239 NA
ATOM      8  C   UNL d   1      33.187  21.639 -21.600  0.00  0.00     0.037 A 
ATOM      9  C   UNL d   1      33.169  22.470 -21.656  0.00  0.00     0.083 A 
ATOM     10  O   UNL d   1      33.184  22.464 -24.241  0.00  0.00    -0.265 OA
ATOM     11  C   UNL d   1      33.220  20.912 -24.804  0.00  0.00     0.104 C 
ATOM     12  C   UNL d   1      33.190  21.279 -20.862  0.00  0.00     0.003 A 
ATOM     13  C   UNL d   1      33.156  22.931 -20.970  0.00  0.00     0.019 A 
ATOM     14  C   UNL d   1      33.177  21.741 -20.177  0.00  0.00     0.000 A 
ATOM     15  C   UNL d   1      33.160  22.561 -20.233  0.00  0.00     0.002 A 
ENDROOT
BRANCH   3  16
ATOM     16  S   UNL d   1      33.241  19.657 -23.748  0.00  0.00    -0.050 SA
BRANCH  16  17
ATOM     17  C   UNL d   1      32.802  19.065 -23.378  0.00  0.00     0.032 C 
ATOM     18  C   UNL d   1      33.033  18.781 -22.642  0.00  0.00     0.007 C 
BRANCH  17  19
ATOM     19  C   UNL d   1      32.133  18.764 -23.751  0.00  0.00     0.007 C 
ATOM     20  C   UNL d   1      31.960  17.955 -23.705  0.00  0.00     0.001 C 
ENDBRANCH  17  19
ENDBRANCH  16  17
ENDBRANCH   3  16
TORSDOF 3
ENDMDL
MODEL 7
REMARK VINA RESULT:      -0.9      1.148      3.257
REMARK  3 active torsions:
REMARK  status: ('A' for Active; 'I' for Inactive)
REMARK    1  A    between atoms: S_10  and  C_3 
REMARK    2  A    between atoms: C_14  and  S_10 
REMARK    3  A    between atoms: C_16  and  C_14 
ROOT
ATOM      1  C   UNL d   1      32.517  17.142 -23.479  0.00  0.00     0.155 A 
ATOM      2  C   UNL d   1      32.003  17.747 -23.709  0.00  0.00     0.107 A 
ATOM      3  C   UNL d   1      31.302  16.826 -24.540  0.00  0.00     0.182 A 
ATOM      4  N   UNL d   1      31.810  16.226 -24.314  0.00  0.00    -0.250 N 
ATOM      5  N   UNL d   1      31.391  17.587 -24.244  0.00  0.00    -0.220 NA
ATOM      6  C   UNL d   1      32.423  16.385 -23.779  0.00  0.00     0.285 A 
ATOM      7  N   UNL d   1      33.064  17.457 -22.950  0.00  0.00    -0.239 NA
ATOM      8  C   UNL d   1      32.227  18.438 -23.326  0.00  0.00     0.037 A 
ATOM      9  C   UNL d   1      32.888  18.260 -22.852  0.00  0.00     0.083 A 
ATOM     10  O   UNL d   1      32.934  15.773 -23.553  0.00  0.00    -0.265 OA
ATOM     11  C   UNL d   1      31.712  15.461 -24.618  0.00  0.00     0.104 C 
ATOM     12  C   UNL d   1      31.926  19.202 -23.339  0.00  0.00     0.003 A 
ATOM     13  C   UNL d   1      33.241  18.852 -22.396  0.00  0.00     0.019 A 
ATOM     14  C   UNL d   1      32.279  19.793 -22.882  0.00  0.00     0.000 A 
ATOM     15  C   UNL d   1      32.932  19.617 -22.415  0.00  0.00     0.002 A 
ENDROOT
BRANCH   3  16
ATOM     16  S   UNL d   1      30.694  16.664 -25.073  0.00  0.00    -0.050 SA
BRANCH  16  17
ATOM     17  C   UNL d   1      29.914  16.856 -24.884  0.00  0.00     0.032 C 
ATOM     18  C   UNL d   1      29.440  16.311 -24.492  0.00  0.00     0.007 C 
BRANCH  17  19
ATOM     19  C   UNL d   1      29.618  17.596 -25.092  0.00  0.00     0.007 C 
ATOM     20  C   UNL d   1      28.825  17.782 -24.941  0.00  0.00     0.001 C 
ENDBRANCH  17  19
ENDBRANCH  16  17
ENDBRANCH   3  16
TORSDOF 3
ENDMDL
MODEL 8
REMARK VINA RESULT:      -0.2      4.058      5.832
REMARK  3 active torsions:
REMARK  status: ('A' for Active; 'I' for Inactive)
REMARK    1  A    between atoms: S_10  and  C_3 
REMARK    2  A    between atoms: C_14  and  S_10 
REMARK    3  A    between atoms: C_16  and  C_14 
ROOT
ATOM      1  C   UNL d   1      33.017  21.150 -21.413  0.00  0.00     0.155 A 
ATOM      2  C   UNL d   1      33.049  21.930 -21.684  0.00  0.00     0.107 A 
ATOM      3  C   UNL d   1      33.166  21.455 -23.021  0.00  0.00     0.182 A 
ATOM      4  N   UNL d   1      33.134  20.682 -22.756  0.00  0.00    -0.250 N 
ATOM      5  N   UNL d   1      33.124  22.083 -22.495  0.00  0.00    -0.220 NA
ATOM      6  C   UNL d   1      33.060  20.528 -21.945  0.00  0.00     0.285 A 
ATOM      7  N   UNL d   1      32.943  21.165 -20.593  0.00  0.00    -0.239 NA
ATOM      8  C   UNL d   1      32.995  22.432 -21.036  0.00  0.00     0.037 A 
ATOM      9  C   UNL d   1      32.929  21.958 -20.354  0.00  0.00     0.083 A 
ATOM     10  O   UNL d   1      33.028  19.742 -21.682  0.00  0.00    -0.265 OA
ATOM     11  C   UNL d   1      33.178  20.054 -23.296  0.00  0.00     0.104 C 
ATOM     12  C   UNL d   1      32.996  23.250 -20.966  0.00  0.00     0.003 A 
ATOM     13  C   UNL d   1      32.864  22.310 -19.610  0.00  0.00     0.019 A 
ATOM     14  C   UNL d   1      32.932  23.602 -20.221  0.00  0.00     0.000 A 
ATOM     15  C   UNL d   1      32.866  23.133 -19.549  0.00  0.00     0.002 A 
ENDROOT
BRANCH   3  16
ATOM     16  S   UNL d   1      33.240  21.604 -23.829  0.00  0.00    -0.050 SA
BRANCH  16  17
ATOM     17  C   UNL d   1      32.811  22.215 -24.180  0.00  0.00     0.032 C 
ATOM     18  C   UNL d   1      32.023  22.101 -24.384  0.00  0.00     0.007 C 
BRANCH  17  19
ATOM     19  C   UNL d   1      33.180  22.938 -24.323  0.00  0.00     0.007 C 
ATOM     20  C   UNL d   1      33.147  23.279 -25.077  0.00  0.00     0.001 C 
ENDBRANCH  17  19
ENDBRANCH  16  17
ENDBRANCH   3  16
TORSDOF 3
ENDMDL
