MODEL 1
REMARK VINA RESULT:      70.7      0.000      0.000
REMARK  1 active torsions:
REMARK  status: ('A' for Active; 'I' for Inactive)
REMARK       I    between atoms: N_3  and  C_1 
REMARK       I    between atoms: N_5  and  C_1 
REMARK       I    between atoms: C_2  and  N_4 
REMARK    1  A    between atoms: C_6  and  C_2 
ROOT
ATOM      1  C   UNL d   1      57.683  49.339  50.977  0.00  0.00     0.340 C 
ATOM      2  C   UNL d   1      60.980  49.501  50.902  0.00  0.00     0.265 C 
ATOM      3  N   UNL d   1      58.496  49.478  50.986  0.00  0.00    -0.254 N 
ATOM      4  N   UNL d   1      60.139  49.470  50.932  0.00  0.00    -0.269 N 
ATOM      5  N   UNL d   1      57.248  49.456  50.286  0.00  0.00    -0.253 N 
ATOM      6  O   UNL d   1      57.305  49.081  51.669  0.00  0.00    -0.245 OA
ATOM      7  C   UNL d   1      58.937  49.333  51.670  0.00  0.00     0.104 A 
ATOM      8  C   UNL d   1      58.892  49.639  50.272  0.00  0.00     0.104 A 
ATOM      9  C   UNL d   1      59.776  49.319  51.645  0.00  0.00     0.102 A 
ATOM     10  C   UNL d   1      59.716  49.641  50.242  0.00  0.00     0.102 A 
ATOM     11  O   UNL d   1      61.368  49.662  50.188  0.00  0.00    -0.267 OA
ATOM     12  O   UNL d   1      56.426  49.409  48.834  0.00  0.00    -0.300 OA
ATOM     13  C   UNL d   1      57.679  49.435  49.525  0.00  0.00     0.111 C 
ATOM     14  C   UNL d   1      56.487  49.038  50.209  0.00  0.00     0.111 C 
ATOM     15  C   UNL d   1      56.051  49.153  49.521  0.00  0.00     0.142 C 
ATOM     16  C   UNL d   1      57.240  49.551  48.833  0.00  0.00     0.142 C 
ENDROOT
BRANCH   2  17
ATOM     17  C   UNL d   1      61.421  49.350  51.584  0.00  0.00     0.057 C 
ATOM     18  C   UNL d   1      61.118  49.600  52.322  0.00  0.00     0.011 C 
ATOM     19  C   UNL d   1      61.570  49.484  53.012  0.00  0.00     0.035 C 
ATOM     20 BR   UNL d   1      61.215  49.589  53.757  0.00  0.00    -0.049 Br
ATOM     21  C   UNL d   1      62.364  49.266  52.953  0.00  0.00     0.007 C 
ATOM     22  C   UNL d   1      62.710  49.164  52.205  0.00  0.00     0.001 C 
ATOM     23  C   UNL d   1      62.260  49.279  51.520  0.00  0.00     0.005 C 
ENDBRANCH   2  17
TORSDOF 1
ENDMDL
