MODEL 1
REMARK VINA RESULT:      36.0      0.000      0.000
REMARK  4 active torsions:
REMARK  status: ('A' for Active; 'I' for Inactive)
REMARK    1  A    between atoms: N_9  and  C_3 
REMARK    2  A    between atoms: C_11  and  C_4 
REMARK    3  A    between atoms: C_15  and  C_10 
REMARK    4  A    between atoms: C_20  and  C_15 
ROOT
ATOM      1  N   UNL d   1      14.276  14.218  -2.382  0.00  0.00    -0.196 N 
ATOM      2  C   UNL d   1      13.977  13.573  -2.825  0.00  0.00     0.167 A 
ATOM      3  C   UNL d   1      14.570  14.075  -1.645  0.00  0.00     0.153 A 
ATOM      4  C   UNL d   1      13.678  13.693  -3.566  0.00  0.00     0.057 A 
ATOM      5  N   UNL d   1      13.959  15.083  -3.453  0.00  0.00    -0.161 NA
ATOM      6  N   UNL d   1      13.989  12.821  -2.505  0.00  0.00    -0.227 NA
ATOM      7  C   UNL d   1      14.587  13.325  -1.315  0.00  0.00     0.057 A 
ATOM      8  C   UNL d   1      13.665  14.447  -3.889  0.00  0.00     0.124 A 
ATOM      9  C   UNL d   1      14.293  12.690  -1.751  0.00  0.00     0.086 A 
ENDROOT
BRANCH   3  10
ATOM     10  N   UNL d   1      14.875  14.731  -1.195  0.00  0.00    -0.285 N 
ATOM     11  C   UNL d   1      14.732  15.534  -1.453  0.00  0.00     0.108 A 
ATOM     12  C   UNL d   1      15.036  16.178  -1.002  0.00  0.00     0.142 A 
ATOM     13  O   UNL d   1      15.486  16.036  -0.290  0.00  0.00    -0.300 OA
ATOM     14  C   UNL d   1      15.620  15.234  -0.045  0.00  0.00     0.142 A 
ATOM     15  C   UNL d   1      15.319  14.586  -0.490  0.00  0.00     0.108 A 
ENDBRANCH   3  10
BRANCH   9  16
ATOM     16  C   UNL d   1      14.303  11.903  -1.421  0.00  0.00     0.019 C 
BRANCH  16  17
ATOM     17  C   UNL d   1      14.182  11.782  -0.591  0.00  0.00     0.002 C 
ATOM     18  C   UNL d   1      13.406  11.835  -0.248  0.00  0.00     0.000 C 
ENDBRANCH  16  17
ENDBRANCH   9  16
BRANCH   4  19
ATOM     19  C   UNL d   1      13.385  13.046  -3.994  0.00  0.00     0.004 A 
ATOM     20  C   UNL d   1      13.436  13.063  -4.811  0.00  0.00     0.000 A 
ATOM     21  C   UNL d   1      13.148  12.425  -5.248  0.00  0.00     0.000 A 
ATOM     22  C   UNL d   1      12.814  11.784  -4.859  0.00  0.00     0.000 A 
ATOM     23  C   UNL d   1      12.769  11.779  -4.056  0.00  0.00     0.000 A 
ATOM     24  C   UNL d   1      13.057  12.417  -3.619  0.00  0.00     0.000 A 
ENDBRANCH   4  19
TORSDOF 4
ENDMDL
