MODEL 1
REMARK VINA RESULT:       1.1      0.000      0.000
REMARK  5 active torsions:
REMARK  status: ('A' for Active; 'I' for Inactive)
REMARK    1  A    between atoms: C_7  and  C_2 
REMARK    2  A    between atoms: C_9  and  C_4 
REMARK    3  A    between atoms: C_16  and  C_7 
REMARK    4  A    between atoms: N_8  and  C_9 
REMARK    5  A    between atoms: C_23  and  C_14 
ROOT
ATOM      1  C   UNL d   1     -42.622-122.762 -50.540  0.00  0.00     0.108 A 
ATOM      2  C   UNL d   1     -41.772-122.474 -51.540  0.00  0.00     0.139 A 
ATOM      3  O   UNL d   1     -41.922-123.006 -50.914  0.00  0.00    -0.304 OA
ATOM      4  C   UNL d   1     -43.032-123.066 -49.904  0.00  0.00     0.079 A 
ATOM      5  C   UNL d   1     -42.902-122.088 -50.930  0.00  0.00     0.064 A 
ATOM      6  C   UNL d   1     -42.375-121.913 -51.546  0.00  0.00     0.220 A 
ATOM      7  C   UNL d   1     -43.596-121.722 -50.676  0.00  0.00     0.009 A 
ATOM      8  C   UNL d   1     -43.724-122.700 -49.653  0.00  0.00     0.199 A 
ATOM      9  O   UNL d   1     -42.446-121.280 -52.075  0.00  0.00    -0.284 OA
ATOM     10  C   UNL d   1     -44.004-122.030 -50.037  0.00  0.00     0.042 A 
ATOM     11  O   UNL d   1     -44.138-123.008 -49.010  0.00  0.00    -0.286 OA
ENDROOT
BRANCH   2  12
ATOM     12  C   UNL d   1     -41.129-122.509 -52.060  0.00  0.00     0.028 C 
BRANCH  12  13
ATOM     13  C   UNL d   1     -41.257-122.571 -52.873  0.00  0.00     0.002 A 
ATOM     14  C   UNL d   1     -41.207-121.900 -53.352  0.00  0.00     0.000 A 
ATOM     15  C   UNL d   1     -41.335-121.962 -54.165  0.00  0.00     0.000 A 
ATOM     16  C   UNL d   1     -41.514-122.697 -54.497  0.00  0.00     0.000 A 
ATOM     17  C   UNL d   1     -41.564-123.367 -54.018  0.00  0.00     0.000 A 
ATOM     18  C   UNL d   1     -41.436-123.305 -53.205  0.00  0.00     0.000 A 
BRANCH  16  19
ATOM     19  C   UNL d   1     -41.642-122.759 -55.310  0.00  0.00     0.000 C 
ATOM     20  C   UNL d   1     -41.429-123.448 -55.712  0.00  0.00     0.000 C 
ATOM     21  C   UNL d   1     -41.985-122.128 -55.724  0.00  0.00     0.000 C 
ENDBRANCH  16  19
ENDBRANCH  12  13
ENDBRANCH   2  12
BRANCH   4  22
ATOM     22  C   UNL d   1     -42.762-123.733 -49.514  0.00  0.00     0.086 C 
BRANCH  22  23
ATOM     23  N   UNL d   1     -42.353-123.753 -48.801  0.00  0.00    -0.300 N 
ATOM     24  C   UNL d   1     -41.536-123.796 -48.799  0.00  0.00     0.100 A 
ATOM     25  C   UNL d   1     -41.123-123.816 -48.094  0.00  0.00     0.100 A 
ATOM     26  N   UNL d   1     -41.539-123.793 -47.388  0.00  0.00    -0.299 N 
ATOM     27  C   UNL d   1     -42.357-123.749 -47.390  0.00  0.00     0.100 A 
ATOM     28  C   UNL d   1     -41.135-123.812 -46.676  0.00  0.00     0.100 C 
ATOM     29  C   UNL d   1     -42.757-123.730 -48.102  0.00  0.00     0.100 A 
ENDBRANCH  22  23
ENDBRANCH   4  22
TORSDOF 5
ENDMDL
MODEL 2
REMARK VINA RESULT:       2.9      1.818      5.454
REMARK  5 active torsions:
REMARK  status: ('A' for Active; 'I' for Inactive)
REMARK    1  A    between atoms: C_7  and  C_2 
REMARK    2  A    between atoms: C_9  and  C_4 
REMARK    3  A    between atoms: C_16  and  C_7 
REMARK    4  A    between atoms: N_8  and  C_9 
REMARK    5  A    between atoms: C_23  and  C_14 
ROOT
ATOM      1  C   UNL d   1     -41.677-122.274 -51.846  0.00  0.00     0.108 A 
ATOM      2  C   UNL d   1     -42.016-123.119 -50.858  0.00  0.00     0.139 A 
ATOM      3  O   UNL d   1     -41.699-123.075 -51.628  0.00  0.00    -0.304 OA
ATOM      4  C   UNL d   1     -41.425-121.903 -52.527  0.00  0.00     0.079 A 
ATOM      5  C   UNL d   1     -41.977-121.828 -51.217  0.00  0.00     0.064 A 
ATOM      6  C   UNL d   1     -42.185-122.352 -50.609  0.00  0.00     0.220 A 
ATOM      7  C   UNL d   1     -42.022-121.007 -51.278  0.00  0.00     0.009 A 
ATOM      8  C   UNL d   1     -41.471-121.084 -52.585  0.00  0.00     0.199 A 
ATOM      9  O   UNL d   1     -42.509-122.137 -49.878  0.00  0.00    -0.284 OA
ATOM     10  C   UNL d   1     -41.769-120.638 -51.962  0.00  0.00     0.042 A 
ATOM     11  O   UNL d   1     -41.216-120.710 -53.274  0.00  0.00    -0.286 OA
ENDROOT
BRANCH   2  12
ATOM     12  C   UNL d   1     -42.137-123.813 -50.424  0.00  0.00     0.028 C 
BRANCH  12  13
ATOM     13  C   UNL d   1     -42.089-123.799 -49.600  0.00  0.00     0.002 A 
ATOM     14  C   UNL d   1     -42.778-123.803 -49.145  0.00  0.00     0.000 A 
ATOM     15  C   UNL d   1     -42.730-123.790 -48.321  0.00  0.00     0.000 A 
ATOM     16  C   UNL d   1     -41.991-123.772 -47.953  0.00  0.00     0.000 A 
ATOM     17  C   UNL d   1     -41.302-123.769 -48.409  0.00  0.00     0.000 A 
ATOM     18  C   UNL d   1     -41.350-123.782 -49.233  0.00  0.00     0.000 A 
BRANCH  16  19
ATOM     19  C   UNL d   1     -41.943-123.759 -47.130  0.00  0.00     0.000 C 
ATOM     20  C   UNL d   1     -41.208-123.812 -46.757  0.00  0.00     0.000 C 
ATOM     21  C   UNL d   1     -42.634-123.692 -46.676  0.00  0.00     0.000 C 
ENDBRANCH  16  19
ENDBRANCH  12  13
ENDBRANCH   2  12
BRANCH   4  22
ATOM     22  C   UNL d   1     -41.127-122.337 -53.153  0.00  0.00     0.086 C 
BRANCH  22  23
ATOM     23  N   UNL d   1     -41.526-122.545 -53.841  0.00  0.00    -0.300 N 
ATOM     24  C   UNL d   1     -41.568-123.331 -54.068  0.00  0.00     0.100 A 
ATOM     25  C   UNL d   1     -41.964-123.545 -54.751  0.00  0.00     0.100 A 
ATOM     26  N   UNL d   1     -42.317-122.961 -55.205  0.00  0.00    -0.299 N 
ATOM     27  C   UNL d   1     -42.275-122.175 -54.978  0.00  0.00     0.100 A 
ATOM     28  C   UNL d   1     -42.716-123.164 -55.891  0.00  0.00     0.100 C 
ATOM     29  C   UNL d   1     -41.877-121.975 -54.293  0.00  0.00     0.100 A 
ENDBRANCH  22  23
ENDBRANCH   4  22
TORSDOF 5
ENDMDL
