MODEL 1
REMARK VINA RESULT:      -9.1      0.000      0.000
REMARK  5 active torsions:
REMARK  status: ('A' for Active; 'I' for Inactive)
REMARK    1  A    between atoms: C_2  and  C_1 
REMARK    2  A    between atoms: C_5  and  C_2 
REMARK    3  A    between atoms: C_11  and  C_5 
REMARK    4  A    between atoms: C_10  and  C_12 
REMARK    5  A    between atoms: O_19  and  C_10 
ROOT
ATOM      1  C   UNL d   1      53.200  33.340  53.665  0.00  0.00     0.131 C 
ATOM      2  C   UNL d   1      53.449  33.672  54.389  0.00  0.00     0.106 C 
ATOM      3  N   UNL d   1      53.693  33.981  55.076  0.00  0.00    -0.191 NA
ENDROOT
BRANCH   1   4
ATOM      4  C   UNL d   1      52.510  33.594  53.324  0.00  0.00     0.123 A 
ATOM      5  N   UNL d   1      51.767  33.547  53.677  0.00  0.00    -0.238 NA
ATOM      6  C   UNL d   1      51.212  33.872  53.131  0.00  0.00     0.088 A 
ATOM      7  C   UNL d   1      50.419  33.972  53.172  0.00  0.00     0.020 A 
ATOM      8  C   UNL d   1      51.630  34.109  52.460  0.00  0.00     0.049 A 
ATOM      9  C   UNL d   1      50.024  34.308  52.546  0.00  0.00     0.002 A 
ATOM     10  C   UNL d   1      50.453  34.552  51.857  0.00  0.00     0.001 A 
ATOM     11  C   UNL d   1      51.258  34.447  51.823  0.00  0.00     0.008 A 
ATOM     12  S   UNL d   1      52.444  33.931  52.590  0.00  0.00    -0.066 SA
ENDBRANCH   1   4
BRANCH   1  13
ATOM     13  C   UNL d   1      53.652  32.760  53.298  0.00  0.00     0.207 C 
ATOM     14  O   UNL d   1      54.226  32.973  52.739  0.00  0.00    -0.286 OA
BRANCH  13  15
ATOM     15  C   UNL d   1      53.532  31.936  53.491  0.00  0.00     0.040 A 
ATOM     16  C   UNL d   1      53.757  31.656  54.226  0.00  0.00     0.003 A 
ATOM     17  C   UNL d   1      53.641  30.860  54.413  0.00  0.00     0.005 A 
ATOM     18  C   UNL d   1      53.301  30.360  53.861  0.00  0.00     0.063 A 
ATOM     19  C   UNL d   1      53.073  30.639  53.119  0.00  0.00     0.005 A 
ATOM     20  C   UNL d   1      53.190  31.435  52.932  0.00  0.00     0.003 A 
BRANCH  18  21
ATOM     21  C   UNL d   1      53.181  29.537  54.054  0.00  0.00     0.296 C 
ATOM     22  O   UNL d   1      52.756  29.050  53.536  0.00  0.00    -0.259 OA
BRANCH  21  23
ATOM     23  O   UNL d   1      53.486  29.228  54.752  0.00  0.00    -0.296 OA
ATOM     24  C   UNL d   1      53.482  28.413  54.882  0.00  0.00     0.185 C 
ENDBRANCH  21  23
ENDBRANCH  18  21
ENDBRANCH  13  15
ENDBRANCH   1  13
TORSDOF 5
ENDMDL
MODEL 2
REMARK VINA RESULT:      -8.3      1.790      4.377
REMARK  5 active torsions:
REMARK  status: ('A' for Active; 'I' for Inactive)
REMARK    1  A    between atoms: C_2  and  C_1 
REMARK    2  A    between atoms: C_5  and  C_2 
REMARK    3  A    between atoms: C_11  and  C_5 
REMARK    4  A    between atoms: C_10  and  C_12 
REMARK    5  A    between atoms: O_19  and  C_10 
ROOT
ATOM      1  C   UNL d   1      53.567  32.689  53.711  0.00  0.00     0.131 C 
ATOM      2  C   UNL d   1      54.236  33.017  53.334  0.00  0.00     0.106 C 
ATOM      3  N   UNL d   1      54.866  33.336  52.979  0.00  0.00    -0.191 NA
ENDROOT
BRANCH   1   4
ATOM      4  C   UNL d   1      53.459  31.886  53.709  0.00  0.00     0.123 A 
ATOM      5  N   UNL d   1      53.231  31.443  53.053  0.00  0.00    -0.238 NA
ATOM      6  C   UNL d   1      53.188  30.638  53.300  0.00  0.00     0.088 A 
ATOM      7  C   UNL d   1      52.997  29.968  52.905  0.00  0.00     0.020 A 
ATOM      8  C   UNL d   1      53.391  30.609  54.099  0.00  0.00     0.049 A 
ATOM      9  C   UNL d   1      53.003  29.256  53.297  0.00  0.00     0.002 A 
ATOM     10  C   UNL d   1      53.212  29.226  54.117  0.00  0.00     0.001 A 
ATOM     11  C   UNL d   1      53.404  29.910  54.511  0.00  0.00     0.008 A 
ATOM     12  S   UNL d   1      53.560  31.397  54.349  0.00  0.00    -0.066 SA
ENDBRANCH   1   4
BRANCH   1  13
ATOM     13  C   UNL d   1      53.019  33.177  54.082  0.00  0.00     0.207 C 
ATOM     14  O   UNL d   1      53.109  33.366  54.885  0.00  0.00    -0.286 OA
BRANCH  13  15
ATOM     15  C   UNL d   1      52.358  33.492  53.643  0.00  0.00     0.040 A 
ATOM     16  C   UNL d   1      51.609  33.187  53.765  0.00  0.00     0.003 A 
ATOM     17  C   UNL d   1      50.969  33.491  53.340  0.00  0.00     0.005 A 
ATOM     18  C   UNL d   1      51.091  34.095  52.802  0.00  0.00     0.063 A 
ATOM     19  C   UNL d   1      51.845  34.405  52.676  0.00  0.00     0.005 A 
ATOM     20  C   UNL d   1      52.485  34.101  53.101  0.00  0.00     0.003 A 
BRANCH  18  21
ATOM     21  C   UNL d   1      50.430  34.409  52.362  0.00  0.00     0.296 C 
ATOM     22  O   UNL d   1      50.410  34.334  51.537  0.00  0.00    -0.259 OA
BRANCH  21  23
ATOM     23  O   UNL d   1      49.815  34.786  52.757  0.00  0.00    -0.296 OA
ATOM     24  C   UNL d   1      49.129  34.998  52.348  0.00  0.00     0.185 C 
ENDBRANCH  21  23
ENDBRANCH  18  21
ENDBRANCH  13  15
ENDBRANCH   1  13
TORSDOF 5
ENDMDL
MODEL 3
REMARK VINA RESULT:      -7.9      2.408      4.886
REMARK  5 active torsions:
REMARK  status: ('A' for Active; 'I' for Inactive)
REMARK    1  A    between atoms: C_2  and  C_1 
REMARK    2  A    between atoms: C_5  and  C_2 
REMARK    3  A    between atoms: C_11  and  C_5 
REMARK    4  A    between atoms: C_10  and  C_12 
REMARK    5  A    between atoms: O_19  and  C_10 
ROOT
ATOM      1  C   UNL d   1      51.849  33.218  53.071  0.00  0.00     0.131 C 
ATOM      2  C   UNL d   1      51.354  32.556  53.187  0.00  0.00     0.106 C 
ATOM      3  N   UNL d   1      50.879  31.932  53.291  0.00  0.00    -0.191 NA
ENDROOT
BRANCH   1   4
ATOM      4  C   UNL d   1      52.531  33.289  53.503  0.00  0.00     0.123 A 
ATOM      5  N   UNL d   1      52.605  33.727  54.197  0.00  0.00    -0.238 NA
ATOM      6  C   UNL d   1      53.403  33.647  54.458  0.00  0.00     0.088 A 
ATOM      7  C   UNL d   1      53.791  33.945  55.091  0.00  0.00     0.020 A 
ATOM      8  C   UNL d   1      53.796  33.162  53.917  0.00  0.00     0.049 A 
ATOM      9  C   UNL d   1      54.576  33.768  55.201  0.00  0.00     0.002 A 
ATOM     10  C   UNL d   1      54.979  33.271  54.646  0.00  0.00     0.001 A 
ATOM     11  C   UNL d   1      54.579  32.971  54.006  0.00  0.00     0.008 A 
ATOM     12  S   UNL d   1      53.241  32.942  53.321  0.00  0.00    -0.066 SA
ENDBRANCH   1   4
BRANCH   1  13
ATOM     13  C   UNL d   1      51.647  33.795  52.522  0.00  0.00     0.207 C 
ATOM     14  O   UNL d   1      52.177  33.995  51.916  0.00  0.00    -0.286 OA
BRANCH  13  15
ATOM     15  C   UNL d   1      50.892  34.191  52.573  0.00  0.00     0.040 A 
ATOM     16  C   UNL d   1      50.692  34.595  53.256  0.00  0.00     0.003 A 
ATOM     17  C   UNL d   1      49.961  34.977  53.305  0.00  0.00     0.005 A 
ATOM     18  C   UNL d   1      49.445  34.947  52.672  0.00  0.00     0.063 A 
ATOM     19  C   UNL d   1      49.643  34.540  51.982  0.00  0.00     0.005 A 
ATOM     20  C   UNL d   1      50.373  34.158  51.932  0.00  0.00     0.003 A 
BRANCH  18  21
ATOM     21  C   UNL d   1      48.689  35.342  52.723  0.00  0.00     0.296 C 
ATOM     22  O   UNL d   1      48.151  35.286  52.095  0.00  0.00    -0.259 OA
BRANCH  21  23
ATOM     23  O   UNL d   1      48.496  35.777  53.393  0.00  0.00    -0.296 OA
ATOM     24  C   UNL d   1      47.788  36.201  53.422  0.00  0.00     0.185 C 
ENDBRANCH  21  23
ENDBRANCH  18  21
ENDBRANCH  13  15
ENDBRANCH   1  13
TORSDOF 5
ENDMDL
MODEL 4
REMARK VINA RESULT:      -7.8      1.124      2.134
REMARK  5 active torsions:
REMARK  status: ('A' for Active; 'I' for Inactive)
REMARK    1  A    between atoms: C_2  and  C_1 
REMARK    2  A    between atoms: C_5  and  C_2 
REMARK    3  A    between atoms: C_11  and  C_5 
REMARK    4  A    between atoms: C_10  and  C_12 
REMARK    5  A    between atoms: O_19  and  C_10 
ROOT
ATOM      1  C   UNL d   1      52.136  32.982  53.196  0.00  0.00     0.131 C 
ATOM      2  C   UNL d   1      51.310  32.857  53.183  0.00  0.00     0.106 C 
ATOM      3  N   UNL d   1      50.529  32.731  53.165  0.00  0.00    -0.191 NA
ENDROOT
BRANCH   1   4
ATOM      4  C   UNL d   1      52.439  33.614  53.601  0.00  0.00     0.123 A 
ATOM      5  N   UNL d   1      52.714  33.588  54.377  0.00  0.00    -0.238 NA
ATOM      6  C   UNL d   1      52.977  34.365  54.574  0.00  0.00     0.088 A 
ATOM      7  C   UNL d   1      53.295  34.667  55.244  0.00  0.00     0.020 A 
ATOM      8  C   UNL d   1      52.856  34.845  53.915  0.00  0.00     0.049 A 
ATOM      9  C   UNL d   1      53.499  35.454  55.271  0.00  0.00     0.002 A 
ATOM     10  C   UNL d   1      53.374  35.947  54.594  0.00  0.00     0.001 A 
ATOM     11  C   UNL d   1      53.051  35.633  53.918  0.00  0.00     0.008 A 
ATOM     12  S   UNL d   1      52.517  34.367  53.308  0.00  0.00    -0.066 SA
ENDBRANCH   1   4
BRANCH   1  13
ATOM     13  C   UNL d   1      52.639  32.466  52.800  0.00  0.00     0.207 C 
ATOM     14  O   UNL d   1      53.038  32.717  52.118  0.00  0.00    -0.286 OA
BRANCH  13  15
ATOM     15  C   UNL d   1      52.752  31.670  53.090  0.00  0.00     0.040 A 
ATOM     16  C   UNL d   1      52.153  31.119  53.004  0.00  0.00     0.003 A 
ATOM     17  C   UNL d   1      52.262  30.350  53.284  0.00  0.00     0.005 A 
ATOM     18  C   UNL d   1      52.968  30.146  53.644  0.00  0.00     0.063 A 
ATOM     19  C   UNL d   1      53.574  30.699  53.732  0.00  0.00     0.005 A 
ATOM     20  C   UNL d   1      53.465  31.469  53.452  0.00  0.00     0.003 A 
BRANCH  18  21
ATOM     21  C   UNL d   1      53.081  29.351  53.934  0.00  0.00     0.296 C 
ATOM     22  O   UNL d   1      52.917  28.706  53.440  0.00  0.00    -0.259 OA
BRANCH  21  23
ATOM     23  O   UNL d   1      53.351  29.226  54.700  0.00  0.00    -0.296 OA
ATOM     24  C   UNL d   1      53.434  28.456  54.989  0.00  0.00     0.185 C 
ENDBRANCH  21  23
ENDBRANCH  18  21
ENDBRANCH  13  15
ENDBRANCH   1  13
TORSDOF 5
ENDMDL
MODEL 5
REMARK VINA RESULT:      -7.3      2.622      3.528
REMARK  5 active torsions:
REMARK  status: ('A' for Active; 'I' for Inactive)
REMARK    1  A    between atoms: C_2  and  C_1 
REMARK    2  A    between atoms: C_5  and  C_2 
REMARK    3  A    between atoms: C_11  and  C_5 
REMARK    4  A    between atoms: C_10  and  C_12 
REMARK    5  A    between atoms: O_19  and  C_10 
ROOT
ATOM      1  C   UNL d   1      50.745  33.893  52.724  0.00  0.00     0.131 C 
ATOM      2  C   UNL d   1      50.670  33.112  53.011  0.00  0.00     0.106 C 
ATOM      3  N   UNL d   1      50.607  32.372  53.282  0.00  0.00    -0.191 NA
ENDROOT
BRANCH   1   4
ATOM      4  C   UNL d   1      50.086  34.358  52.649  0.00  0.00     0.123 A 
ATOM      5  N   UNL d   1      49.778  34.836  53.244  0.00  0.00    -0.238 NA
ATOM      6  C   UNL d   1      49.095  35.218  52.927  0.00  0.00     0.088 A 
ATOM      7  C   UNL d   1      48.578  35.739  53.247  0.00  0.00     0.020 A 
ATOM      8  C   UNL d   1      49.005  34.964  52.148  0.00  0.00     0.049 A 
ATOM      9  C   UNL d   1      47.961  36.018  52.798  0.00  0.00     0.002 A 
ATOM     10  C   UNL d   1      47.869  35.757  51.997  0.00  0.00     0.001 A 
ATOM     11  C   UNL d   1      48.397  35.228  51.680  0.00  0.00     0.008 A 
ATOM     12  S   UNL d   1      49.632  34.424  51.980  0.00  0.00    -0.066 SA
ENDBRANCH   1   4
BRANCH   1  13
ATOM     13  C   UNL d   1      51.485  34.189  52.519  0.00  0.00     0.207 C 
ATOM     14  O   UNL d   1      51.619  34.474  51.753  0.00  0.00    -0.286 OA
BRANCH  13  15
ATOM     15  C   UNL d   1      52.116  34.203  53.095  0.00  0.00     0.040 A 
ATOM     16  C   UNL d   1      52.523  33.514  53.266  0.00  0.00     0.003 A 
ATOM     17  C   UNL d   1      53.133  33.528  53.823  0.00  0.00     0.005 A 
ATOM     18  C   UNL d   1      53.324  34.230  54.198  0.00  0.00     0.063 A 
ATOM     19  C   UNL d   1      52.915  34.926  54.028  0.00  0.00     0.005 A 
ATOM     20  C   UNL d   1      52.305  34.913  53.471  0.00  0.00     0.003 A 
BRANCH  18  21
ATOM     21  C   UNL d   1      53.955  34.244  54.773  0.00  0.00     0.296 C 
ATOM     22  O   UNL d   1      53.911  34.761  55.419  0.00  0.00    -0.259 OA
BRANCH  21  23
ATOM     23  O   UNL d   1      54.603  33.746  54.687  0.00  0.00    -0.296 OA
ATOM     24  C   UNL d   1      55.224  33.777  55.230  0.00  0.00     0.185 C 
ENDBRANCH  21  23
ENDBRANCH  18  21
ENDBRANCH  13  15
ENDBRANCH   1  13
TORSDOF 5
ENDMDL
MODEL 6
REMARK VINA RESULT:      -7.3      2.110      4.652
REMARK  5 active torsions:
REMARK  status: ('A' for Active; 'I' for Inactive)
REMARK    1  A    between atoms: C_2  and  C_1 
REMARK    2  A    between atoms: C_5  and  C_2 
REMARK    3  A    between atoms: C_11  and  C_5 
REMARK    4  A    between atoms: C_10  and  C_12 
REMARK    5  A    between atoms: O_19  and  C_10 
ROOT
ATOM      1  C   UNL d   1      53.299  31.748  53.316  0.00  0.00     0.131 C 
ATOM      2  C   UNL d   1      52.657  31.946  52.820  0.00  0.00     0.106 C 
ATOM      3  N   UNL d   1      52.053  32.142  52.349  0.00  0.00    -0.191 NA
ENDROOT
BRANCH   1   4
ATOM      4  C   UNL d   1      53.321  31.021  53.672  0.00  0.00     0.123 A 
ATOM      5  N   UNL d   1      53.175  30.884  54.471  0.00  0.00    -0.238 NA
ATOM      6  C   UNL d   1      53.256  30.054  54.600  0.00  0.00     0.088 A 
ATOM      7  C   UNL d   1      53.179  29.606  55.259  0.00  0.00     0.020 A 
ATOM      8  C   UNL d   1      53.450  29.706  53.878  0.00  0.00     0.049 A 
ATOM      9  C   UNL d   1      53.293  28.803  55.214  0.00  0.00     0.002 A 
ATOM     10  C   UNL d   1      53.492  28.446  54.472  0.00  0.00     0.001 A 
ATOM     11  C   UNL d   1      53.569  28.906  53.808  0.00  0.00     0.008 A 
ATOM     12  S   UNL d   1      53.489  30.320  53.300  0.00  0.00    -0.066 SA
ENDBRANCH   1   4
BRANCH   1  13
ATOM     13  C   UNL d   1      53.907  32.287  53.441  0.00  0.00     0.207 C 
ATOM     14  O   UNL d   1      54.679  32.106  53.200  0.00  0.00    -0.286 OA
BRANCH  13  15
ATOM     15  C   UNL d   1      53.744  33.035  53.820  0.00  0.00     0.040 A 
ATOM     16  C   UNL d   1      53.336  33.616  53.413  0.00  0.00     0.003 A 
ATOM     17  C   UNL d   1      53.179  34.339  53.779  0.00  0.00     0.005 A 
ATOM     18  C   UNL d   1      53.433  34.468  54.546  0.00  0.00     0.063 A 
ATOM     19  C   UNL d   1      53.845  33.885  54.960  0.00  0.00     0.005 A 
ATOM     20  C   UNL d   1      54.002  33.162  54.594  0.00  0.00     0.003 A 
BRANCH  18  21
ATOM     21  C   UNL d   1      53.271  35.216  54.925  0.00  0.00     0.296 C 
ATOM     22  O   UNL d   1      53.193  35.252  55.749  0.00  0.00    -0.259 OA
BRANCH  21  23
ATOM     23  O   UNL d   1      53.192  35.898  54.473  0.00  0.00    -0.296 OA
ATOM     24  C   UNL d   1      53.031  36.621  54.839  0.00  0.00     0.185 C 
ENDBRANCH  21  23
ENDBRANCH  18  21
ENDBRANCH  13  15
ENDBRANCH   1  13
TORSDOF 5
ENDMDL
