MODEL 1
REMARK VINA RESULT:      74.3      0.000      0.000
REMARK  3 active torsions:
REMARK  status: ('A' for Active; 'I' for Inactive)
REMARK    1  A    between atoms: C_9  and  C_4 
REMARK    2  A    between atoms: C_10  and  C_7 
REMARK    3  A    between atoms: C_17  and  C_10 
ROOT
ATOM      1  C   UNL d   1      60.561  47.860  50.696  0.00  0.00     0.179 A 
ATOM      2  N   UNL d   1      60.916  48.364  50.138  0.00  0.00    -0.282 N 
ATOM      3  N   UNL d   1      60.880  47.104  50.598  0.00  0.00    -0.221 NA
ATOM      4  C   UNL d   1      61.434  47.139  49.978  0.00  0.00     0.101 A 
ATOM      5  S   UNL d   1      60.025  48.304  51.137  0.00  0.00    -0.048 SA
ATOM      6  C   UNL d   1      61.451  47.912  49.702  0.00  0.00     0.101 A 
ATOM      7  C   UNL d   1      60.050  49.080  50.850  0.00  0.00     0.050 A 
ATOM      8  C   UNL d   1      60.592  49.112  50.245  0.00  0.00     0.089 A 
ENDROOT
BRANCH   4   9
ATOM      9  C   UNL d   1      61.876  46.510  49.703  0.00  0.00     0.019 A 
ATOM     10  C   UNL d   1      62.567  46.654  49.276  0.00  0.00     0.004 A 
ATOM     11  C   UNL d   1      63.023  46.027  48.992  0.00  0.00     0.030 A 
ATOM     12  C   UNL d   1      62.779  45.250  49.141  0.00  0.00     0.140 A 
ATOM     13  C   UNL d   1      62.093  45.102  49.565  0.00  0.00     0.030 A 
ATOM     14  F   UNL d   1      63.111  44.519  48.933  0.00  0.00    -0.204 F 
ATOM     15  C   UNL d   1      61.639  45.728  49.848  0.00  0.00     0.004 A 
ENDBRANCH   4   9
BRANCH   7  16
ATOM     16  C   UNL d   1      59.596  49.706  51.139  0.00  0.00     0.008 C 
BRANCH  16  17
ATOM     17  C   UNL d   1      58.777  49.706  51.059  0.00  0.00     0.001 A 
ATOM     18  C   UNL d   1      58.290  49.704  51.720  0.00  0.00     0.000 A 
ATOM     19  C   UNL d   1      57.464  49.704  51.637  0.00  0.00     0.000 A 
ATOM     20  C   UNL d   1      57.130  49.705  50.881  0.00  0.00     0.000 A 
ATOM     21  C   UNL d   1      57.614  49.707  50.215  0.00  0.00     0.000 A 
ATOM     22  C   UNL d   1      58.440  49.707  50.298  0.00  0.00     0.000 A 
ENDBRANCH  16  17
ENDBRANCH   7  16
TORSDOF 3
ENDMDL
MODEL 2
REMARK VINA RESULT:      74.9      0.612      1.170
REMARK  3 active torsions:
REMARK  status: ('A' for Active; 'I' for Inactive)
REMARK    1  A    between atoms: C_9  and  C_4 
REMARK    2  A    between atoms: C_10  and  C_7 
REMARK    3  A    between atoms: C_17  and  C_10 
ROOT
ATOM      1  C   UNL d   1      60.556  48.436  50.503  0.00  0.00     0.179 A 
ATOM      2  N   UNL d   1      60.005  47.874  50.770  0.00  0.00    -0.282 N 
ATOM      3  N   UNL d   1      61.199  48.030  50.179  0.00  0.00    -0.221 NA
ATOM      4  C   UNL d   1      61.047  47.215  50.245  0.00  0.00     0.101 A 
ATOM      5  S   UNL d   1      60.255  49.186  50.662  0.00  0.00    -0.048 SA
ATOM      6  C   UNL d   1      60.315  47.127  50.607  0.00  0.00     0.101 A 
ATOM      7  C   UNL d   1      59.519  49.086  51.027  0.00  0.00     0.050 A 
ATOM      8  C   UNL d   1      59.371  48.288  51.090  0.00  0.00     0.089 A 
ENDROOT
BRANCH   4   9
ATOM      9  C   UNL d   1      61.543  46.619  49.991  0.00  0.00     0.019 A 
ATOM     10  C   UNL d   1      61.346  45.833  50.146  0.00  0.00     0.004 A 
ATOM     11  C   UNL d   1      61.840  45.220  49.894  0.00  0.00     0.030 A 
ATOM     12  C   UNL d   1      62.535  45.403  49.484  0.00  0.00     0.140 A 
ATOM     13  C   UNL d   1      62.734  46.183  49.329  0.00  0.00     0.030 A 
ATOM     14  F   UNL d   1      63.131  44.921  49.167  0.00  0.00    -0.204 F 
ATOM     15  C   UNL d   1      62.242  46.793  49.579  0.00  0.00     0.004 A 
ENDBRANCH   4   9
BRANCH   7  16
ATOM     16  C   UNL d   1      59.028  49.700  51.278  0.00  0.00     0.008 C 
BRANCH  16  17
ATOM     17  C   UNL d   1      58.222  49.691  51.112  0.00  0.00     0.001 A 
ATOM     18  C   UNL d   1      57.952  49.684  50.337  0.00  0.00     0.000 A 
ATOM     19  C   UNL d   1      57.138  49.675  50.172  0.00  0.00     0.000 A 
ATOM     20  C   UNL d   1      56.596  49.673  50.795  0.00  0.00     0.000 A 
ATOM     21  C   UNL d   1      56.861  49.680  51.575  0.00  0.00     0.000 A 
ATOM     22  C   UNL d   1      57.674  49.689  51.739  0.00  0.00     0.000 A 
ENDBRANCH  16  17
ENDBRANCH   7  16
TORSDOF 3
ENDMDL
MODEL 3
REMARK VINA RESULT:      76.4      3.149      4.873
REMARK  3 active torsions:
REMARK  status: ('A' for Active; 'I' for Inactive)
REMARK    1  A    between atoms: C_9  and  C_4 
REMARK    2  A    between atoms: C_10  and  C_7 
REMARK    3  A    between atoms: C_17  and  C_10 
ROOT
ATOM      1  C   UNL d   1      60.325  49.562  50.668  0.00  0.00     0.179 A 
ATOM      2  N   UNL d   1      60.018  49.291  51.391  0.00  0.00    -0.282 N 
ATOM      3  N   UNL d   1      59.695  49.663  50.143  0.00  0.00    -0.221 NA
ATOM      4  C   UNL d   1      58.995  49.455  50.540  0.00  0.00     0.101 A 
ATOM      5  S   UNL d   1      61.143  49.628  50.746  0.00  0.00    -0.048 SA
ATOM      6  C   UNL d   1      59.200  49.228  51.303  0.00  0.00     0.101 A 
ATOM      7  C   UNL d   1      61.338  49.397  51.517  0.00  0.00     0.050 A 
ATOM      8  C   UNL d   1      60.652  49.194  51.904  0.00  0.00     0.089 A 
ENDROOT
BRANCH   4   9
ATOM      9  C   UNL d   1      58.244  49.476  50.220  0.00  0.00     0.019 A 
ATOM     10  C   UNL d   1      57.593  49.317  50.700  0.00  0.00     0.004 A 
ATOM     11  C   UNL d   1      56.828  49.334  50.388  0.00  0.00     0.030 A 
ATOM     12  C   UNL d   1      56.723  49.514  49.588  0.00  0.00     0.140 A 
ATOM     13  C   UNL d   1      57.367  49.673  49.107  0.00  0.00     0.030 A 
ATOM     14  F   UNL d   1      56.039  49.574  49.122  0.00  0.00    -0.204 F 
ATOM     15  C   UNL d   1      58.129  49.655  49.418  0.00  0.00     0.004 A 
ENDBRANCH   4   9
BRANCH   7  16
ATOM     16  C   UNL d   1      62.102  49.382  51.826  0.00  0.00     0.008 C 
BRANCH  16  17
ATOM     17  C   UNL d   1      62.232  49.462  52.635  0.00  0.00     0.001 A 
ATOM     18  C   UNL d   1      61.609  49.614  53.148  0.00  0.00     0.000 A 
ATOM     19  C   UNL d   1      61.743  49.694  53.964  0.00  0.00     0.000 A 
ATOM     20  C   UNL d   1      62.510  49.620  54.260  0.00  0.00     0.000 A 
ATOM     21  C   UNL d   1      63.139  49.468  53.750  0.00  0.00     0.000 A 
ATOM     22  C   UNL d   1      63.005  49.387  52.935  0.00  0.00     0.000 A 
ENDBRANCH  16  17
ENDBRANCH   7  16
TORSDOF 3
ENDMDL
