MODEL 1
REMARK VINA RESULT:      -2.8      0.000      0.000
REMARK  3 active torsions:
REMARK  status: ('A' for Active; 'I' for Inactive)
REMARK    1  A    between atoms: S_3  and  C_1 
REMARK    2  A    between atoms: C_7  and  N_2 
REMARK    3  A    between atoms: C_13  and  C_7 
ROOT
ATOM      1  C   UNL d   1      58.542  -0.691  29.387  0.00  0.00     0.255 A 
ATOM      2  N   UNL d   1      59.266  -0.697  28.986  0.00  0.00    -0.278 N 
ATOM      3  N   UNL d   1      58.294  -1.444  29.529  0.00  0.00    -0.215 NA
ATOM      4  C   UNL d   1      59.483  -1.495  28.872  0.00  0.00     0.084 A 
ATOM      5  C   UNL d   1      58.883  -1.955  29.207  0.00  0.00     0.100 A 
ATOM      6  C   UNL d   1      60.131  -1.863  28.516  0.00  0.00     0.019 A 
ATOM      7  C   UNL d   1      58.935  -2.781  29.184  0.00  0.00     0.021 A 
ATOM      8  C   UNL d   1      60.185  -2.685  28.492  0.00  0.00     0.002 A 
ATOM      9  C   UNL d   1      59.585  -3.146  28.827  0.00  0.00     0.002 A 
ENDROOT
BRANCH   1  10
ATOM     10  S   UNL d   1      58.137  -0.004  29.606  0.00  0.00     0.174 S 
ATOM     11  O   UNL d   1      57.919   0.119  28.818  0.00  0.00    -0.589 OA
ATOM     12  O   UNL d   1      57.732   0.682  29.825  0.00  0.00    -0.589 OA
ATOM     13  O   UNL d   1      58.354  -0.127  30.393  0.00  0.00    -0.589 OA
ENDBRANCH   1  10
BRANCH   2  14
ATOM     14  C   UNL d   1      59.707  -0.058  28.738  0.00  0.00     0.082 C 
BRANCH  14  15
ATOM     15  C   UNL d   1      60.472  -0.002  29.023  0.00  0.00     0.018 C 
ATOM     16  C   UNL d   1      61.121  -0.032  28.516  0.00  0.00     0.002 C 
ATOM     17  C   UNL d   1      60.628   0.087  29.823  0.00  0.00     0.002 C 
ENDBRANCH  14  15
ENDBRANCH   2  14
TORSDOF 3
ENDMDL
MODEL 2
REMARK VINA RESULT:      -2.5      0.764      1.141
REMARK  3 active torsions:
REMARK  status: ('A' for Active; 'I' for Inactive)
REMARK    1  A    between atoms: S_3  and  C_1 
REMARK    2  A    between atoms: C_7  and  N_2 
REMARK    3  A    between atoms: C_13  and  C_7 
ROOT
ATOM      1  C   UNL d   1      58.177  -0.432  30.073  0.00  0.00     0.255 A 
ATOM      2  N   UNL d   1      58.796  -0.246  29.556  0.00  0.00    -0.278 N 
ATOM      3  N   UNL d   1      58.048  -1.227  30.080  0.00  0.00    -0.215 NA
ATOM      4  C   UNL d   1      59.068  -0.960  29.222  0.00  0.00     0.084 A 
ATOM      5  C   UNL d   1      58.607  -1.566  29.546  0.00  0.00     0.100 A 
ATOM      6  C   UNL d   1      59.662  -1.144  28.679  0.00  0.00     0.019 A 
ATOM      7  C   UNL d   1      58.742  -2.351  29.323  0.00  0.00     0.021 A 
ATOM      8  C   UNL d   1      59.798  -1.926  28.455  0.00  0.00     0.002 A 
ATOM      9  C   UNL d   1      59.337  -2.532  28.779  0.00  0.00     0.002 A 
ENDROOT
BRANCH   1  10
ATOM     10  S   UNL d   1      57.756   0.125  30.515  0.00  0.00     0.174 S 
ATOM     11  O   UNL d   1      58.125  -0.143  31.205  0.00  0.00    -0.589 OA
ATOM     12  O   UNL d   1      57.336   0.682  30.957  0.00  0.00    -0.589 OA
ATOM     13  O   UNL d   1      57.388   0.393  29.827  0.00  0.00    -0.589 OA
ENDBRANCH   1  10
BRANCH   2  14
ATOM     14  C   UNL d   1      59.102   0.490  29.385  0.00  0.00     0.082 C 
BRANCH  14  15
ATOM     15  C   UNL d   1      59.908   0.589  29.485  0.00  0.00     0.018 C 
ATOM     16  C   UNL d   1      60.249   0.605  30.236  0.00  0.00     0.002 C 
ATOM     17  C   UNL d   1      60.414   0.676  28.845  0.00  0.00     0.002 C 
ENDBRANCH  14  15
ENDBRANCH   2  14
TORSDOF 3
ENDMDL
MODEL 3
REMARK VINA RESULT:      -2.2      1.720      2.513
REMARK  3 active torsions:
REMARK  status: ('A' for Active; 'I' for Inactive)
REMARK    1  A    between atoms: S_3  and  C_1 
REMARK    2  A    between atoms: C_7  and  N_2 
REMARK    3  A    between atoms: C_13  and  C_7 
ROOT
ATOM      1  C   UNL d   1      58.811  -1.875  29.376  0.00  0.00     0.255 A 
ATOM      2  N   UNL d   1      59.046  -1.123  29.122  0.00  0.00    -0.278 N 
ATOM      3  N   UNL d   1      58.289  -1.815  29.987  0.00  0.00    -0.215 NA
ATOM      4  C   UNL d   1      58.650  -0.563  29.598  0.00  0.00     0.084 A 
ATOM      5  C   UNL d   1      58.184  -0.990  30.131  0.00  0.00     0.100 A 
ATOM      6  C   UNL d   1      58.648   0.262  29.622  0.00  0.00     0.019 A 
ATOM      7  C   UNL d   1      57.717  -0.589  30.685  0.00  0.00     0.021 A 
ATOM      8  C   UNL d   1      58.184   0.664  30.173  0.00  0.00     0.002 A 
ATOM      9  C   UNL d   1      57.718   0.237  30.706  0.00  0.00     0.002 A 
ENDROOT
BRANCH   1  10
ATOM     10  S   UNL d   1      59.080  -2.583  29.045  0.00  0.00     0.174 S 
ATOM     11  O   UNL d   1      58.503  -2.526  28.455  0.00  0.00    -0.589 OA
ATOM     12  O   UNL d   1      59.349  -3.291  28.713  0.00  0.00    -0.589 OA
ATOM     13  O   UNL d   1      59.656  -2.640  29.633  0.00  0.00    -0.589 OA
ENDBRANCH   1  10
BRANCH   2  14
ATOM     14  C   UNL d   1      59.565  -0.936  28.522  0.00  0.00     0.082 C 
BRANCH  14  15
ATOM     15  C   UNL d   1      60.217  -0.485  28.723  0.00  0.00     0.018 C 
ATOM     16  C   UNL d   1      60.815  -0.787  29.203  0.00  0.00     0.002 C 
ATOM     17  C   UNL d   1      60.306   0.286  28.458  0.00  0.00     0.002 C 
ENDBRANCH  14  15
ENDBRANCH   2  14
TORSDOF 3
ENDMDL
MODEL 4
REMARK VINA RESULT:      -2.0      1.726      2.914
REMARK  3 active torsions:
REMARK  status: ('A' for Active; 'I' for Inactive)
REMARK    1  A    between atoms: S_3  and  C_1 
REMARK    2  A    between atoms: C_7  and  N_2 
REMARK    3  A    between atoms: C_13  and  C_7 
ROOT
ATOM      1  C   UNL d   1      59.679   0.190  29.551  0.00  0.00     0.255 A 
ATOM      2  N   UNL d   1      59.100  -0.397  29.484  0.00  0.00    -0.278 N 
ATOM      3  N   UNL d   1      59.510   0.682  30.167  0.00  0.00    -0.215 NA
ATOM      4  C   UNL d   1      58.539  -0.266  30.088  0.00  0.00     0.084 A 
ATOM      5  C   UNL d   1      58.792   0.399  30.509  0.00  0.00     0.100 A 
ATOM      6  C   UNL d   1      57.844  -0.651  30.311  0.00  0.00     0.019 A 
ATOM      7  C   UNL d   1      58.349   0.675  31.151  0.00  0.00     0.021 A 
ATOM      8  C   UNL d   1      57.401  -0.379  30.951  0.00  0.00     0.002 A 
ATOM      9  C   UNL d   1      57.654   0.286  31.372  0.00  0.00     0.002 A 
ENDROOT
BRANCH   1  10
ATOM     10  S   UNL d   1      60.336   0.256  29.053  0.00  0.00     0.174 S 
ATOM     11  O   UNL d   1      60.820  -0.049  29.651  0.00  0.00    -0.589 OA
ATOM     12  O   UNL d   1      60.992   0.321  28.556  0.00  0.00    -0.589 OA
ATOM     13  O   UNL d   1      59.854   0.559  28.457  0.00  0.00    -0.589 OA
ENDBRANCH   1  10
BRANCH   2  14
ATOM     14  C   UNL d   1      59.060  -1.001  28.938  0.00  0.00     0.082 C 
BRANCH  14  15
ATOM     15  C   UNL d   1      59.127  -1.764  29.225  0.00  0.00     0.018 C 
ATOM     16  C   UNL d   1      58.496  -2.293  29.188  0.00  0.00     0.002 C 
ATOM     17  C   UNL d   1      59.823  -2.038  29.561  0.00  0.00     0.002 C 
ENDBRANCH  14  15
ENDBRANCH   2  14
TORSDOF 3
ENDMDL
MODEL 5
REMARK VINA RESULT:      -1.9      4.096      5.270
REMARK  3 active torsions:
REMARK  status: ('A' for Active; 'I' for Inactive)
REMARK    1  A    between atoms: S_3  and  C_1 
REMARK    2  A    between atoms: C_7  and  N_2 
REMARK    3  A    between atoms: C_13  and  C_7 
ROOT
ATOM      1  C   UNL d   1      57.243   0.139  32.072  0.00  0.00     0.255 A 
ATOM      2  N   UNL d   1      56.634   0.115  32.631  0.00  0.00    -0.278 N 
ATOM      3  N   UNL d   1      57.942   0.325  32.427  0.00  0.00    -0.215 NA
ATOM      4  C   UNL d   1      56.968   0.296  33.374  0.00  0.00     0.084 A 
ATOM      5  C   UNL d   1      57.775   0.425  33.248  0.00  0.00     0.100 A 
ATOM      6  C   UNL d   1      56.658   0.360  34.137  0.00  0.00     0.019 A 
ATOM      7  C   UNL d   1      58.267   0.618  33.885  0.00  0.00     0.021 A 
ATOM      8  C   UNL d   1      57.146   0.552  34.773  0.00  0.00     0.002 A 
ATOM      9  C   UNL d   1      57.953   0.682  34.647  0.00  0.00     0.002 A 
ENDROOT
BRANCH   1  10
ATOM     10  S   UNL d   1      57.141  -0.009  31.265  0.00  0.00     0.174 S 
ATOM     11  O   UNL d   1      57.588  -0.702  31.335  0.00  0.00    -0.589 OA
ATOM     12  O   UNL d   1      57.038  -0.157  30.459  0.00  0.00    -0.589 OA
ATOM     13  O   UNL d   1      56.695   0.682  31.195  0.00  0.00    -0.589 OA
ENDBRANCH   1  10
BRANCH   2  14
ATOM     14  C   UNL d   1      55.846  -0.051  32.507  0.00  0.00     0.082 C 
BRANCH  14  15
ATOM     15  C   UNL d   1      55.502  -0.608  32.998  0.00  0.00     0.018 C 
ATOM     16  C   UNL d   1      55.726  -1.402  32.968  0.00  0.00     0.002 C 
ATOM     17  C   UNL d   1      54.922  -0.405  33.540  0.00  0.00     0.002 C 
ENDBRANCH  14  15
ENDBRANCH   2  14
TORSDOF 3
ENDMDL
MODEL 6
REMARK VINA RESULT:      -1.8      0.939      2.386
REMARK  3 active torsions:
REMARK  status: ('A' for Active; 'I' for Inactive)
REMARK    1  A    between atoms: S_3  and  C_1 
REMARK    2  A    between atoms: C_7  and  N_2 
REMARK    3  A    between atoms: C_13  and  C_7 
ROOT
ATOM      1  C   UNL d   1      58.493   0.183  30.246  0.00  0.00     0.255 A 
ATOM      2  N   UNL d   1      58.728  -0.356  29.663  0.00  0.00    -0.278 N 
ATOM      3  N   UNL d   1      59.118   0.634  30.480  0.00  0.00    -0.215 NA
ATOM      4  C   UNL d   1      59.542  -0.236  29.525  0.00  0.00     0.084 A 
ATOM      5  C   UNL d   1      59.783   0.374  30.029  0.00  0.00     0.100 A 
ATOM      6  C   UNL d   1      60.092  -0.590  29.021  0.00  0.00     0.019 A 
ATOM      7  C   UNL d   1      60.571   0.627  30.025  0.00  0.00     0.021 A 
ATOM      8  C   UNL d   1      60.877  -0.340  29.015  0.00  0.00     0.002 A 
ATOM      9  C   UNL d   1      61.118   0.270  29.519  0.00  0.00     0.002 A 
ENDROOT
BRANCH   1  10
ATOM     10  S   UNL d   1      57.722   0.243  30.540  0.00  0.00     0.174 S 
ATOM     11  O   UNL d   1      57.979  -0.045  31.271  0.00  0.00    -0.589 OA
ATOM     12  O   UNL d   1      56.953   0.303  30.834  0.00  0.00    -0.589 OA
ATOM     13  O   UNL d   1      57.466   0.531  29.811  0.00  0.00    -0.589 OA
ENDBRANCH   1  10
BRANCH   2  14
ATOM     14  C   UNL d   1      58.271  -0.910  29.279  0.00  0.00     0.082 C 
BRANCH  14  15
ATOM     15  C   UNL d   1      58.567  -1.671  29.237  0.00  0.00     0.018 C 
ATOM     16  C   UNL d   1      58.557  -2.171  29.893  0.00  0.00     0.002 C 
ATOM     17  C   UNL d   1      58.887  -1.972  28.545  0.00  0.00     0.002 C 
ENDBRANCH  14  15
ENDBRANCH   2  14
TORSDOF 3
ENDMDL
MODEL 7
REMARK VINA RESULT:      -0.9      9.159      9.926
REMARK  3 active torsions:
REMARK  status: ('A' for Active; 'I' for Inactive)
REMARK    1  A    between atoms: S_3  and  C_1 
REMARK    2  A    between atoms: C_7  and  N_2 
REMARK    3  A    between atoms: C_13  and  C_7 
ROOT
ATOM      1  C   UNL d   1      60.588  -8.771  34.163  0.00  0.00     0.255 A 
ATOM      2  N   UNL d   1      59.894  -8.947  34.579  0.00  0.00    -0.278 N 
ATOM      3  N   UNL d   1      60.954  -8.130  34.486  0.00  0.00    -0.215 NA
ATOM      4  C   UNL d   1      59.822  -8.387  35.195  0.00  0.00     0.084 A 
ATOM      5  C   UNL d   1      60.476  -7.884  35.137  0.00  0.00     0.100 A 
ATOM      6  C   UNL d   1      59.263  -8.266  35.790  0.00  0.00     0.019 A 
ATOM      7  C   UNL d   1      60.566  -7.262  35.675  0.00  0.00     0.021 A 
ATOM      8  C   UNL d   1      59.351  -7.647  36.328  0.00  0.00     0.002 A 
ATOM      9  C   UNL d   1      60.005  -7.144  36.270  0.00  0.00     0.002 A 
ENDROOT
BRANCH   1  10
ATOM     10  S   UNL d   1      60.860  -9.198  33.510  0.00  0.00     0.174 S 
ATOM     11  O   UNL d   1      61.127  -9.798  34.012  0.00  0.00    -0.589 OA
ATOM     12  O   UNL d   1      61.131  -9.625  32.856  0.00  0.00    -0.589 OA
ATOM     13  O   UNL d   1      60.593  -8.600  33.008  0.00  0.00    -0.589 OA
ENDBRANCH   1  10
BRANCH   2  14
ATOM     14  C   UNL d   1      59.363  -9.548  34.436  0.00  0.00     0.082 C 
BRANCH  14  15
ATOM     15  C   UNL d   1      58.622  -9.332  34.167  0.00  0.00     0.018 C 
ATOM     16  C   UNL d   1      57.940  -9.702  34.445  0.00  0.00     0.002 C 
ATOM     17  C   UNL d   1      58.522  -8.739  33.609  0.00  0.00     0.002 C 
ENDBRANCH  14  15
ENDBRANCH   2  14
TORSDOF 3
ENDMDL
