MODEL 1
REMARK VINA RESULT:      -7.5      0.000      0.000
REMARK  4 active torsions:
REMARK  status: ('A' for Active; 'I' for Inactive)
REMARK    1  A    between atoms: C_16  and  C_4 
REMARK    2  A    between atoms: C_8  and  S_14 
REMARK    3  A    between atoms: C_18  and  C_9 
REMARK    4  A    between atoms: S_14  and  C_16 
ROOT
ATOM      1  N   UNL d   1     -48.632  12.573  23.088  0.00  0.00    -0.218 NA
ATOM      2  C   UNL d   1     -48.246  11.876  23.330  0.00  0.00     0.215 A 
ATOM      3  C   UNL d   1     -49.434  12.625  23.077  0.00  0.00     0.104 A 
ATOM      4  N   UNL d   1     -48.696  11.221  23.565  0.00  0.00    -0.121 NA
ATOM      5  N   UNL d   1     -49.524  11.271  23.555  0.00  0.00    -0.143 NA
ATOM      6  C   UNL d   1     -49.890  11.956  23.317  0.00  0.00     0.141 A 
ENDROOT
BRANCH   2   7
ATOM      7  S   UNL d   1     -47.431  11.834  23.337  0.00  0.00    -0.045 SA
BRANCH   7   8
ATOM      8  C   UNL d   1     -47.068  11.183  23.670  0.00  0.00     0.060 C 
BRANCH   8   9
ATOM      9  C   UNL d   1     -46.236  11.060  23.566  0.00  0.00     0.124 A 
ATOM     10  N   UNL d   1     -45.693  11.596  23.332  0.00  0.00    -0.059 NA
ATOM     11  C   UNL d   1     -44.960  11.228  23.310  0.00  0.00     0.735 A 
ATOM     12  N   UNL d   1     -45.077  10.445  23.539  0.00  0.00    -0.136 N 
ATOM     13  N   UNL d   1     -44.198  11.491  23.113  0.00  0.00    -0.059 NA
ATOM     14  C   UNL d   1     -45.873  10.345  23.698  0.00  0.00     0.118 A 
ATOM     15  C   UNL d   1     -44.442   9.926  23.574  0.00  0.00     0.100 A 
ATOM     16  C   UNL d   1     -43.681  10.188  23.378  0.00  0.00     0.041 A 
ATOM     17  C   UNL d   1     -43.558  10.969  23.147  0.00  0.00     0.119 A 
ENDBRANCH   8   9
ENDBRANCH   7   8
ENDBRANCH   2   7
BRANCH   3  18
ATOM     18  C   UNL d   1     -49.816  13.329  22.832  0.00  0.00     0.019 A 
ATOM     19  C   UNL d   1     -50.168  13.344  22.092  0.00  0.00     0.002 A 
ATOM     20  C   UNL d   1     -50.550  14.047  21.847  0.00  0.00     0.000 A 
ATOM     21  C   UNL d   1     -50.567  14.704  22.346  0.00  0.00     0.000 A 
ATOM     22  C   UNL d   1     -50.200  14.659  23.094  0.00  0.00     0.000 A 
ATOM     23  C   UNL d   1     -49.830  13.968  23.322  0.00  0.00     0.002 A 
ENDBRANCH   3  18
TORSDOF 4
ENDMDL
MODEL 2
REMARK VINA RESULT:      -7.3      1.227      1.782
REMARK  4 active torsions:
REMARK  status: ('A' for Active; 'I' for Inactive)
REMARK    1  A    between atoms: C_16  and  C_4 
REMARK    2  A    between atoms: C_8  and  S_14 
REMARK    3  A    between atoms: C_18  and  C_9 
REMARK    4  A    between atoms: S_14  and  C_16 
ROOT
ATOM      1  N   UNL d   1     -48.155  13.355  22.824  0.00  0.00    -0.218 NA
ATOM      2  C   UNL d   1     -47.363  13.540  23.000  0.00  0.00     0.215 A 
ATOM      3  C   UNL d   1     -48.682  13.925  22.617  0.00  0.00     0.104 A 
ATOM      4  N   UNL d   1     -47.110  14.329  22.962  0.00  0.00    -0.121 NA
ATOM      5  N   UNL d   1     -47.650  14.920  22.749  0.00  0.00    -0.143 NA
ATOM      6  C   UNL d   1     -48.421  14.728  22.579  0.00  0.00     0.141 A 
ENDROOT
BRANCH   2   7
ATOM      7  S   UNL d   1     -46.836  12.953  23.209  0.00  0.00    -0.045 SA
BRANCH   7   8
ATOM      8  C   UNL d   1     -46.149  12.860  22.777  0.00  0.00     0.060 C 
BRANCH   8   9
ATOM      9  C   UNL d   1     -45.621  12.220  22.949  0.00  0.00     0.124 A 
ATOM     10  N   UNL d   1     -44.839  12.183  22.795  0.00  0.00    -0.059 NA
ATOM     11  C   UNL d   1     -44.558  11.459  23.059  0.00  0.00     0.735 A 
ATOM     12  N   UNL d   1     -45.200  11.055  23.382  0.00  0.00    -0.136 N 
ATOM     13  N   UNL d   1     -43.808  11.105  23.055  0.00  0.00    -0.059 NA
ATOM     14  C   UNL d   1     -45.860  11.533  23.311  0.00  0.00     0.118 A 
ATOM     15  C   UNL d   1     -45.099  10.304  23.698  0.00  0.00     0.100 A 
ATOM     16  C   UNL d   1     -44.349   9.950  23.693  0.00  0.00     0.041 A 
ATOM     17  C   UNL d   1     -43.704  10.349  23.373  0.00  0.00     0.119 A 
ENDBRANCH   8   9
ENDBRANCH   7   8
ENDBRANCH   2   7
BRANCH   3  18
ATOM     18  C   UNL d   1     -49.478  13.733  22.440  0.00  0.00     0.019 A 
ATOM     19  C   UNL d   1     -49.984  13.563  23.062  0.00  0.00     0.002 A 
ATOM     20  C   UNL d   1     -50.780  13.370  22.886  0.00  0.00     0.000 A 
ATOM     21  C   UNL d   1     -51.038  13.356  22.102  0.00  0.00     0.000 A 
ATOM     22  C   UNL d   1     -50.500  13.534  21.490  0.00  0.00     0.000 A 
ATOM     23  C   UNL d   1     -49.726  13.720  21.674  0.00  0.00     0.002 A 
ENDBRANCH   3  18
TORSDOF 4
ENDMDL
MODEL 3
REMARK VINA RESULT:      -6.5      1.392      1.858
REMARK  4 active torsions:
REMARK  status: ('A' for Active; 'I' for Inactive)
REMARK    1  A    between atoms: C_16  and  C_4 
REMARK    2  A    between atoms: C_8  and  S_14 
REMARK    3  A    between atoms: C_18  and  C_9 
REMARK    4  A    between atoms: S_14  and  C_16 
ROOT
ATOM      1  N   UNL d   1     -48.713  13.594  22.928  0.00  0.00    -0.218 NA
ATOM      2  C   UNL d   1     -48.207  12.935  22.980  0.00  0.00     0.215 A 
ATOM      3  C   UNL d   1     -49.458  13.575  23.229  0.00  0.00     0.104 A 
ATOM      4  N   UNL d   1     -48.476  12.243  23.349  0.00  0.00    -0.121 NA
ATOM      5  N   UNL d   1     -49.243  12.219  23.661  0.00  0.00    -0.143 NA
ATOM      6  C   UNL d   1     -49.729  12.868  23.605  0.00  0.00     0.141 A 
ENDROOT
BRANCH   2   7
ATOM      7  S   UNL d   1     -47.453  12.966  22.671  0.00  0.00    -0.045 SA
BRANCH   7   8
ATOM      8  C   UNL d   1     -46.815  12.823  23.160  0.00  0.00     0.060 C 
BRANCH   8   9
ATOM      9  C   UNL d   1     -46.039  12.730  22.831  0.00  0.00     0.124 A 
ATOM     10  N   UNL d   1     -45.509  12.156  22.997  0.00  0.00    -0.059 NA
ATOM     11  C   UNL d   1     -44.835  12.290  22.547  0.00  0.00     0.735 A 
ATOM     12  N   UNL d   1     -44.976  12.968  22.101  0.00  0.00    -0.136 N 
ATOM     13  N   UNL d   1     -44.111  11.893  22.478  0.00  0.00    -0.059 NA
ATOM     14  C   UNL d   1     -45.727  13.239  22.281  0.00  0.00     0.118 A 
ATOM     15  C   UNL d   1     -44.401  13.251  21.588  0.00  0.00     0.100 A 
ATOM     16  C   UNL d   1     -43.676  12.854  21.518  0.00  0.00     0.041 A 
ATOM     17  C   UNL d   1     -43.530  12.176  21.962  0.00  0.00     0.119 A 
ENDBRANCH   8   9
ENDBRANCH   7   8
ENDBRANCH   2   7
BRANCH   3  18
ATOM     18  C   UNL d   1     -49.962  14.242  23.174  0.00  0.00     0.019 A 
ATOM     19  C   UNL d   1     -49.830  14.873  23.681  0.00  0.00     0.002 A 
ATOM     20  C   UNL d   1     -50.334  15.539  23.626  0.00  0.00     0.000 A 
ATOM     21  C   UNL d   1     -50.946  15.551  23.072  0.00  0.00     0.000 A 
ATOM     22  C   UNL d   1     -51.056  14.893  22.570  0.00  0.00     0.000 A 
ATOM     23  C   UNL d   1     -50.558  14.249  22.633  0.00  0.00     0.002 A 
ENDBRANCH   3  18
TORSDOF 4
ENDMDL
MODEL 4
REMARK VINA RESULT:      -5.8      1.619      5.488
REMARK  4 active torsions:
REMARK  status: ('A' for Active; 'I' for Inactive)
REMARK    1  A    between atoms: C_16  and  C_4 
REMARK    2  A    between atoms: C_8  and  S_14 
REMARK    3  A    between atoms: C_18  and  C_9 
REMARK    4  A    between atoms: S_14  and  C_16 
ROOT
ATOM      1  N   UNL d   1     -45.893  12.821  22.861  0.00  0.00    -0.218 NA
ATOM      2  C   UNL d   1     -46.597  12.722  23.294  0.00  0.00     0.215 A 
ATOM      3  C   UNL d   1     -45.338  12.241  22.825  0.00  0.00     0.104 A 
ATOM      4  N   UNL d   1     -46.730  12.010  23.698  0.00  0.00    -0.121 NA
ATOM      5  N   UNL d   1     -46.160  11.409  23.664  0.00  0.00    -0.143 NA
ATOM      6  C   UNL d   1     -45.477  11.517  23.238  0.00  0.00     0.141 A 
ENDROOT
BRANCH   2   7
ATOM      7  S   UNL d   1     -47.153  13.318  23.323  0.00  0.00    -0.045 SA
BRANCH   7   8
ATOM      8  C   UNL d   1     -47.876  13.207  22.959  0.00  0.00     0.060 C 
BRANCH   8   9
ATOM      9  C   UNL d   1     -48.500  13.770  23.072  0.00  0.00     0.124 A 
ATOM     10  N   UNL d   1     -48.462  14.561  22.970  0.00  0.00    -0.059 NA
ATOM     11  C   UNL d   1     -49.199  14.879  23.143  0.00  0.00     0.735 A 
ATOM     12  N   UNL d   1     -49.688  14.250  23.354  0.00  0.00    -0.136 N 
ATOM     13  N   UNL d   1     -49.499  15.651  23.140  0.00  0.00    -0.059 NA
ATOM     14  C   UNL d   1     -49.248  13.561  23.308  0.00  0.00     0.118 A 
ATOM     15  C   UNL d   1     -50.471  14.387  23.560  0.00  0.00     0.100 A 
ATOM     16  C   UNL d   1     -50.771  15.159  23.557  0.00  0.00     0.041 A 
ATOM     17  C   UNL d   1     -50.287  15.792  23.347  0.00  0.00     0.119 A 
ENDBRANCH   8   9
ENDBRANCH   7   8
ENDBRANCH   2   7
BRANCH   3  18
ATOM     18  C   UNL d   1     -44.631  12.347  22.388  0.00  0.00     0.019 A 
ATOM     19  C   UNL d   1     -44.616  12.925  21.807  0.00  0.00     0.002 A 
ATOM     20  C   UNL d   1     -43.910  13.030  21.369  0.00  0.00     0.000 A 
ATOM     21  C   UNL d   1     -43.251  12.559  21.527  0.00  0.00     0.000 A 
ATOM     22  C   UNL d   1     -43.296  11.979  22.125  0.00  0.00     0.000 A 
ATOM     23  C   UNL d   1     -43.991  11.885  22.545  0.00  0.00     0.002 A 
ENDBRANCH   3  18
TORSDOF 4
ENDMDL
MODEL 5
REMARK VINA RESULT:      -5.1      3.935      5.383
REMARK  4 active torsions:
REMARK  status: ('A' for Active; 'I' for Inactive)
REMARK    1  A    between atoms: C_16  and  C_4 
REMARK    2  A    between atoms: C_8  and  S_14 
REMARK    3  A    between atoms: C_18  and  C_9 
REMARK    4  A    between atoms: S_14  and  C_16 
ROOT
ATOM      1  N   UNL d   1     -44.445  13.177  21.747  0.00  0.00    -0.218 NA
ATOM      2  C   UNL d   1     -43.701  12.828  21.617  0.00  0.00     0.215 A 
ATOM      3  C   UNL d   1     -44.980  12.849  22.250  0.00  0.00     0.104 A 
ATOM      4  N   UNL d   1     -43.504  12.126  22.014  0.00  0.00    -0.121 NA
ATOM      5  N   UNL d   1     -44.053  11.785  22.534  0.00  0.00    -0.143 NA
ATOM      6  C   UNL d   1     -44.776  12.135  22.653  0.00  0.00     0.141 A 
ENDROOT
BRANCH   2   7
ATOM      7  S   UNL d   1     -43.166  13.169  21.104  0.00  0.00    -0.045 SA
BRANCH   7   8
ATOM      8  C   UNL d   1     -42.387  13.249  21.336  0.00  0.00     0.060 C 
BRANCH   8   9
ATOM      9  C   UNL d   1     -41.837  13.665  20.842  0.00  0.00     0.124 A 
ATOM     10  N   UNL d   1     -41.664  13.514  20.077  0.00  0.00    -0.059 NA
ATOM     11  C   UNL d   1     -41.101  14.058  19.828  0.00  0.00     0.735 A 
ATOM     12  N   UNL d   1     -40.938  14.546  20.471  0.00  0.00    -0.136 N 
ATOM     13  N   UNL d   1     -40.711  14.181  19.107  0.00  0.00    -0.059 NA
ATOM     14  C   UNL d   1     -41.399  14.298  21.101  0.00  0.00     0.118 A 
ATOM     15  C   UNL d   1     -40.392  15.154  20.400  0.00  0.00     0.100 A 
ATOM     16  C   UNL d   1     -40.001  15.278  19.679  0.00  0.00     0.041 A 
ATOM     17  C   UNL d   1     -40.160  14.792  19.033  0.00  0.00     0.119 A 
ENDBRANCH   8   9
ENDBRANCH   7   8
ENDBRANCH   2   7
BRANCH   3  18
ATOM     18  C   UNL d   1     -45.727  13.205  22.376  0.00  0.00     0.019 A 
ATOM     19  C   UNL d   1     -46.393  12.825  22.088  0.00  0.00     0.002 A 
ATOM     20  C   UNL d   1     -47.140  13.181  22.214  0.00  0.00     0.000 A 
ATOM     21  C   UNL d   1     -47.194  13.897  22.621  0.00  0.00     0.000 A 
ATOM     22  C   UNL d   1     -46.498  14.261  22.902  0.00  0.00     0.000 A 
ATOM     23  C   UNL d   1     -45.775  13.904  22.773  0.00  0.00     0.002 A 
ENDBRANCH   3  18
TORSDOF 4
ENDMDL
