MODEL 1
REMARK VINA RESULT:      -6.4      0.000      0.000
REMARK  4 active torsions:
REMARK  status: ('A' for Active; 'I' for Inactive)
REMARK    1  A    between atoms: C_3  and  C_1 
REMARK    2  A    between atoms: C_7  and  C_3 
REMARK    3  A    between atoms: N_9  and  C_4 
REMARK    4  A    between atoms: C_8  and  C_7 
ROOT
ATOM      1  C   UNL d   1     -41.249-122.359 -52.031  0.00  0.00     0.106 C 
ATOM      2  C   UNL d   1     -41.185-121.687 -51.605  0.00  0.00     0.104 C 
ATOM      3  N   UNL d   1     -41.123-120.984 -51.179  0.00  0.00    -0.191 NA
ENDROOT
BRANCH   1   4
ATOM      4  C   UNL d   1     -41.438-122.352 -52.834  0.00  0.00     0.172 A 
ATOM      5  N   UNL d   1     -41.163-122.833 -53.413  0.00  0.00    -0.225 NA
ATOM      6  C   UNL d   1     -41.504-122.624 -54.128  0.00  0.00     0.101 A 
ATOM      7  C   UNL d   1     -41.429-122.920 -54.900  0.00  0.00     0.021 A 
ATOM      8  C   UNL d   1     -42.009-121.985 -53.970  0.00  0.00     0.101 A 
ATOM      9  C   UNL d   1     -41.853-122.588 -55.524  0.00  0.00     0.002 A 
ATOM     10  C   UNL d   1     -42.366-121.938 -55.353  0.00  0.00     0.002 A 
ATOM     11  C   UNL d   1     -42.440-121.642 -54.582  0.00  0.00     0.021 A 
ATOM     12  N   UNL d   1     -41.961-121.826 -53.169  0.00  0.00    -0.225 NA
ENDBRANCH   1   4
BRANCH   1  13
ATOM     13  C   UNL d   1     -41.123-123.093 -51.664  0.00  0.00     0.038 C 
BRANCH  13  14
ATOM     14  C   UNL d   1     -41.455-123.255 -50.921  0.00  0.00     0.103 A 
ATOM     15  O   UNL d   1     -41.259-123.009 -50.158  0.00  0.00    -0.290 OA
ATOM     16  C   UNL d   1     -41.791-123.354 -49.645  0.00  0.00     0.168 A 
ATOM     17  C   UNL d   1     -42.309-123.806 -50.070  0.00  0.00     0.045 A 
ATOM     18  C   UNL d   1     -42.110-123.752 -50.866  0.00  0.00     0.028 A 
BRANCH  16  19
ATOM     19  N   UNL d   1     -41.841-123.290 -48.823  0.00  0.00    -0.281 N 
ATOM     20  C   UNL d   1     -42.537-123.056 -48.475  0.00  0.00     0.109 A 
ATOM     21  C   UNL d   1     -42.588-122.991 -47.653  0.00  0.00     0.142 A 
ATOM     22  O   UNL d   1     -41.928-123.166 -47.200  0.00  0.00    -0.300 OA
ATOM     23  C   UNL d   1     -41.225-123.402 -47.544  0.00  0.00     0.142 A 
ATOM     24  C   UNL d   1     -41.182-123.464 -48.366  0.00  0.00     0.109 A 
ENDBRANCH  16  19
ENDBRANCH  13  14
ENDBRANCH   1  13
TORSDOF 4
ENDMDL
MODEL 2
REMARK VINA RESULT:      -6.1      1.642      5.150
REMARK  4 active torsions:
REMARK  status: ('A' for Active; 'I' for Inactive)
REMARK    1  A    between atoms: C_3  and  C_1 
REMARK    2  A    between atoms: C_7  and  C_3 
REMARK    3  A    between atoms: N_9  and  C_4 
REMARK    4  A    between atoms: C_8  and  C_7 
ROOT
ATOM      1  C   UNL d   1     -41.456-122.451 -51.275  0.00  0.00     0.106 C 
ATOM      2  C   UNL d   1     -41.457-121.675 -51.463  0.00  0.00     0.104 C 
ATOM      3  N   UNL d   1     -41.467-120.871 -51.642  0.00  0.00    -0.191 NA
ENDROOT
BRANCH   1   4
ATOM      4  C   UNL d   1     -41.768-122.730 -50.565  0.00  0.00     0.172 A 
ATOM      5  N   UNL d   1     -41.374-123.021 -49.930  0.00  0.00    -0.225 NA
ATOM      6  C   UNL d   1     -41.911-123.233 -49.348  0.00  0.00     0.101 A 
ATOM      7  C   UNL d   1     -41.825-123.557 -48.588  0.00  0.00     0.021 A 
ATOM      8  C   UNL d   1     -42.664-123.059 -49.649  0.00  0.00     0.101 A 
ATOM      9  C   UNL d   1     -42.483-123.714 -48.118  0.00  0.00     0.002 A 
ATOM     10  C   UNL d   1     -43.247-123.533 -48.433  0.00  0.00     0.002 A 
ATOM     11  C   UNL d   1     -43.332-123.209 -49.191  0.00  0.00     0.021 A 
ATOM     12  N   UNL d   1     -42.565-122.749 -50.399  0.00  0.00    -0.225 NA
ENDBRANCH   1   4
BRANCH   1  13
ATOM     13  C   UNL d   1     -41.132-123.002 -51.805  0.00  0.00     0.038 C 
BRANCH  13  14
ATOM     14  C   UNL d   1     -41.376-123.017 -52.599  0.00  0.00     0.103 A 
ATOM     15  O   UNL d   1     -41.620-122.424 -53.117  0.00  0.00    -0.290 OA
ATOM     16  C   UNL d   1     -41.792-122.778 -53.831  0.00  0.00     0.168 A 
ATOM     17  C   UNL d   1     -41.661-123.573 -53.768  0.00  0.00     0.045 A 
ATOM     18  C   UNL d   1     -41.402-123.734 -53.005  0.00  0.00     0.028 A 
BRANCH  16  19
ATOM     19  N   UNL d   1     -42.058-122.435 -54.534  0.00  0.00    -0.281 N 
ATOM     20  C   UNL d   1     -41.537-122.044 -55.019  0.00  0.00     0.109 A 
ATOM     21  C   UNL d   1     -41.803-121.700 -55.722  0.00  0.00     0.142 A 
ATOM     22  O   UNL d   1     -42.596-121.761 -55.918  0.00  0.00    -0.300 OA
ATOM     23  C   UNL d   1     -43.126-122.153 -55.435  0.00  0.00     0.142 A 
ATOM     24  C   UNL d   1     -42.853-122.494 -54.734  0.00  0.00     0.109 A 
ENDBRANCH  16  19
ENDBRANCH  13  14
ENDBRANCH   1  13
TORSDOF 4
ENDMDL
