MODEL 1
REMARK VINA RESULT:      -3.4      0.000      0.000
REMARK  8 active torsions:
REMARK  status: ('A' for Active; 'I' for Inactive)
REMARK    1  A    between atoms: N_4  and  C_1 
REMARK    2  A    between atoms: C_2  and  O_12 
REMARK    3  A    between atoms: C_8  and  C_2 
REMARK       I    between atoms: C_10  and  N_4 
REMARK    4  A    between atoms: O_12  and  C_5 
REMARK    5  A    between atoms: S_20  and  C_6 
REMARK    6  A    between atoms: C_14  and  C_10 
REMARK    7  A    between atoms: C_16  and  C_26 
REMARK    8  A    between atoms: C_26  and  S_20 
ROOT
ATOM      1  C   UNL d   1      33.234  20.878 -22.683  0.00  0.00     0.167 A 
ATOM      2  C   UNL d   1      33.233  21.036 -23.489  0.00  0.00     0.222 A 
ATOM      3  C   UNL d   1      33.228  20.393 -24.013  0.00  0.00     0.069 A 
ATOM      4  C   UNL d   1      33.229  20.104 -22.400  0.00  0.00     0.151 A 
ATOM      5  C   UNL d   1      33.223  19.619 -23.731  0.00  0.00     0.110 A 
ATOM      6  O   UNL d   1      33.224  19.480 -22.921  0.00  0.00    -0.302 OA
ATOM      7  O   UNL d   1      33.238  21.803 -23.769  0.00  0.00    -0.284 OA
ENDROOT
BRANCH   5   8
ATOM      8  C   UNL d   1      33.218  18.988 -24.258  0.00  0.00     0.062 C 
BRANCH   8   9
ATOM      9  S   UNL d   1      32.853  18.280 -24.043  0.00  0.00    -0.057 SA
BRANCH   9  10
ATOM     10  C   UNL d   1      32.108  17.703 -24.112  0.00  0.00     0.166 A 
ATOM     11  S   UNL d   1      31.467  17.479 -24.579  0.00  0.00    -0.006 SA
ATOM     12  C   UNL d   1      31.060  16.876 -24.189  0.00  0.00     0.269 A 
ATOM     13  N   UNL d   1      31.454  16.728 -23.475  0.00  0.00    -0.107 NA
ATOM     14  N   UNL d   1      32.100  17.238 -23.428  0.00  0.00    -0.132 NA
BRANCH  12  15
ATOM     15  N   UNL d   1      30.414  16.366 -24.236  0.00  0.00    -0.337 NA
ATOM     16  C   UNL d   1      29.767  15.856 -24.283  0.00  0.00     0.330 C 
ATOM     17  O   UNL d   1      30.141  15.455 -24.900  0.00  0.00    -0.251 OA
BRANCH  16  18
ATOM     18  C   UNL d   1      29.049  15.781 -23.882  0.00  0.00     0.070 A 
ATOM     19  C   UNL d   1      28.570  15.974 -23.239  0.00  0.00     0.006 A 
ATOM     20  C   UNL d   1      28.286  15.454 -23.834  0.00  0.00     0.006 A 
ENDBRANCH  16  18
ENDBRANCH  12  15
ENDBRANCH   9  10
ENDBRANCH   8   9
ENDBRANCH   5   8
BRANCH   1  21
ATOM     21  O   UNL d   1      33.239  21.513 -22.148  0.00  0.00    -0.268 OA
BRANCH  21  22
ATOM     22  C   UNL d   1      32.693  21.532 -21.526  0.00  0.00     0.305 C 
ATOM     23  O   UNL d   1      32.034  21.037 -21.536  0.00  0.00    -0.259 OA
BRANCH  22  24
ATOM     24  C   UNL d   1      32.811  22.055 -20.885  0.00  0.00     0.118 A 
ATOM     25  C   UNL d   1      32.657  22.867 -20.965  0.00  0.00     0.147 A 
ATOM     26  F   UNL d   1      32.380  23.162 -21.697  0.00  0.00    -0.204 F 
ATOM     27  C   UNL d   1      32.769  23.385 -20.346  0.00  0.00     0.030 A 
ATOM     28  C   UNL d   1      33.041  23.095 -19.625  0.00  0.00     0.005 A 
ATOM     29  C   UNL d   1      33.204  22.285 -19.518  0.00  0.00     0.030 A 
ATOM     30  C   UNL d   1      33.085  21.764 -20.162  0.00  0.00     0.147 A 
ATOM     31  F   UNL d   1      33.241  20.949 -20.079  0.00  0.00    -0.204 F 
ENDBRANCH  22  24
ENDBRANCH  21  22
ENDBRANCH   1  21
TORSDOF 8
ENDMDL
MODEL 2
REMARK VINA RESULT:      -1.9      2.542      6.502
REMARK  8 active torsions:
REMARK  status: ('A' for Active; 'I' for Inactive)
REMARK    1  A    between atoms: N_4  and  C_1 
REMARK    2  A    between atoms: C_2  and  O_12 
REMARK    3  A    between atoms: C_8  and  C_2 
REMARK       I    between atoms: C_10  and  N_4 
REMARK    4  A    between atoms: O_12  and  C_5 
REMARK    5  A    between atoms: S_20  and  C_6 
REMARK    6  A    between atoms: C_14  and  C_10 
REMARK    7  A    between atoms: C_16  and  C_26 
REMARK    8  A    between atoms: C_26  and  S_20 
ROOT
ATOM      1  C   UNL d   1      31.454  16.637 -23.933  0.00  0.00     0.167 A 
ATOM      2  C   UNL d   1      32.124  16.662 -24.408  0.00  0.00     0.222 A 
ATOM      3  C   UNL d   1      32.722  17.203 -24.211  0.00  0.00     0.069 A 
ATOM      4  C   UNL d   1      31.376  17.132 -23.280  0.00  0.00     0.151 A 
ATOM      5  C   UNL d   1      32.643  17.699 -23.557  0.00  0.00     0.110 A 
ATOM      6  O   UNL d   1      31.966  17.659 -23.094  0.00  0.00    -0.302 OA
ATOM      7  O   UNL d   1      32.202  16.171 -25.055  0.00  0.00    -0.284 OA
ENDROOT
BRANCH   5   8
ATOM      8  C   UNL d   1      33.241  18.231 -23.369  0.00  0.00     0.062 C 
BRANCH   8   9
ATOM      9  S   UNL d   1      33.170  18.702 -22.696  0.00  0.00    -0.057 SA
BRANCH   9  10
ATOM     10  C   UNL d   1      33.014  19.555 -22.320  0.00  0.00     0.166 A 
ATOM     11  S   UNL d   1      32.815  20.338 -22.480  0.00  0.00    -0.006 SA
ATOM     12  C   UNL d   1      32.798  20.753 -21.766  0.00  0.00     0.269 A 
ATOM     13  N   UNL d   1      32.990  20.220 -21.162  0.00  0.00    -0.107 NA
ATOM     14  N   UNL d   1      33.123  19.481 -21.504  0.00  0.00    -0.132 NA
BRANCH  12  15
ATOM     15  N   UNL d   1      32.665  21.491 -21.425  0.00  0.00    -0.337 NA
ATOM     16  C   UNL d   1      32.532  22.230 -21.084  0.00  0.00     0.330 C 
ATOM     17  O   UNL d   1      32.108  22.454 -21.755  0.00  0.00    -0.251 OA
BRANCH  16  18
ATOM     18  C   UNL d   1      32.736  22.592 -20.369  0.00  0.00     0.070 A 
ATOM     19  C   UNL d   1      33.241  22.648 -19.719  0.00  0.00     0.006 A 
ATOM     20  C   UNL d   1      32.582  23.163 -19.785  0.00  0.00     0.006 A 
ENDBRANCH  16  18
ENDBRANCH  12  15
ENDBRANCH   9  10
ENDBRANCH   8   9
ENDBRANCH   5   8
BRANCH   1  21
ATOM     21  O   UNL d   1      30.849  16.100 -24.120  0.00  0.00    -0.268 OA
BRANCH  21  22
ATOM     22  C   UNL d   1      30.398  15.760 -23.514  0.00  0.00     0.305 C 
ATOM     23  O   UNL d   1      30.760  15.513 -22.815  0.00  0.00    -0.259 OA
BRANCH  22  24
ATOM     24  C   UNL d   1      29.573  15.667 -23.611  0.00  0.00     0.118 A 
ATOM     25  C   UNL d   1      29.245  15.545 -24.365  0.00  0.00     0.147 A 
ATOM     26  F   UNL d   1      29.749  15.516 -25.032  0.00  0.00    -0.204 F 
ATOM     27  C   UNL d   1      28.443  15.453 -24.470  0.00  0.00     0.030 A 
ATOM     28  C   UNL d   1      27.947  15.481 -23.813  0.00  0.00     0.005 A 
ATOM     29  C   UNL d   1      28.250  15.603 -23.046  0.00  0.00     0.030 A 
ATOM     30  C   UNL d   1      29.077  15.696 -22.953  0.00  0.00     0.147 A 
ATOM     31  F   UNL d   1      29.403  15.818 -22.195  0.00  0.00    -0.204 F 
ENDBRANCH  22  24
ENDBRANCH  21  22
ENDBRANCH   1  21
TORSDOF 8
ENDMDL
MODEL 3
REMARK VINA RESULT:      -1.2      2.465      6.448
REMARK  8 active torsions:
REMARK  status: ('A' for Active; 'I' for Inactive)
REMARK    1  A    between atoms: N_4  and  C_1 
REMARK    2  A    between atoms: C_2  and  O_12 
REMARK    3  A    between atoms: C_8  and  C_2 
REMARK       I    between atoms: C_10  and  N_4 
REMARK    4  A    between atoms: O_12  and  C_5 
REMARK    5  A    between atoms: S_20  and  C_6 
REMARK    6  A    between atoms: C_14  and  C_10 
REMARK    7  A    between atoms: C_16  and  C_26 
REMARK    8  A    between atoms: C_26  and  S_20 
ROOT
ATOM      1  C   UNL d   1      31.049  16.618 -23.810  0.00  0.00     0.167 A 
ATOM      2  C   UNL d   1      31.671  16.283 -23.391  0.00  0.00     0.222 A 
ATOM      3  C   UNL d   1      32.357  16.737 -23.282  0.00  0.00     0.069 A 
ATOM      4  C   UNL d   1      31.101  17.382 -24.113  0.00  0.00     0.151 A 
ATOM      5  C   UNL d   1      32.410  17.501 -23.586  0.00  0.00     0.110 A 
ATOM      6  O   UNL d   1      31.777  17.819 -24.002  0.00  0.00    -0.302 OA
ATOM      7  O   UNL d   1      31.619  15.526 -23.091  0.00  0.00    -0.284 OA
ENDROOT
BRANCH   5   8
ATOM      8  C   UNL d   1      33.094  17.943 -23.473  0.00  0.00     0.062 C 
BRANCH   8   9
ATOM      9  S   UNL d   1      33.037  18.757 -23.352  0.00  0.00    -0.057 SA
BRANCH   9  10
ATOM     10  C   UNL d   1      32.956  19.479 -22.748  0.00  0.00     0.166 A 
ATOM     11  S   UNL d   1      32.721  20.264 -22.661  0.00  0.00    -0.006 SA
ATOM     12  C   UNL d   1      32.851  20.488 -21.877  0.00  0.00     0.269 A 
ATOM     13  N   UNL d   1      33.169  19.835 -21.479  0.00  0.00    -0.107 NA
ATOM     14  N   UNL d   1      33.235  19.213 -22.017  0.00  0.00    -0.132 NA
BRANCH  12  15
ATOM     15  N   UNL d   1      32.786  21.109 -21.340  0.00  0.00    -0.337 NA
ATOM     16  C   UNL d   1      32.721  21.732 -20.802  0.00  0.00     0.330 C 
ATOM     17  O   UNL d   1      32.881  21.205 -20.188  0.00  0.00    -0.251 OA
BRANCH  16  18
ATOM     18  C   UNL d   1      32.562  22.541 -20.858  0.00  0.00     0.070 A 
ATOM     19  C   UNL d   1      32.218  23.172 -21.262  0.00  0.00     0.006 A 
ATOM     20  C   UNL d   1      32.634  23.308 -20.545  0.00  0.00     0.006 A 
ENDBRANCH  16  18
ENDBRANCH  12  15
ENDBRANCH   9  10
ENDBRANCH   8   9
ENDBRANCH   5   8
BRANCH   1  21
ATOM     21  O   UNL d   1      30.357  16.174 -23.926  0.00  0.00    -0.268 OA
BRANCH  21  22
ATOM     22  C   UNL d   1      29.641  16.560 -24.081  0.00  0.00     0.305 C 
ATOM     23  O   UNL d   1      29.633  17.263 -24.512  0.00  0.00    -0.259 OA
BRANCH  22  24
ATOM     24  C   UNL d   1      28.924  16.236 -23.800  0.00  0.00     0.118 A 
ATOM     25  C   UNL d   1      28.677  16.365 -23.017  0.00  0.00     0.147 A 
ATOM     26  F   UNL d   1      29.153  16.825 -22.507  0.00  0.00    -0.204 F 
ATOM     27  C   UNL d   1      27.979  16.053 -22.734  0.00  0.00     0.030 A 
ATOM     28  C   UNL d   1      27.510  15.600 -23.237  0.00  0.00     0.005 A 
ATOM     29  C   UNL d   1      27.735  15.455 -24.026  0.00  0.00     0.030 A 
ATOM     30  C   UNL d   1      28.453  15.782 -24.304  0.00  0.00     0.147 A 
ATOM     31  F   UNL d   1      28.699  15.650 -25.090  0.00  0.00    -0.204 F 
ENDBRANCH  22  24
ENDBRANCH  21  22
ENDBRANCH   1  21
TORSDOF 8
ENDMDL
