MODEL 1
REMARK VINA RESULT:     -10.8      0.000      0.000
REMARK  4 active torsions:
REMARK  status: ('A' for Active; 'I' for Inactive)
REMARK    1  A    between atoms: N_7  and  C_1 
REMARK    2  A    between atoms: C_9  and  N_3 
REMARK       I    between atoms: C_11  and  N_7 
REMARK    3  A    between atoms: C_15  and  C_11 
REMARK    4  A    between atoms: C_17  and  C_15 
ROOT
ATOM      1  C   UNL d   1      52.615  33.251  53.104  0.00  0.00     0.169 A 
ATOM      2  C   UNL d   1      51.886  33.588  52.883  0.00  0.00     0.065 A 
ATOM      3  N   UNL d   1      52.966  33.739  53.674  0.00  0.00    -0.212 N 
ATOM      4  N   UNL d   1      52.456  34.378  53.806  0.00  0.00    -0.163 NA
ATOM      5  C   UNL d   1      51.792  34.284  53.318  0.00  0.00     0.114 A 
ATOM      6  S   UNL d   1      50.716  34.141  52.535  0.00  0.00     0.091 S 
ATOM      7  C   UNL d   1      51.068  34.629  53.105  0.00  0.00     0.090 A 
ATOM      8  C   UNL d   1      51.225  33.498  52.400  0.00  0.00     0.073 A 
ATOM      9  O   UNL d   1      49.986  34.269  52.164  0.00  0.00    -0.247 OA
ENDROOT
BRANCH   1  10
ATOM     10  N   UNL d   1      52.930  32.546  52.802  0.00  0.00    -0.189 NA
ATOM     11  C   UNL d   1      52.540  31.833  52.915  0.00  0.00     0.281 C 
ATOM     12  O   UNL d   1      51.819  31.812  53.337  0.00  0.00    -0.265 OA
BRANCH  11  13
ATOM     13  C   UNL d   1      52.852  31.130  52.616  0.00  0.00     0.063 C 
BRANCH  13  14
ATOM     14  C   UNL d   1      52.992  30.502  53.127  0.00  0.00     0.005 A 
ATOM     15  C   UNL d   1      53.766  30.305  53.327  0.00  0.00     0.003 A 
ATOM     16  C   UNL d   1      53.908  29.675  53.840  0.00  0.00     0.030 A 
ATOM     17  C   UNL d   1      53.276  29.241  54.154  0.00  0.00     0.140 A 
ATOM     18  C   UNL d   1      52.506  29.444  53.950  0.00  0.00     0.030 A 
ATOM     19  F   UNL d   1      53.418  28.610  54.667  0.00  0.00    -0.204 F 
ATOM     20  C   UNL d   1      52.361  30.073  53.437  0.00  0.00     0.003 A 
ENDBRANCH  13  14
ENDBRANCH  11  13
ENDBRANCH   1  10
BRANCH   3  21
ATOM     21  C   UNL d   1      53.693  33.613  54.045  0.00  0.00     0.085 A 
ATOM     22  C   UNL d   1      53.709  33.369  54.833  0.00  0.00     0.031 A 
ATOM     23  C   UNL d   1      54.428  33.248  55.191  0.00  0.00     0.059 A 
ATOM     24 CL   UNL d   1      54.455  33.006  55.974  0.00  0.00    -0.082 Cl
ATOM     25  C   UNL d   1      55.132  33.365  54.777  0.00  0.00     0.011 A 
ATOM     26  C   UNL d   1      55.115  33.606  53.997  0.00  0.00     0.002 A 
ATOM     27  C   UNL d   1      54.389  33.732  53.626  0.00  0.00     0.019 A 
ENDBRANCH   3  21
TORSDOF 4
ENDMDL
MODEL 2
REMARK VINA RESULT:     -10.7      2.009      3.721
REMARK  4 active torsions:
REMARK  status: ('A' for Active; 'I' for Inactive)
REMARK    1  A    between atoms: N_7  and  C_1 
REMARK    2  A    between atoms: C_9  and  N_3 
REMARK       I    between atoms: C_11  and  N_7 
REMARK    3  A    between atoms: C_15  and  C_11 
REMARK    4  A    between atoms: C_17  and  C_15 
ROOT
ATOM      1  C   UNL d   1      53.376  31.890  53.313  0.00  0.00     0.169 A 
ATOM      2  C   UNL d   1      53.089  31.112  53.235  0.00  0.00     0.065 A 
ATOM      3  N   UNL d   1      53.917  31.907  53.940  0.00  0.00    -0.212 N 
ATOM      4  N   UNL d   1      53.966  31.141  54.250  0.00  0.00    -0.163 NA
ATOM      5  C   UNL d   1      53.456  30.652  53.815  0.00  0.00     0.114 A 
ATOM      6  S   UNL d   1      52.636  29.856  53.120  0.00  0.00     0.091 S 
ATOM      7  C   UNL d   1      53.177  29.874  53.746  0.00  0.00     0.090 A 
ATOM      8  C   UNL d   1      52.584  30.624  52.806  0.00  0.00     0.073 A 
ATOM      9  O   UNL d   1      52.218  29.192  52.851  0.00  0.00    -0.247 OA
ENDROOT
BRANCH   1  10
ATOM     10  N   UNL d   1      53.153  32.535  52.841  0.00  0.00    -0.189 NA
ATOM     11  C   UNL d   1      52.387  32.826  52.867  0.00  0.00     0.281 C 
ATOM     12  O   UNL d   1      51.822  32.473  53.372  0.00  0.00    -0.265 OA
BRANCH  11  13
ATOM     13  C   UNL d   1      52.163  33.467  52.398  0.00  0.00     0.063 C 
BRANCH  13  14
ATOM     14  C   UNL d   1      51.476  33.879  52.581  0.00  0.00     0.005 A 
ATOM     15  C   UNL d   1      50.803  33.772  52.119  0.00  0.00     0.003 A 
ATOM     16  C   UNL d   1      50.112  34.184  52.301  0.00  0.00     0.030 A 
ATOM     17  C   UNL d   1      50.094  34.704  52.946  0.00  0.00     0.140 A 
ATOM     18  C   UNL d   1      50.770  34.806  53.402  0.00  0.00     0.030 A 
ATOM     19  F   UNL d   1      49.403  35.117  53.128  0.00  0.00    -0.204 F 
ATOM     20  C   UNL d   1      51.462  34.395  53.222  0.00  0.00     0.003 A 
ENDBRANCH  13  14
ENDBRANCH  11  13
ENDBRANCH   1  10
BRANCH   3  21
ATOM     21  C   UNL d   1      54.334  32.568  54.209  0.00  0.00     0.085 A 
ATOM     22  C   UNL d   1      54.157  32.883  54.951  0.00  0.00     0.031 A 
ATOM     23  C   UNL d   1      54.572  33.533  55.209  0.00  0.00     0.059 A 
ATOM     24 CL   UNL d   1      54.405  33.854  55.944  0.00  0.00    -0.082 Cl
ATOM     25  C   UNL d   1      55.159  33.874  54.740  0.00  0.00     0.011 A 
ATOM     26  C   UNL d   1      55.332  33.561  54.006  0.00  0.00     0.002 A 
ATOM     27  C   UNL d   1      54.916  32.901  53.736  0.00  0.00     0.019 A 
ENDBRANCH   3  21
TORSDOF 4
ENDMDL
MODEL 3
REMARK VINA RESULT:     -10.1      1.873      3.021
REMARK  4 active torsions:
REMARK  status: ('A' for Active; 'I' for Inactive)
REMARK    1  A    between atoms: N_7  and  C_1 
REMARK    2  A    between atoms: C_9  and  N_3 
REMARK       I    between atoms: C_11  and  N_7 
REMARK    3  A    between atoms: C_15  and  C_11 
REMARK    4  A    between atoms: C_17  and  C_15 
ROOT
ATOM      1  C   UNL d   1      53.267  33.394  53.699  0.00  0.00     0.169 A 
ATOM      2  C   UNL d   1      53.866  33.616  54.233  0.00  0.00     0.065 A 
ATOM      3  N   UNL d   1      52.648  33.941  53.758  0.00  0.00    -0.212 N 
ATOM      4  N   UNL d   1      52.863  34.502  54.329  0.00  0.00    -0.163 NA
ATOM      5  C   UNL d   1      53.613  34.300  54.621  0.00  0.00     0.114 A 
ATOM      6  S   UNL d   1      54.823  33.983  55.097  0.00  0.00     0.091 S 
ATOM      7  C   UNL d   1      54.204  34.530  55.156  0.00  0.00     0.090 A 
ATOM      8  C   UNL d   1      54.610  33.419  54.525  0.00  0.00     0.073 A 
ATOM      9  O   UNL d   1      55.530  33.994  55.530  0.00  0.00    -0.247 OA
ENDROOT
BRANCH   1  10
ATOM     10  N   UNL d   1      53.291  32.736  53.195  0.00  0.00    -0.189 NA
ATOM     11  C   UNL d   1      53.359  31.979  53.502  0.00  0.00     0.281 C 
ATOM     12  O   UNL d   1      53.405  31.864  54.329  0.00  0.00    -0.265 OA
BRANCH  11  13
ATOM     13  C   UNL d   1      53.383  31.322  53.002  0.00  0.00     0.063 C 
BRANCH  13  14
ATOM     14  C   UNL d   1      53.288  30.570  53.321  0.00  0.00     0.005 A 
ATOM     15  C   UNL d   1      52.554  30.200  53.276  0.00  0.00     0.003 A 
ATOM     16  C   UNL d   1      52.456  29.445  53.596  0.00  0.00     0.030 A 
ATOM     17  C   UNL d   1      53.093  29.061  53.960  0.00  0.00     0.140 A 
ATOM     18  C   UNL d   1      53.822  29.437  54.001  0.00  0.00     0.030 A 
ATOM     19  F   UNL d   1      52.995  28.306  54.280  0.00  0.00    -0.204 F 
ATOM     20  C   UNL d   1      53.923  30.191  53.683  0.00  0.00     0.003 A 
ENDBRANCH  13  14
ENDBRANCH  11  13
ENDBRANCH   1  10
BRANCH   3  21
ATOM     21  C   UNL d   1      51.943  33.932  53.328  0.00  0.00     0.085 A 
ATOM     22  C   UNL d   1      51.943  34.197  52.546  0.00  0.00     0.031 A 
ATOM     23  C   UNL d   1      51.245  34.185  52.130  0.00  0.00     0.059 A 
ATOM     24 CL   UNL d   1      51.233  34.446  51.353  0.00  0.00    -0.082 Cl
ATOM     25  C   UNL d   1      50.549  33.914  52.478  0.00  0.00     0.011 A 
ATOM     26  C   UNL d   1      50.551  33.652  53.252  0.00  0.00     0.002 A 
ATOM     27  C   UNL d   1      51.255  33.661  53.682  0.00  0.00     0.019 A 
ENDBRANCH   3  21
TORSDOF 4
ENDMDL
MODEL 4
REMARK VINA RESULT:      -8.4      2.395      4.176
REMARK  4 active torsions:
REMARK  status: ('A' for Active; 'I' for Inactive)
REMARK    1  A    between atoms: N_7  and  C_1 
REMARK    2  A    between atoms: C_9  and  N_3 
REMARK       I    between atoms: C_11  and  N_7 
REMARK    3  A    between atoms: C_15  and  C_11 
REMARK    4  A    between atoms: C_17  and  C_15 
ROOT
ATOM      1  C   UNL d   1      53.659  32.905  53.821  0.00  0.00     0.169 A 
ATOM      2  C   UNL d   1      54.078  33.307  54.419  0.00  0.00     0.065 A 
ATOM      3  N   UNL d   1      53.639  32.100  54.013  0.00  0.00    -0.212 N 
ATOM      4  N   UNL d   1      54.045  32.002  54.729  0.00  0.00    -0.163 NA
ATOM      5  C   UNL d   1      54.314  32.746  54.977  0.00  0.00     0.114 A 
ATOM      6  S   UNL d   1      54.753  33.942  55.387  0.00  0.00     0.091 S 
ATOM      7  C   UNL d   1      54.733  33.136  55.578  0.00  0.00     0.090 A 
ATOM      8  C   UNL d   1      54.347  34.044  54.669  0.00  0.00     0.073 A 
ATOM      9  O   UNL d   1      55.114  34.542  55.830  0.00  0.00    -0.247 OA
ENDROOT
BRANCH   1  10
ATOM     10  N   UNL d   1      53.321  33.257  53.150  0.00  0.00    -0.189 NA
ATOM     11  C   UNL d   1      52.765  33.854  53.229  0.00  0.00     0.281 C 
ATOM     12  O   UNL d   1      52.533  34.115  53.989  0.00  0.00    -0.265 OA
BRANCH  11  13
ATOM     13  C   UNL d   1      52.427  34.206  52.563  0.00  0.00     0.063 C 
BRANCH  13  14
ATOM     14  C   UNL d   1      51.609  34.249  52.502  0.00  0.00     0.005 A 
ATOM     15  C   UNL d   1      51.240  33.999  51.809  0.00  0.00     0.003 A 
ATOM     16  C   UNL d   1      50.418  34.041  51.746  0.00  0.00     0.030 A 
ATOM     17  C   UNL d   1      49.965  34.334  52.375  0.00  0.00     0.140 A 
ATOM     18  C   UNL d   1      50.341  34.581  53.063  0.00  0.00     0.030 A 
ATOM     19  F   UNL d   1      49.143  34.376  52.312  0.00  0.00    -0.204 F 
ATOM     20  C   UNL d   1      51.162  34.540  53.129  0.00  0.00     0.003 A 
ENDBRANCH  13  14
ENDBRANCH  11  13
ENDBRANCH   1  10
BRANCH   3  21
ATOM     21  C   UNL d   1      53.280  31.501  53.572  0.00  0.00     0.085 A 
ATOM     22  C   UNL d   1      52.541  31.215  53.804  0.00  0.00     0.031 A 
ATOM     23  C   UNL d   1      52.194  30.625  53.365  0.00  0.00     0.059 A 
ATOM     24 CL   UNL d   1      51.461  30.334  53.586  0.00  0.00    -0.082 Cl
ATOM     25  C   UNL d   1      52.571  30.315  52.700  0.00  0.00     0.011 A 
ATOM     26  C   UNL d   1      53.302  30.599  52.472  0.00  0.00     0.002 A 
ATOM     27  C   UNL d   1      53.662  31.198  52.912  0.00  0.00     0.019 A 
ENDBRANCH   3  21
TORSDOF 4
ENDMDL
