MODEL 1
REMARK VINA RESULT:      27.2      0.000      0.000
REMARK  3 active torsions:
REMARK  status: ('A' for Active; 'I' for Inactive)
REMARK    1  A    between atoms: C_3  and  N_1 
REMARK    2  A    between atoms: N_2  and  C_4 
REMARK    3  A    between atoms: C_7  and  C_8 
ROOT
ATOM      1  C   UNL d   1      60.651  49.614  51.552  0.00  0.00     0.146 A 
ATOM      2  C   UNL d   1      59.842  49.631  51.366  0.00  0.00     0.025 A 
ATOM      3  C   UNL d   1      59.595  49.632  50.570  0.00  0.00     0.002 A 
ATOM      4  C   UNL d   1      61.219  49.598  50.940  0.00  0.00     0.125 A 
ATOM      5  C   UNL d   1      60.159  49.616  49.962  0.00  0.00     0.002 A 
ATOM      6  C   UNL d   1      60.972  49.599  50.143  0.00  0.00     0.023 A 
ATOM      7  N   UNL d   1      62.011  49.581  51.120  0.00  0.00    -0.146 N 
ENDROOT
BRANCH   3   8
ATOM      8  C   UNL d   1      58.795  49.649  50.384  0.00  0.00     0.002 A 
ATOM      9  C   UNL d   1      58.230  49.625  50.983  0.00  0.00     0.025 A 
ATOM     10  C   UNL d   1      57.429  49.643  50.792  0.00  0.00     0.146 A 
ATOM     11  C   UNL d   1      57.191  49.684  50.005  0.00  0.00     0.125 A 
ATOM     12  C   UNL d   1      57.756  49.708  49.406  0.00  0.00     0.023 A 
ATOM     13  N   UNL d   1      56.396  49.701  49.820  0.00  0.00    -0.146 N 
ATOM     14  C   UNL d   1      58.560  49.691  49.594  0.00  0.00     0.002 A 
BRANCH  10  15
ATOM     15  N   UNL d   1      56.866  49.619  51.388  0.00  0.00    -0.112 N 
ATOM     16  O   UNL d   1      56.056  49.518  51.274  0.00  0.00    -0.532 OA
ATOM     17  O   UNL d   1      57.041  49.693  52.181  0.00  0.00    -0.532 OA
ENDBRANCH  10  15
ENDBRANCH   3   8
BRANCH   1  18
ATOM     18  N   UNL d   1      60.892  49.613  52.329  0.00  0.00    -0.112 N 
ATOM     19  O   UNL d   1      60.382  49.664  52.978  0.00  0.00    -0.532 OA
ATOM     20  O   UNL d   1      61.666  49.562  52.557  0.00  0.00    -0.532 OA
ENDBRANCH   1  18
TORSDOF 3
ENDMDL
MODEL 2
REMARK VINA RESULT:      27.3      1.339      4.153
REMARK  3 active torsions:
REMARK  status: ('A' for Active; 'I' for Inactive)
REMARK    1  A    between atoms: C_3  and  N_1 
REMARK    2  A    between atoms: N_2  and  C_4 
REMARK    3  A    between atoms: C_7  and  C_8 
ROOT
ATOM      1  C   UNL d   1      57.383  49.542  50.247  0.00  0.00     0.146 A 
ATOM      2  C   UNL d   1      58.199  49.551  50.403  0.00  0.00     0.025 A 
ATOM      3  C   UNL d   1      58.473  49.604  51.189  0.00  0.00     0.002 A 
ATOM      4  C   UNL d   1      56.837  49.587  50.877  0.00  0.00     0.125 A 
ATOM      5  C   UNL d   1      57.932  49.649  51.815  0.00  0.00     0.002 A 
ATOM      6  C   UNL d   1      57.112  49.640  51.663  0.00  0.00     0.023 A 
ATOM      7  N   UNL d   1      56.039  49.579  50.725  0.00  0.00    -0.146 N 
ENDROOT
BRANCH   3   8
ATOM      8  C   UNL d   1      59.280  49.613  51.346  0.00  0.00     0.002 A 
ATOM      9  C   UNL d   1      59.823  49.545  50.730  0.00  0.00     0.025 A 
ATOM     10  C   UNL d   1      60.631  49.554  50.892  0.00  0.00     0.146 A 
ATOM     11  C   UNL d   1      60.897  49.631  51.668  0.00  0.00     0.125 A 
ATOM     12  C   UNL d   1      60.354  49.699  52.283  0.00  0.00     0.023 A 
ATOM     13  N   UNL d   1      61.698  49.639  51.825  0.00  0.00    -0.146 N 
ATOM     14  C   UNL d   1      59.544  49.690  52.124  0.00  0.00     0.002 A 
BRANCH  10  15
ATOM     15  N   UNL d   1      61.171  49.486  50.280  0.00  0.00    -0.112 N 
ATOM     16  O   UNL d   1      61.961  49.267  50.364  0.00  0.00    -0.532 OA
ATOM     17  O   UNL d   1      60.991  49.630  49.498  0.00  0.00    -0.532 OA
ENDBRANCH  10  15
ENDBRANCH   3   8
BRANCH   1  18
ATOM     18  N   UNL d   1      57.116  49.490  49.481  0.00  0.00    -0.112 N 
ATOM     19  O   UNL d   1      56.346  49.276  49.266  0.00  0.00    -0.532 OA
ATOM     20  O   UNL d   1      57.577  49.644  48.834  0.00  0.00    -0.532 OA
ENDBRANCH   1  18
TORSDOF 3
ENDMDL
MODEL 3
REMARK VINA RESULT:      30.1      0.958      4.016
REMARK  3 active torsions:
REMARK  status: ('A' for Active; 'I' for Inactive)
REMARK    1  A    between atoms: C_3  and  N_1 
REMARK    2  A    between atoms: N_2  and  C_4 
REMARK    3  A    between atoms: C_7  and  C_8 
ROOT
ATOM      1  C   UNL d   1      57.299  49.427  50.745  0.00  0.00     0.146 A 
ATOM      2  C   UNL d   1      58.039  49.424  51.121  0.00  0.00     0.025 A 
ATOM      3  C   UNL d   1      58.733  49.563  50.681  0.00  0.00     0.002 A 
ATOM      4  C   UNL d   1      57.249  49.568  49.923  0.00  0.00     0.125 A 
ATOM      5  C   UNL d   1      58.685  49.703  49.865  0.00  0.00     0.002 A 
ATOM      6  C   UNL d   1      57.944  49.706  49.482  0.00  0.00     0.023 A 
ATOM      7  N   UNL d   1      56.526  49.570  49.554  0.00  0.00    -0.146 N 
ENDROOT
BRANCH   3   8
ATOM      8  C   UNL d   1      59.466  49.560  51.052  0.00  0.00     0.002 A 
ATOM      9  C   UNL d   1      60.151  49.413  50.617  0.00  0.00     0.025 A 
ATOM     10  C   UNL d   1      60.883  49.412  50.994  0.00  0.00     0.146 A 
ATOM     11  C   UNL d   1      60.934  49.558  51.802  0.00  0.00     0.125 A 
ATOM     12  C   UNL d   1      60.250  49.706  52.237  0.00  0.00     0.023 A 
ATOM     13  N   UNL d   1      61.662  49.556  52.172  0.00  0.00    -0.146 N 
ATOM     14  C   UNL d   1      59.514  49.707  51.862  0.00  0.00     0.002 A 
BRANCH  10  15
ATOM     15  N   UNL d   1      61.564  49.265  50.561  0.00  0.00    -0.112 N 
ATOM     16  O   UNL d   1      61.821  49.705  49.914  0.00  0.00    -0.532 OA
ATOM     17  O   UNL d   1      62.081  48.655  50.721  0.00  0.00    -0.532 OA
ENDBRANCH  10  15
ENDBRANCH   3   8
BRANCH   1  18
ATOM     18  N   UNL d   1      56.622  49.292  51.175  0.00  0.00    -0.112 N 
ATOM     19  O   UNL d   1      56.421  49.691  51.871  0.00  0.00    -0.532 OA
ATOM     20  O   UNL d   1      56.062  48.746  50.968  0.00  0.00    -0.532 OA
ENDBRANCH   1  18
TORSDOF 3
ENDMDL
