MODEL 1
REMARK VINA RESULT:      -7.1      0.000      0.000
REMARK  4 active torsions:
REMARK  status: ('A' for Active; 'I' for Inactive)
REMARK    1  A    between atoms: S_2  and  C_1 
REMARK    2  A    between atoms: C_10  and  S_2 
REMARK    3  A    between atoms: N_7  and  C_4 
REMARK    4  A    between atoms: C_8  and  N_7 
ROOT
ATOM      1  C   UNL d   1     -48.708  13.040  22.358  0.00  0.00     0.187 A 
ATOM      2  N   UNL d   1     -48.888  13.846  22.388  0.00  0.00    -0.208 NA
ATOM      3  C   UNL d   1     -49.616  13.956  22.032  0.00  0.00     0.198 A 
ATOM      4  C   UNL d   1     -49.331  12.657  21.981  0.00  0.00     0.118 A 
ATOM      5  S   UNL d   1     -49.891  13.226  21.780  0.00  0.00    -0.035 SA
ATOM      6 CL   UNL d   1     -49.389  11.832  21.826  0.00  0.00    -0.073 Cl
ENDROOT
BRANCH   1   7
ATOM      7  S   UNL d   1     -48.058  12.608  22.625  0.00  0.00     0.228 S 
ATOM      8  O   UNL d   1     -47.620  12.866  21.975  0.00  0.00    -0.216 OA
ATOM      9  O   UNL d   1     -48.497  12.350  23.274  0.00  0.00    -0.216 OA
BRANCH   7  10
ATOM     10  C   UNL d   1     -47.408  12.176  22.892  0.00  0.00     0.089 A 
ATOM     11  C   UNL d   1     -47.519  11.552  23.428  0.00  0.00     0.011 A 
ATOM     12  C   UNL d   1     -46.863  11.116  23.698  0.00  0.00     0.001 A 
ATOM     13  C   UNL d   1     -46.101  11.306  23.429  0.00  0.00     0.000 A 
ATOM     14  C   UNL d   1     -45.995  11.926  22.896  0.00  0.00     0.001 A 
ATOM     15  C   UNL d   1     -45.452  10.875  23.696  0.00  0.00     0.000 C 
ATOM     16  C   UNL d   1     -46.651  12.362  22.627  0.00  0.00     0.011 A 
ENDBRANCH   7  10
ENDBRANCH   1   7
BRANCH   3  17
ATOM     17  N   UNL d   1     -49.999  14.687  21.947  0.00  0.00    -0.196 NA
BRANCH  17  18
ATOM     18  C   UNL d   1     -50.238  15.103  22.616  0.00  0.00     0.196 A 
ATOM     19  N   UNL d   1     -49.863  15.682  23.070  0.00  0.00    -0.219 NA
ATOM     20  C   UNL d   1     -50.377  15.897  23.677  0.00  0.00     0.108 A 
ATOM     21  C   UNL d   1     -51.064  15.454  23.601  0.00  0.00     0.059 A 
ATOM     22  S   UNL d   1     -50.980  14.965  22.948  0.00  0.00    -0.046 SA
ENDBRANCH  17  18
ENDBRANCH   3  17
TORSDOF 4
ENDMDL
MODEL 2
REMARK VINA RESULT:      -6.7      2.074      4.845
REMARK  4 active torsions:
REMARK  status: ('A' for Active; 'I' for Inactive)
REMARK    1  A    between atoms: S_2  and  C_1 
REMARK    2  A    between atoms: C_10  and  S_2 
REMARK    3  A    between atoms: N_7  and  C_4 
REMARK    4  A    between atoms: C_8  and  N_7 
ROOT
ATOM      1  C   UNL d   1     -47.432  12.465  22.942  0.00  0.00     0.187 A 
ATOM      2  N   UNL d   1     -47.197  11.698  23.140  0.00  0.00    -0.208 NA
ATOM      3  C   UNL d   1     -46.435  11.735  23.431  0.00  0.00     0.198 A 
ATOM      4  C   UNL d   1     -46.807  12.972  23.114  0.00  0.00     0.118 A 
ATOM      5  S   UNL d   1     -46.192  12.518  23.417  0.00  0.00    -0.035 SA
ATOM      6 CL   UNL d   1     -46.797  13.806  23.002  0.00  0.00    -0.073 Cl
ENDROOT
BRANCH   1   7
ATOM      7  S   UNL d   1     -48.133  12.766  22.627  0.00  0.00     0.228 S 
ATOM      8  O   UNL d   1     -48.344  13.053  23.372  0.00  0.00    -0.216 OA
ATOM      9  O   UNL d   1     -47.922  12.479  21.883  0.00  0.00    -0.216 OA
BRANCH   7  10
ATOM     10  C   UNL d   1     -48.834  13.066  22.313  0.00  0.00     0.089 A 
ATOM     11  C   UNL d   1     -49.128  13.795  22.580  0.00  0.00     0.011 A 
ATOM     12  C   UNL d   1     -49.835  14.098  22.262  0.00  0.00     0.001 A 
ATOM     13  C   UNL d   1     -50.244  13.670  21.681  0.00  0.00     0.000 A 
ATOM     14  C   UNL d   1     -49.951  12.946  21.418  0.00  0.00     0.001 A 
ATOM     15  C   UNL d   1     -50.945  13.970  21.367  0.00  0.00     0.000 C 
ATOM     16  C   UNL d   1     -49.243  12.643  21.736  0.00  0.00     0.011 A 
ENDBRANCH   7  10
ENDBRANCH   1   7
BRANCH   3  17
ATOM     17  N   UNL d   1     -45.993  11.084  23.693  0.00  0.00    -0.196 NA
BRANCH  17  18
ATOM     18  C   UNL d   1     -45.205  11.008  23.470  0.00  0.00     0.196 A 
ATOM     19  N   UNL d   1     -44.700  11.505  23.045  0.00  0.00    -0.219 NA
ATOM     20  C   UNL d   1     -43.967  11.134  22.994  0.00  0.00     0.108 A 
ATOM     21  C   UNL d   1     -44.015  10.413  23.383  0.00  0.00     0.059 A 
ATOM     22  S   UNL d   1     -44.776  10.334  23.677  0.00  0.00    -0.046 SA
ENDBRANCH  17  18
ENDBRANCH   3  17
TORSDOF 4
ENDMDL
MODEL 3
REMARK VINA RESULT:      -6.2      9.355     10.593
REMARK  4 active torsions:
REMARK  status: ('A' for Active; 'I' for Inactive)
REMARK    1  A    between atoms: S_2  and  C_1 
REMARK    2  A    between atoms: C_10  and  S_2 
REMARK    3  A    between atoms: N_7  and  C_4 
REMARK    4  A    between atoms: C_8  and  N_7 
ROOT
ATOM      1  C   UNL d   1     -39.587  14.548  18.954  0.00  0.00     0.187 A 
ATOM      2  N   UNL d   1     -39.253  14.825  19.657  0.00  0.00    -0.208 NA
ATOM      3  C   UNL d   1     -39.852  14.898  20.208  0.00  0.00     0.198 A 
ATOM      4  C   UNL d   1     -40.394  14.452  19.078  0.00  0.00     0.118 A 
ATOM      5  S   UNL d   1     -40.556  14.669  19.855  0.00  0.00    -0.035 SA
ATOM      6 CL   UNL d   1     -40.956  14.181  18.514  0.00  0.00    -0.073 Cl
ENDROOT
BRANCH   1   7
ATOM      7  S   UNL d   1     -39.258  14.372  18.218  0.00  0.00     0.228 S 
ATOM      8  O   UNL d   1     -39.256  13.570  18.411  0.00  0.00    -0.216 OA
ATOM      9  O   UNL d   1     -39.260  15.174  18.024  0.00  0.00    -0.216 OA
BRANCH   7  10
ATOM     10  C   UNL d   1     -38.929  14.196  17.482  0.00  0.00     0.089 A 
ATOM     11  C   UNL d   1     -38.544  13.470  17.365  0.00  0.00     0.011 A 
ATOM     12  C   UNL d   1     -38.212  13.292  16.622  0.00  0.00     0.001 A 
ATOM     13  C   UNL d   1     -38.269  13.841  16.002  0.00  0.00     0.000 A 
ATOM     14  C   UNL d   1     -38.652  14.561  16.121  0.00  0.00     0.001 A 
ATOM     15  C   UNL d   1     -37.941  13.665  15.267  0.00  0.00     0.000 C 
ATOM     16  C   UNL d   1     -38.984  14.739  16.864  0.00  0.00     0.011 A 
ENDBRANCH   7  10
ENDBRANCH   1   7
BRANCH   3  17
ATOM     17  N   UNL d   1     -39.752  15.161  20.989  0.00  0.00    -0.196 NA
BRANCH  17  18
ATOM     18  C   UNL d   1     -39.422  14.657  21.550  0.00  0.00     0.196 A 
ATOM     19  N   UNL d   1     -39.568  13.865  21.736  0.00  0.00    -0.219 NA
ATOM     20  C   UNL d   1     -39.065  13.655  22.353  0.00  0.00     0.108 A 
ATOM     21  C   UNL d   1     -38.610  14.310  22.549  0.00  0.00     0.059 A 
ATOM     22  S   UNL d   1     -38.829  14.928  22.056  0.00  0.00    -0.046 SA
ENDBRANCH  17  18
ENDBRANCH   3  17
TORSDOF 4
ENDMDL
MODEL 4
REMARK VINA RESULT:      -6.1      9.611     10.573
REMARK  4 active torsions:
REMARK  status: ('A' for Active; 'I' for Inactive)
REMARK    1  A    between atoms: S_2  and  C_1 
REMARK    2  A    between atoms: C_10  and  S_2 
REMARK    3  A    between atoms: N_7  and  C_4 
REMARK    4  A    between atoms: C_8  and  N_7 
ROOT
ATOM      1  C   UNL d   1     -39.866  15.200  18.957  0.00  0.00     0.187 A 
ATOM      2  N   UNL d   1     -39.562  15.609  18.306  0.00  0.00    -0.208 NA
ATOM      3  C   UNL d   1     -39.930  15.325  17.635  0.00  0.00     0.198 A 
ATOM      4  C   UNL d   1     -40.423  14.663  18.679  0.00  0.00     0.118 A 
ATOM      5  S   UNL d   1     -40.462  14.742  17.861  0.00  0.00    -0.035 SA
ATOM      6 CL   UNL d   1     -40.875  14.128  19.145  0.00  0.00    -0.073 Cl
ENDROOT
BRANCH   1   7
ATOM      7  S   UNL d   1     -39.706  15.249  19.765  0.00  0.00     0.228 S 
ATOM      8  O   UNL d   1     -40.320  15.793  19.854  0.00  0.00    -0.216 OA
ATOM      9  O   UNL d   1     -39.092  14.705  19.676  0.00  0.00    -0.216 OA
BRANCH   7  10
ATOM     10  C   UNL d   1     -39.546  15.297  20.573  0.00  0.00     0.089 A 
ATOM     11  C   UNL d   1     -39.926  15.873  21.035  0.00  0.00     0.011 A 
ATOM     12  C   UNL d   1     -39.764  15.922  21.851  0.00  0.00     0.001 A 
ATOM     13  C   UNL d   1     -39.225  15.395  22.197  0.00  0.00     0.000 A 
ATOM     14  C   UNL d   1     -38.850  14.825  21.736  0.00  0.00     0.001 A 
ATOM     15  C   UNL d   1     -39.065  15.443  23.004  0.00  0.00     0.000 C 
ATOM     16  C   UNL d   1     -39.011  14.776  20.920  0.00  0.00     0.011 A 
ENDBRANCH   7  10
ENDBRANCH   1   7
BRANCH   3  17
ATOM     17  N   UNL d   1     -39.783  15.589  16.863  0.00  0.00    -0.196 NA
BRANCH  17  18
ATOM     18  C   UNL d   1     -39.112  15.329  16.463  0.00  0.00     0.196 A 
ATOM     19  N   UNL d   1     -38.837  14.573  16.278  0.00  0.00    -0.219 NA
ATOM     20  C   UNL d   1     -38.128  14.657  15.867  0.00  0.00     0.108 A 
ATOM     21  C   UNL d   1     -37.964  15.458  15.797  0.00  0.00     0.059 A 
ATOM     22  S   UNL d   1     -38.569  15.874  16.164  0.00  0.00    -0.046 SA
ENDBRANCH  17  18
ENDBRANCH   3  17
TORSDOF 4
ENDMDL
MODEL 5
REMARK VINA RESULT:      -5.9      9.721     10.314
REMARK  4 active torsions:
REMARK  status: ('A' for Active; 'I' for Inactive)
REMARK    1  A    between atoms: S_2  and  C_1 
REMARK    2  A    between atoms: C_10  and  S_2 
REMARK    3  A    between atoms: N_7  and  C_4 
REMARK    4  A    between atoms: C_8  and  N_7 
ROOT
ATOM      1  C   UNL d   1     -38.830  14.485  19.591  0.00  0.00     0.187 A 
ATOM      2  N   UNL d   1     -39.229  14.194  18.928  0.00  0.00    -0.208 NA
ATOM      3  C   UNL d   1     -39.087  14.704  18.305  0.00  0.00     0.198 A 
ATOM      4  C   UNL d   1     -38.444  15.176  19.370  0.00  0.00     0.118 A 
ATOM      5  S   UNL d   1     -38.604  15.311  18.574  0.00  0.00    -0.035 SA
ATOM      6 CL   UNL d   1     -37.969  15.663  19.866  0.00  0.00    -0.073 Cl
ENDROOT
BRANCH   1   7
ATOM      7  S   UNL d   1     -38.771  14.208  20.366  0.00  0.00     0.228 S 
ATOM      8  O   UNL d   1     -38.278  13.597  20.110  0.00  0.00    -0.216 OA
ATOM      9  O   UNL d   1     -39.263  14.818  20.622  0.00  0.00    -0.216 OA
BRANCH   7  10
ATOM     10  C   UNL d   1     -38.711  13.930  21.141  0.00  0.00     0.089 A 
ATOM     11  C   UNL d   1     -39.283  14.147  21.702  0.00  0.00     0.011 A 
ATOM     12  C   UNL d   1     -39.223  13.867  22.484  0.00  0.00     0.001 A 
ATOM     13  C   UNL d   1     -38.591  13.373  22.699  0.00  0.00     0.000 A 
ATOM     14  C   UNL d   1     -38.025  13.160  22.139  0.00  0.00     0.001 A 
ATOM     15  C   UNL d   1     -38.532  13.096  23.472  0.00  0.00     0.000 C 
ATOM     16  C   UNL d   1     -38.085  13.440  21.357  0.00  0.00     0.011 A 
ENDBRANCH   7  10
ENDBRANCH   1   7
BRANCH   3  17
ATOM     17  N   UNL d   1     -39.387  14.613  17.537  0.00  0.00    -0.196 NA
BRANCH  17  18
ATOM     18  C   UNL d   1     -40.072  15.013  17.316  0.00  0.00     0.196 A 
ATOM     19  N   UNL d   1     -40.858  14.939  17.559  0.00  0.00    -0.219 NA
ATOM     20  C   UNL d   1     -41.302  15.492  17.141  0.00  0.00     0.108 A 
ATOM     21  C   UNL d   1     -40.798  15.906  16.643  0.00  0.00     0.059 A 
ATOM     22  S   UNL d   1     -40.039  15.612  16.750  0.00  0.00    -0.046 SA
ENDBRANCH  17  18
ENDBRANCH   3  17
TORSDOF 4
ENDMDL
MODEL 6
REMARK VINA RESULT:      -5.9      9.219     10.095
REMARK  4 active torsions:
REMARK  status: ('A' for Active; 'I' for Inactive)
REMARK    1  A    between atoms: S_2  and  C_1 
REMARK    2  A    between atoms: C_10  and  S_2 
REMARK    3  A    between atoms: N_7  and  C_4 
REMARK    4  A    between atoms: C_8  and  N_7 
ROOT
ATOM      1  C   UNL d   1     -39.831  15.303  20.495  0.00  0.00     0.187 A 
ATOM      2  N   UNL d   1     -39.125  15.067  20.853  0.00  0.00    -0.208 NA
ATOM      3  C   UNL d   1     -39.181  15.231  21.652  0.00  0.00     0.198 A 
ATOM      4  C   UNL d   1     -40.320  15.613  21.079  0.00  0.00     0.118 A 
ATOM      5  S   UNL d   1     -39.916  15.567  21.794  0.00  0.00    -0.035 SA
ATOM      6 CL   UNL d   1     -41.095  15.922  20.969  0.00  0.00    -0.073 Cl
ENDROOT
BRANCH   1   7
ATOM      7  S   UNL d   1     -40.090  15.274  19.712  0.00  0.00     0.228 S 
ATOM      8  O   UNL d   1     -40.607  14.661  19.905  0.00  0.00    -0.216 OA
ATOM      9  O   UNL d   1     -39.574  15.888  19.519  0.00  0.00    -0.216 OA
BRANCH   7  10
ATOM     10  C   UNL d   1     -40.349  15.246  18.929  0.00  0.00     0.089 A 
ATOM     11  C   UNL d   1     -40.681  15.922  18.579  0.00  0.00     0.011 A 
ATOM     12  C   UNL d   1     -40.942  15.893  17.789  0.00  0.00     0.001 A 
ATOM     13  C   UNL d   1     -40.870  15.189  17.355  0.00  0.00     0.000 A 
ATOM     14  C   UNL d   1     -40.541  14.520  17.705  0.00  0.00     0.001 A 
ATOM     15  C   UNL d   1     -41.129  15.161  16.573  0.00  0.00     0.000 C 
ATOM     16  C   UNL d   1     -40.280  14.549  18.496  0.00  0.00     0.011 A 
ENDBRANCH   7  10
ENDBRANCH   1   7
BRANCH   3  17
ATOM     17  N   UNL d   1     -38.589  15.079  22.212  0.00  0.00    -0.196 NA
BRANCH  17  18
ATOM     18  C   UNL d   1     -38.581  14.360  22.614  0.00  0.00     0.196 A 
ATOM     19  N   UNL d   1     -39.099  14.030  23.165  0.00  0.00    -0.219 NA
ATOM     20  C   UNL d   1     -38.804  13.291  23.376  0.00  0.00     0.108 A 
ATOM     21  C   UNL d   1     -38.108  13.163  22.960  0.00  0.00     0.059 A 
ATOM     22  S   UNL d   1     -37.969  13.821  22.489  0.00  0.00    -0.046 SA
ENDBRANCH  17  18
ENDBRANCH   3  17
TORSDOF 4
ENDMDL
MODEL 7
REMARK VINA RESULT:      -5.6      9.696     10.735
REMARK  4 active torsions:
REMARK  status: ('A' for Active; 'I' for Inactive)
REMARK    1  A    between atoms: S_2  and  C_1 
REMARK    2  A    between atoms: C_10  and  S_2 
REMARK    3  A    between atoms: N_7  and  C_4 
REMARK    4  A    between atoms: C_8  and  N_7 
ROOT
ATOM      1  C   UNL d   1     -39.050  14.343  18.867  0.00  0.00     0.187 A 
ATOM      2  N   UNL d   1     -38.835  14.593  19.624  0.00  0.00    -0.208 NA
ATOM      3  C   UNL d   1     -38.294  14.058  19.923  0.00  0.00     0.198 A 
ATOM      4  C   UNL d   1     -38.637  13.650  18.703  0.00  0.00     0.118 A 
ATOM      5  S   UNL d   1     -38.170  13.476  19.358  0.00  0.00    -0.035 SA
ATOM      6 CL   UNL d   1     -38.682  13.198  17.995  0.00  0.00    -0.073 Cl
ENDROOT
BRANCH   1   7
ATOM      7  S   UNL d   1     -39.568  14.657  18.306  0.00  0.00     0.228 S 
ATOM      8  O   UNL d   1     -40.084  14.024  18.429  0.00  0.00    -0.216 OA
ATOM      9  O   UNL d   1     -39.053  15.289  18.184  0.00  0.00    -0.216 OA
BRANCH   7  10
ATOM     10  C   UNL d   1     -40.086  14.971  17.746  0.00  0.00     0.089 A 
ATOM     11  C   UNL d   1     -39.792  15.444  17.132  0.00  0.00     0.011 A 
ATOM     12  C   UNL d   1     -40.315  15.761  16.566  0.00  0.00     0.001 A 
ATOM     13  C   UNL d   1     -41.128  15.602  16.620  0.00  0.00     0.000 A 
ATOM     14  C   UNL d   1     -41.417  15.131  17.231  0.00  0.00     0.001 A 
ATOM     15  C   UNL d   1     -41.645  15.916  16.061  0.00  0.00     0.000 C 
ATOM     16  C   UNL d   1     -40.894  14.814  17.797  0.00  0.00     0.011 A 
ENDBRANCH   7  10
ENDBRANCH   1   7
BRANCH   3  17
ATOM     17  N   UNL d   1     -37.940  14.106  20.671  0.00  0.00    -0.196 NA
BRANCH  17  18
ATOM     18  C   UNL d   1     -38.383  13.945  21.345  0.00  0.00     0.196 A 
ATOM     19  N   UNL d   1     -38.904  13.332  21.530  0.00  0.00    -0.219 NA
ATOM     20  C   UNL d   1     -39.186  13.463  22.292  0.00  0.00     0.108 A 
ATOM     21  C   UNL d   1     -38.843  14.152  22.579  0.00  0.00     0.059 A 
ATOM     22  S   UNL d   1     -38.349  14.450  21.996  0.00  0.00    -0.046 SA
ENDBRANCH  17  18
ENDBRANCH   3  17
TORSDOF 4
ENDMDL
