MODEL 1
REMARK VINA RESULT:      44.7      0.000      0.000
REMARK  3 active torsions:
REMARK  status: ('A' for Active; 'I' for Inactive)
REMARK    1  A    between atoms: C_10  and  C_4 
REMARK    2  A    between atoms: C_11  and  C_7 
REMARK    3  A    between atoms: C_12  and  C_10 
ROOT
ATOM      1  N   UNL d   1      46.303 -16.675  43.469  0.00  0.00    -0.186 N 
ATOM      2  N   UNL d   1      46.278 -17.423  43.843  0.00  0.00    -0.162 NA
ATOM      3  C   UNL d   1      46.454 -16.635  42.650  0.00  0.00     0.217 A 
ATOM      4  C   UNL d   1      46.205 -15.914  43.746  0.00  0.00     0.187 A 
ATOM      5  N   UNL d   1      46.291 -15.394  43.116  0.00  0.00    -0.127 NA
ATOM      6  N   UNL d   1      46.443 -15.838  42.449  0.00  0.00    -0.120 NA
ATOM      7  C   UNL d   1      46.401 -18.109  43.408  0.00  0.00     0.108 A 
ATOM      8  S   UNL d   1      46.574 -17.332  42.233  0.00  0.00    -0.045 SA
ATOM      9  C   UNL d   1      46.552 -18.070  42.588  0.00  0.00     0.059 A 
ENDROOT
BRANCH   4  10
ATOM     10  C   UNL d   1      46.047 -15.683  44.512  0.00  0.00     0.041 C 
BRANCH  10  11
ATOM     11  C   UNL d   1      45.738 -14.947  44.654  0.00  0.00     0.003 A 
ATOM     12  C   UNL d   1      46.221 -14.282  44.653  0.00  0.00     0.000 A 
ATOM     13  C   UNL d   1      45.916 -13.529  44.797  0.00  0.00     0.000 A 
ATOM     14  C   UNL d   1      45.119 -13.448  44.942  0.00  0.00     0.000 A 
ATOM     15  C   UNL d   1      44.633 -14.109  44.945  0.00  0.00     0.000 A 
ATOM     16  C   UNL d   1      44.932 -14.853  44.803  0.00  0.00     0.000 A 
ENDBRANCH  10  11
ENDBRANCH   4  10
BRANCH   7  17
ATOM     17  C   UNL d   1      46.375 -18.846  43.787  0.00  0.00     0.020 A 
ATOM     18  C   UNL d   1      46.118 -19.518  43.372  0.00  0.00     0.002 A 
ATOM     19  C   UNL d   1      46.088 -20.263  43.742  0.00  0.00     0.000 A 
ATOM     20  C   UNL d   1      46.320 -20.330  44.543  0.00  0.00     0.000 A 
ATOM     21  C   UNL d   1      46.574 -19.671  44.955  0.00  0.00     0.000 A 
ATOM     22  C   UNL d   1      46.604 -18.923  44.582  0.00  0.00     0.002 A 
ENDBRANCH   7  17
TORSDOF 3
ENDMDL
