MODEL 1
REMARK VINA RESULT:      16.1      0.000      0.000
REMARK  3 active torsions:
REMARK  status: ('A' for Active; 'I' for Inactive)
REMARK    1  A    between atoms: C_7  and  C_1 
REMARK    2  A    between atoms: C_6  and  C_3 
REMARK    3  A    between atoms: O_15  and  C_7 
ROOT
ATOM      1  C   UNL d   1      13.292  12.342  -4.086  0.00  0.00     0.167 A 
ATOM      2  C   UNL d   1      13.866  12.588  -3.542  0.00  0.00     0.047 A 
ATOM      3  C   UNL d   1      13.690  12.241  -2.815  0.00  0.00     0.105 A 
ATOM      4  N   UNL d   1      13.007  11.780  -2.907  0.00  0.00    -0.148 NA
ATOM      5  N   UNL d   1      12.769  11.848  -3.693  0.00  0.00    -0.143 NA
ENDROOT
BRANCH   3   6
ATOM      6  C   UNL d   1      14.120  12.337  -2.113  0.00  0.00     0.030 A 
ATOM      7  C   UNL d   1      13.766  12.166  -1.386  0.00  0.00     0.060 A 
ATOM      8  C   UNL d   1      14.189  12.259  -0.688  0.00  0.00     0.023 A 
ATOM      9 CL   UNL d   1      12.984  11.901  -1.367  0.00  0.00    -0.082 Cl
ATOM     10  C   UNL d   1      14.978  12.527  -0.713  0.00  0.00     0.059 A 
ATOM     11  C   UNL d   1      15.326  12.696  -1.446  0.00  0.00     0.011 A 
ATOM     12 CL   UNL d   1      15.401  12.620  -0.014  0.00  0.00    -0.082 Cl
ATOM     13  C   UNL d   1      14.898  12.601  -2.143  0.00  0.00     0.003 A 
ENDBRANCH   3   6
BRANCH   1  14
ATOM     14  C   UNL d   1      13.257  12.558  -4.881  0.00  0.00     0.316 C 
ATOM     15  O   UNL d   1      12.833  13.230  -5.101  0.00  0.00    -0.257 OA
BRANCH  14  16
ATOM     16  O   UNL d   1      13.644  12.105  -5.453  0.00  0.00    -0.294 OA
ATOM     17  C   UNL d   1      14.019  12.467  -6.089  0.00  0.00     0.185 C 
ENDBRANCH  14  16
ENDBRANCH   1  14
TORSDOF 3
ENDMDL
MODEL 2
REMARK VINA RESULT:      18.3      2.441      3.880
REMARK  3 active torsions:
REMARK  status: ('A' for Active; 'I' for Inactive)
REMARK    1  A    between atoms: C_7  and  C_1 
REMARK    2  A    between atoms: C_6  and  C_3 
REMARK    3  A    between atoms: O_15  and  C_7 
ROOT
ATOM      1  C   UNL d   1      14.593  13.145  -1.232  0.00  0.00     0.167 A 
ATOM      2  C   UNL d   1      14.335  13.326  -1.997  0.00  0.00     0.047 A 
ATOM      3  C   UNL d   1      14.036  12.635  -2.334  0.00  0.00     0.105 A 
ATOM      4  N   UNL d   1      14.110  12.024  -1.777  0.00  0.00    -0.148 NA
ATOM      5  N   UNL d   1      14.454  12.347  -1.101  0.00  0.00    -0.143 NA
ENDROOT
BRANCH   3   6
ATOM      6  C   UNL d   1      13.718  12.562  -3.096  0.00  0.00     0.030 A 
ATOM      7  C   UNL d   1      13.746  13.203  -3.616  0.00  0.00     0.060 A 
ATOM      8  C   UNL d   1      13.432  13.136  -4.372  0.00  0.00     0.023 A 
ATOM      9 CL   UNL d   1      14.091  13.913  -3.370  0.00  0.00    -0.082 Cl
ATOM     10  C   UNL d   1      13.085  12.418  -4.615  0.00  0.00     0.059 A 
ATOM     11  C   UNL d   1      13.061  11.779  -4.087  0.00  0.00     0.011 A 
ATOM     12 CL   UNL d   1      12.771  12.351  -5.372  0.00  0.00    -0.082 Cl
ATOM     13  C   UNL d   1      13.378  11.852  -3.330  0.00  0.00     0.003 A 
ENDBRANCH   3   6
BRANCH   1  14
ATOM     14  C   UNL d   1      14.930  13.675  -0.698  0.00  0.00     0.316 C 
ATOM     15  O   UNL d   1      15.582  13.442  -0.249  0.00  0.00    -0.257 OA
BRANCH  14  16
ATOM     16  O   UNL d   1      14.619  14.436  -0.613  0.00  0.00    -0.294 OA
ATOM     17  C   UNL d   1      14.887  14.932  -0.016  0.00  0.00     0.185 C 
ENDBRANCH  14  16
ENDBRANCH   1  14
TORSDOF 3
ENDMDL
