MODEL 1
REMARK VINA RESULT:      37.5      0.000      0.000
REMARK  6 active torsions:
REMARK  status: ('A' for Active; 'I' for Inactive)
REMARK    1  A    between atoms: N_4  and  C_1 
REMARK       I    between atoms: C_7  and  N_4 
REMARK    2  A    between atoms: C_8  and  C_7 
REMARK    3  A    between atoms: C_11  and  C_8 
REMARK    4  A    between atoms: C_10  and  O_17 
REMARK    5  A    between atoms: O_17  and  C_11 
REMARK    6  A    between atoms: O_18  and  C_12 
ROOT
ATOM      1  C   UNL d   1     -49.168  27.607  33.966  0.00  0.00     0.089 C 
ENDROOT
BRANCH   1   2
ATOM      2  C   UNL d   1     -48.825  28.090  34.542  0.00  0.00     0.283 C 
ATOM      3  N   UNL d   1     -48.292  28.678  34.313  0.00  0.00    -0.186 NA
ATOM      4  O   UNL d   1     -49.010  27.990  35.332  0.00  0.00    -0.265 OA
BRANCH   3   5
ATOM      5  C   UNL d   1     -47.950  29.159  34.878  0.00  0.00     0.194 A 
ATOM      6  N   UNL d   1     -47.469  28.911  35.505  0.00  0.00    -0.107 NA
ATOM      7  O   UNL d   1     -47.251  29.578  35.931  0.00  0.00    -0.210 OA
ATOM      8  C   UNL d   1     -47.587  30.229  35.580  0.00  0.00     0.128 A 
ATOM      9  C   UNL d   1     -48.025  29.975  34.922  0.00  0.00     0.068 A 
ATOM     10  C   UNL d   1     -47.512  31.010  35.826  0.00  0.00     0.029 C 
ENDBRANCH   3   5
ENDBRANCH   1   2
BRANCH   1  11
ATOM     11  C   UNL d   1     -49.950  27.375  34.049  0.00  0.00     0.128 C 
BRANCH  11  12
ATOM     12  O   UNL d   1     -50.141  27.003  33.335  0.00  0.00    -0.305 OA
BRANCH  12  13
ATOM     13  C   UNL d   1     -50.650  26.358  33.328  0.00  0.00     0.100 A 
ATOM     14  C   UNL d   1     -51.468  26.477  33.331  0.00  0.00     0.027 A 
ATOM     15  C   UNL d   1     -51.985  25.835  33.324  0.00  0.00     0.026 A 
ATOM     16  C   UNL d   1     -51.672  25.071  33.315  0.00  0.00     0.094 A 
ATOM     17  C   UNL d   1     -50.854  24.952  33.312  0.00  0.00     0.026 A 
ATOM     18  C   UNL d   1     -50.345  25.597  33.319  0.00  0.00     0.027 A 
BRANCH  16  19
ATOM     19  O   UNL d   1     -52.190  24.417  33.308  0.00  0.00    -0.328 OA
ATOM     20  C   UNL d   1     -51.884  23.657  33.407  0.00  0.00     0.181 C 
ENDBRANCH  16  19
ENDBRANCH  12  13
ENDBRANCH  11  12
ENDBRANCH   1  11
TORSDOF 6
ENDMDL
