MODEL 1
REMARK VINA RESULT:      49.0      0.000      0.000
REMARK  4 active torsions:
REMARK  status: ('A' for Active; 'I' for Inactive)
REMARK    1  A    between atoms: C_6  and  S_1 
REMARK    2  A    between atoms: N_8  and  S_1 
REMARK    3  A    between atoms: C_17  and  N_8 
REMARK    4  A    between atoms: N_16  and  C_15 
ROOT
ATOM      1  N   UNL d   1      14.506  12.026  -0.648  0.00  0.00    -0.273 N 
ATOM      2  C   UNL d   1      15.340  12.123  -0.694  0.00  0.00     0.265 A 
ATOM      3  C   UNL d   1      14.197  12.155  -1.402  0.00  0.00     0.067 A 
ATOM      4  C   UNL d   1      14.699  12.339  -2.020  0.00  0.00     0.022 A 
ATOM      5  C   UNL d   1      13.577  12.411  -2.902  0.00  0.00     0.105 A 
ATOM      6  C   UNL d   1      13.384  12.098  -1.530  0.00  0.00     0.017 A 
ATOM      7  C   UNL d   1      15.485  12.359  -1.729  0.00  0.00     0.063 A 
ATOM      8  C   UNL d   1      14.390  12.468  -2.775  0.00  0.00     0.015 A 
ATOM      9  C   UNL d   1      13.073  12.225  -2.275  0.00  0.00     0.014 A 
ATOM     10  O   UNL d   1      15.802  12.026  -0.014  0.00  0.00    -0.267 OA
ATOM     11  C   UNL d   1      14.003  11.840  -0.021  0.00  0.00     0.083 A 
ATOM     12  C   UNL d   1      12.894  11.912  -0.901  0.00  0.00     0.003 A 
ATOM     13  C   UNL d   1      13.190  11.782  -0.148  0.00  0.00     0.019 A 
ENDROOT
BRANCH   5  14
ATOM     14  S   UNL d   1      13.268  12.542  -3.665  0.00  0.00     0.285 S 
ATOM     15  O   UNL d   1      13.605  13.296  -3.656  0.00  0.00    -0.198 OA
ATOM     16  O   UNL d   1      12.934  11.779  -3.660  0.00  0.00    -0.198 OA
BRANCH  14  17
ATOM     17  N   UNL d   1      12.963  12.671  -4.419  0.00  0.00    -0.158 NA
BRANCH  17  18
ATOM     18  C   UNL d   1      13.107  13.389  -4.800  0.00  0.00     0.094 A 
ATOM     19  C   UNL d   1      12.771  14.081  -4.516  0.00  0.00     0.021 A 
ATOM     20  C   UNL d   1      12.914  14.799  -4.897  0.00  0.00     0.019 A 
ATOM     21  C   UNL d   1      13.394  14.823  -5.564  0.00  0.00     0.064 A 
ATOM     22  C   UNL d   1      13.733  14.127  -5.851  0.00  0.00     0.019 A 
ATOM     23  C   UNL d   1      13.589  13.410  -5.469  0.00  0.00     0.021 A 
BRANCH  21  24
ATOM     24  N   UNL d   1      13.538  15.540  -5.945  0.00  0.00    -0.301 N 
ATOM     25  C   UNL d   1      14.292  15.709  -6.235  0.00  0.00     0.100 C 
ATOM     26  C   UNL d   1      12.927  16.088  -6.037  0.00  0.00     0.100 C 
ENDBRANCH  21  24
ENDBRANCH  17  18
ENDBRANCH  14  17
ENDBRANCH   5  14
TORSDOF 4
ENDMDL
