MODEL 1
REMARK VINA RESULT:      -4.5      0.000      0.000
REMARK  5 active torsions:
REMARK  status: ('A' for Active; 'I' for Inactive)
REMARK    1  A    between atoms: N_2  and  C_1 
REMARK    2  A    between atoms: C_5  and  C_1 
REMARK    3  A    between atoms: O_4  and  N_2 
REMARK    4  A    between atoms: C_3  and  O_4 
REMARK    5  A    between atoms: C_6  and  C_3 
ROOT
ATOM      1  O   UNL d   1      57.538  -0.380  30.738  0.00  0.00    -0.168 OA
ENDROOT
BRANCH   1   2
ATOM      2  C   UNL d   1      57.794   0.056  29.978  0.00  0.00     0.319 C 
ATOM      3  O   UNL d   1      57.262   0.678  29.608  0.00  0.00    -0.257 OA
BRANCH   2   4
ATOM      4  C   UNL d   1      58.523  -0.121  29.627  0.00  0.00     0.065 A 
ATOM      5  C   UNL d   1      58.591  -0.812  29.168  0.00  0.00     0.005 A 
ATOM      6  C   UNL d   1      59.327  -0.980  28.819  0.00  0.00     0.000 A 
ATOM      7  C   UNL d   1      59.974  -0.482  28.922  0.00  0.00     0.000 A 
ATOM      8  C   UNL d   1      59.874   0.195  29.382  0.00  0.00     0.000 A 
ATOM      9  C   UNL d   1      60.697  -0.664  28.568  0.00  0.00     0.000 C 
ATOM     10  C   UNL d   1      59.168   0.376  29.729  0.00  0.00     0.005 A 
ENDBRANCH   2   4
ENDBRANCH   1   2
BRANCH   1  11
ATOM     11  N   UNL d   1      56.991  -0.054  31.247  0.00  0.00    -0.100 NA
BRANCH  11  12
ATOM     12  C   UNL d   1      56.710  -0.469  31.897  0.00  0.00     0.228 C 
ATOM     13  N   UNL d   1      56.655  -1.290  31.855  0.00  0.00    -0.123 N 
BRANCH  12  14
ATOM     14  C   UNL d   1      56.483  -0.087  32.583  0.00  0.00     0.121 A 
ATOM     15  N   UNL d   1      57.039   0.119  33.142  0.00  0.00    -0.241 NA
ATOM     16  C   UNL d   1      56.802   0.508  33.841  0.00  0.00     0.099 A 
ATOM     17  C   UNL d   1      56.002   0.682  33.961  0.00  0.00     0.021 A 
ATOM     18  C   UNL d   1      55.437   0.471  33.390  0.00  0.00     0.003 A 
ATOM     19  C   UNL d   1      55.684   0.086  32.703  0.00  0.00     0.022 A 
ENDBRANCH  12  14
ENDBRANCH  11  12
ENDBRANCH   1  11
TORSDOF 5
ENDMDL
MODEL 2
REMARK VINA RESULT:      -3.6      1.553      4.653
REMARK  5 active torsions:
REMARK  status: ('A' for Active; 'I' for Inactive)
REMARK    1  A    between atoms: N_2  and  C_1 
REMARK    2  A    between atoms: C_5  and  C_1 
REMARK    3  A    between atoms: O_4  and  N_2 
REMARK    4  A    between atoms: C_3  and  O_4 
REMARK    5  A    between atoms: C_6  and  C_3 
ROOT
ATOM      1  O   UNL d   1      58.075  -0.483  30.595  0.00  0.00    -0.168 OA
ENDROOT
BRANCH   1   2
ATOM      2  C   UNL d   1      57.365   0.040  30.829  0.00  0.00     0.319 C 
ATOM      3  O   UNL d   1      57.050   0.661  30.262  0.00  0.00    -0.257 OA
BRANCH   2   4
ATOM      4  C   UNL d   1      57.006  -0.058  31.569  0.00  0.00     0.065 A 
ATOM      5  C   UNL d   1      56.637  -0.783  31.744  0.00  0.00     0.005 A 
ATOM      6  C   UNL d   1      56.280  -0.871  32.490  0.00  0.00     0.000 A 
ATOM      7  C   UNL d   1      56.289  -0.263  33.044  0.00  0.00     0.000 A 
ATOM      8  C   UNL d   1      56.663   0.443  32.841  0.00  0.00     0.000 A 
ATOM      9  C   UNL d   1      55.930  -0.367  33.780  0.00  0.00     0.000 C 
ATOM     10  C   UNL d   1      57.015   0.549  32.122  0.00  0.00     0.005 A 
ENDBRANCH   2   4
ENDBRANCH   1   2
BRANCH   1  11
ATOM     11  N   UNL d   1      58.192  -0.715  29.822  0.00  0.00    -0.100 NA
BRANCH  11  12
ATOM     12  C   UNL d   1      58.927  -0.962  29.555  0.00  0.00     0.228 C 
ATOM     13  N   UNL d   1      59.576  -0.463  29.648  0.00  0.00    -0.123 N 
BRANCH  12  14
ATOM     14  C   UNL d   1      59.031  -1.690  29.199  0.00  0.00     0.121 A 
ATOM     15  N   UNL d   1      58.408  -2.056  28.821  0.00  0.00    -0.241 NA
ATOM     16  C   UNL d   1      58.520  -2.800  28.459  0.00  0.00     0.099 A 
ATOM     17  C   UNL d   1      59.264  -3.160  28.487  0.00  0.00     0.021 A 
ATOM     18  C   UNL d   1      59.897  -2.786  28.873  0.00  0.00     0.003 A 
ATOM     19  C   UNL d   1      59.774  -2.051  29.227  0.00  0.00     0.022 A 
ENDBRANCH  12  14
ENDBRANCH  11  12
ENDBRANCH   1  11
TORSDOF 5
ENDMDL
MODEL 3
REMARK VINA RESULT:      -2.9      1.374      2.192
REMARK  5 active torsions:
REMARK  status: ('A' for Active; 'I' for Inactive)
REMARK    1  A    between atoms: N_2  and  C_1 
REMARK    2  A    between atoms: C_5  and  C_1 
REMARK    3  A    between atoms: O_4  and  N_2 
REMARK    4  A    between atoms: C_3  and  O_4 
REMARK    5  A    between atoms: C_6  and  C_3 
ROOT
ATOM      1  O   UNL d   1      56.801  -0.044  32.454  0.00  0.00    -0.168 OA
ENDROOT
BRANCH   1   2
ATOM      2  C   UNL d   1      56.968  -0.624  31.770  0.00  0.00     0.319 C 
ATOM      3  O   UNL d   1      56.656  -1.465  31.798  0.00  0.00    -0.257 OA
BRANCH   2   4
ATOM      4  C   UNL d   1      57.412  -0.373  31.116  0.00  0.00     0.065 A 
ATOM      5  C   UNL d   1      57.881  -0.929  30.712  0.00  0.00     0.005 A 
ATOM      6  C   UNL d   1      58.323  -0.668  30.058  0.00  0.00     0.000 A 
ATOM      7  C   UNL d   1      58.300   0.117  29.811  0.00  0.00     0.000 A 
ATOM      8  C   UNL d   1      57.825   0.643  30.232  0.00  0.00     0.000 A 
ATOM      9  C   UNL d   1      58.744   0.359  29.159  0.00  0.00     0.000 C 
ATOM     10  C   UNL d   1      57.389   0.410  30.870  0.00  0.00     0.005 A 
ENDBRANCH   2   4
ENDBRANCH   1   2
BRANCH   1  11
ATOM     11  N   UNL d   1      56.320  -0.255  33.078  0.00  0.00    -0.100 NA
BRANCH  11  12
ATOM     12  C   UNL d   1      56.226   0.232  33.731  0.00  0.00     0.228 C 
ATOM     13  N   UNL d   1      56.890   0.589  34.064  0.00  0.00    -0.123 N 
BRANCH  12  14
ATOM     14  C   UNL d   1      55.491   0.372  34.059  0.00  0.00     0.121 A 
ATOM     15  N   UNL d   1      54.825   0.375  33.590  0.00  0.00    -0.241 NA
ATOM     16  C   UNL d   1      54.077   0.518  33.930  0.00  0.00     0.099 A 
ATOM     17  C   UNL d   1      54.017   0.656  34.744  0.00  0.00     0.021 A 
ATOM     18  C   UNL d   1      54.697   0.652  35.220  0.00  0.00     0.003 A 
ATOM     19  C   UNL d   1      55.432   0.509  34.872  0.00  0.00     0.022 A 
ENDBRANCH  12  14
ENDBRANCH  11  12
ENDBRANCH   1  11
TORSDOF 5
ENDMDL
MODEL 4
REMARK VINA RESULT:      -1.8      9.621     10.583
REMARK  5 active torsions:
REMARK  status: ('A' for Active; 'I' for Inactive)
REMARK    1  A    between atoms: N_2  and  C_1 
REMARK    2  A    between atoms: C_5  and  C_1 
REMARK    3  A    between atoms: O_4  and  N_2 
REMARK    4  A    between atoms: C_3  and  O_4 
REMARK    5  A    between atoms: C_6  and  C_3 
ROOT
ATOM      1  O   UNL d   1      59.723  -9.451  32.765  0.00  0.00    -0.168 OA
ENDROOT
BRANCH   1   2
ATOM      2  C   UNL d   1      59.302  -9.472  33.574  0.00  0.00     0.319 C 
ATOM      3  O   UNL d   1      58.443  -9.728  33.635  0.00  0.00    -0.257 OA
BRANCH   2   4
ATOM      4  C   UNL d   1      59.714  -9.254  34.259  0.00  0.00     0.065 A 
ATOM      5  C   UNL d   1      60.199  -9.817  34.633  0.00  0.00     0.005 A 
ATOM      6  C   UNL d   1      60.608  -9.588  35.320  0.00  0.00     0.000 A 
ATOM      7  C   UNL d   1      60.538  -8.828  35.627  0.00  0.00     0.000 A 
ATOM      8  C   UNL d   1      60.050  -8.293  35.233  0.00  0.00     0.000 A 
ATOM      9  C   UNL d   1      60.951  -8.617  36.309  0.00  0.00     0.000 C 
ATOM     10  C   UNL d   1      59.645  -8.495  34.565  0.00  0.00     0.005 A 
ENDBRANCH   2   4
ENDBRANCH   1   2
BRANCH   1  11
ATOM     11  N   UNL d   1      59.351  -9.715  32.089  0.00  0.00    -0.100 NA
BRANCH  11  12
ATOM     12  C   UNL d   1      59.750  -9.772  31.375  0.00  0.00     0.228 C 
ATOM     13  N   UNL d   1      60.572  -9.818  31.377  0.00  0.00    -0.123 N 
BRANCH  12  14
ATOM     14  C   UNL d   1      59.351  -9.787  30.662  0.00  0.00     0.121 A 
ATOM     15  N   UNL d   1      58.536  -9.788  30.645  0.00  0.00    -0.241 NA
ATOM     16  C   UNL d   1      58.135  -9.802  29.913  0.00  0.00     0.099 A 
ATOM     17  C   UNL d   1      58.569  -9.815  29.209  0.00  0.00     0.021 A 
ATOM     18  C   UNL d   1      59.399  -9.814  29.228  0.00  0.00     0.003 A 
ATOM     19  C   UNL d   1      59.785  -9.800  29.957  0.00  0.00     0.022 A 
ENDBRANCH  12  14
ENDBRANCH  11  12
ENDBRANCH   1  11
TORSDOF 5
ENDMDL
