MODEL 1
REMARK VINA RESULT:      -8.7      0.000      0.000
REMARK  3 active torsions:
REMARK  status: ('A' for Active; 'I' for Inactive)
REMARK    1  A    between atoms: C_6  and  C_1 
REMARK    2  A    between atoms: C_5  and  N_2 
REMARK    3  A    between atoms: N_4  and  C_6 
ROOT
ATOM      1  N   UNL d   1     -46.087  11.471  23.397  0.00  0.00    -0.299 N 
ATOM      2  N   UNL d   1     -47.538  12.161  23.441  0.00  0.00    -0.300 N 
ATOM      3  C   UNL d   1     -46.172  12.242  23.163  0.00  0.00     0.100 A 
ATOM      4  C   UNL d   1     -46.733  11.031  23.659  0.00  0.00     0.100 A 
ATOM      5  C   UNL d   1     -46.898  12.587  23.185  0.00  0.00     0.100 A 
ATOM      6  C   UNL d   1     -47.459  11.376  23.681  0.00  0.00     0.100 A 
ENDROOT
BRANCH   2   7
ATOM      7  C   UNL d   1     -48.304  12.510  23.470  0.00  0.00     0.084 C 
BRANCH   7   8
ATOM      8  C   UNL d   1     -48.739  12.678  22.765  0.00  0.00     0.057 A 
ATOM      9  C   UNL d   1     -48.895  13.447  22.603  0.00  0.00     0.004 A 
ATOM     10  C   UNL d   1     -49.338  13.629  21.885  0.00  0.00     0.000 A 
ATOM     11  C   UNL d   1     -48.648  14.060  23.096  0.00  0.00     0.000 A 
ATOM     12  C   UNL d   1     -49.506  14.415  21.707  0.00  0.00     0.000 A 
ATOM     13  C   UNL d   1     -49.580  13.032  21.404  0.00  0.00     0.003 A 
ATOM     14  C   UNL d   1     -49.239  14.998  22.229  0.00  0.00     0.000 A 
ATOM     15  C   UNL d   1     -48.842  14.858  22.875  0.00  0.00     0.000 A 
ATOM     16  C   UNL d   1     -49.390  12.221  21.615  0.00  0.00     0.042 A 
ATOM     17  C   UNL d   1     -48.994  12.082  22.261  0.00  0.00     0.197 A 
ATOM     18  O   UNL d   1     -48.821  11.272  22.444  0.00  0.00    -0.286 OA
ENDBRANCH   7   8
ENDBRANCH   2   7
BRANCH   1  19
ATOM     19  C   UNL d   1     -45.327  11.109  23.374  0.00  0.00     0.092 A 
ATOM     20  C   UNL d   1     -44.698  11.516  23.017  0.00  0.00     0.156 A 
ATOM     21  F   UNL d   1     -44.798  12.264  22.685  0.00  0.00    -0.203 F 
ATOM     22  C   UNL d   1     -43.931  11.150  22.994  0.00  0.00     0.031 A 
ATOM     23  C   UNL d   1     -43.834  10.398  23.328  0.00  0.00     0.002 A 
ATOM     24  C   UNL d   1     -44.454  10.009  23.674  0.00  0.00     0.002 A 
ATOM     25  C   UNL d   1     -45.221  10.374  23.698  0.00  0.00     0.020 A 
ENDBRANCH   1  19
TORSDOF 3
ENDMDL
MODEL 2
REMARK VINA RESULT:      -8.5      1.392      1.931
REMARK  3 active torsions:
REMARK  status: ('A' for Active; 'I' for Inactive)
REMARK    1  A    between atoms: C_6  and  C_1 
REMARK    2  A    between atoms: C_5  and  N_2 
REMARK    3  A    between atoms: N_4  and  C_6 
ROOT
ATOM      1  N   UNL d   1     -47.001  12.828  22.771  0.00  0.00    -0.299 N 
ATOM      2  N   UNL d   1     -48.558  12.914  23.163  0.00  0.00    -0.300 N 
ATOM      3  C   UNL d   1     -47.550  12.436  22.322  0.00  0.00     0.100 A 
ATOM      4  C   UNL d   1     -47.226  13.272  23.429  0.00  0.00     0.100 A 
ATOM      5  C   UNL d   1     -48.329  12.479  22.518  0.00  0.00     0.100 A 
ATOM      6  C   UNL d   1     -48.005  13.315  23.624  0.00  0.00     0.100 A 
ENDROOT
BRANCH   2   7
ATOM      7  C   UNL d   1     -49.370  12.968  23.380  0.00  0.00     0.084 C 
BRANCH   7   8
ATOM      8  C   UNL d   1     -49.947  13.291  22.853  0.00  0.00     0.057 A 
ATOM      9  C   UNL d   1     -50.186  14.044  22.984  0.00  0.00     0.004 A 
ATOM     10  C   UNL d   1     -50.775  14.383  22.452  0.00  0.00     0.000 A 
ATOM     11  C   UNL d   1     -49.889  14.498  23.606  0.00  0.00     0.000 A 
ATOM     12  C   UNL d   1     -51.029  15.156  22.576  0.00  0.00     0.000 A 
ATOM     13  C   UNL d   1     -51.064  13.940  21.846  0.00  0.00     0.003 A 
ATOM     14  C   UNL d   1     -50.705  15.574  23.210  0.00  0.00     0.000 A 
ATOM     15  C   UNL d   1     -50.179  15.292  23.698  0.00  0.00     0.000 A 
ATOM     16  C   UNL d   1     -50.780  13.136  21.741  0.00  0.00     0.042 A 
ATOM     17  C   UNL d   1     -50.255  12.855  22.229  0.00  0.00     0.197 A 
ATOM     18  O   UNL d   1     -49.993  12.059  22.101  0.00  0.00    -0.286 OA
ENDBRANCH   7   8
ENDBRANCH   2   7
BRANCH   1  19
ATOM     19  C   UNL d   1     -46.185  12.783  22.567  0.00  0.00     0.092 A 
ATOM     20  C   UNL d   1     -45.728  12.161  22.870  0.00  0.00     0.156 A 
ATOM     21  F   UNL d   1     -46.050  11.587  23.367  0.00  0.00    -0.203 F 
ATOM     22  C   UNL d   1     -44.905  12.116  22.663  0.00  0.00     0.031 A 
ATOM     23  C   UNL d   1     -44.584  12.694  22.164  0.00  0.00     0.002 A 
ATOM     24  C   UNL d   1     -45.039  13.297  21.872  0.00  0.00     0.002 A 
ATOM     25  C   UNL d   1     -45.862  13.343  22.079  0.00  0.00     0.020 A 
ENDBRANCH   1  19
TORSDOF 3
ENDMDL
MODEL 3
REMARK VINA RESULT:      -8.1      8.089      9.371
REMARK  3 active torsions:
REMARK  status: ('A' for Active; 'I' for Inactive)
REMARK    1  A    between atoms: C_6  and  C_1 
REMARK    2  A    between atoms: C_5  and  N_2 
REMARK    3  A    between atoms: N_4  and  C_6 
ROOT
ATOM      1  N   UNL d   1     -39.500  14.709  20.967  0.00  0.00    -0.299 N 
ATOM      2  N   UNL d   1     -39.989  14.299  19.491  0.00  0.00    -0.300 N 
ATOM      3  C   UNL d   1     -40.289  14.736  20.783  0.00  0.00     0.100 A 
ATOM      4  C   UNL d   1     -38.940  14.474  20.409  0.00  0.00     0.100 A 
ATOM      5  C   UNL d   1     -40.534  14.531  20.045  0.00  0.00     0.100 A 
ATOM      6  C   UNL d   1     -39.185  14.269  19.671  0.00  0.00     0.100 A 
ENDROOT
BRANCH   2   7
ATOM      7  C   UNL d   1     -40.230  14.082  18.714  0.00  0.00     0.084 C 
BRANCH   7   8
ATOM      8  C   UNL d   1     -40.042  14.560  18.044  0.00  0.00     0.057 A 
ATOM      9  C   UNL d   1     -39.530  14.258  17.506  0.00  0.00     0.004 A 
ATOM     10  C   UNL d   1     -39.331  14.740  16.818  0.00  0.00     0.000 A 
ATOM     11  C   UNL d   1     -39.193  13.510  17.592  0.00  0.00     0.000 A 
ATOM     12  C   UNL d   1     -38.807  14.441  16.258  0.00  0.00     0.000 A 
ATOM     13  C   UNL d   1     -39.659  15.469  16.735  0.00  0.00     0.003 A 
ATOM     14  C   UNL d   1     -38.493  13.687  16.384  0.00  0.00     0.000 A 
ATOM     15  C   UNL d   1     -38.656  13.240  16.990  0.00  0.00     0.000 A 
ATOM     16  C   UNL d   1     -40.204  15.755  17.335  0.00  0.00     0.042 A 
ATOM     17  C   UNL d   1     -40.366  15.308  17.941  0.00  0.00     0.197 A 
ATOM     18  O   UNL d   1     -40.907  15.616  18.517  0.00  0.00    -0.286 OA
ENDBRANCH   7   8
ENDBRANCH   2   7
BRANCH   1  19
ATOM     19  C   UNL d   1     -39.244  14.924  21.740  0.00  0.00     0.092 A 
ATOM     20  C   UNL d   1     -39.097  14.326  22.295  0.00  0.00     0.156 A 
ATOM     21  F   UNL d   1     -39.195  13.528  22.111  0.00  0.00    -0.203 F 
ATOM     22  C   UNL d   1     -38.839  14.543  23.076  0.00  0.00     0.031 A 
ATOM     23  C   UNL d   1     -38.742  15.345  23.259  0.00  0.00     0.002 A 
ATOM     24  C   UNL d   1     -38.888  15.922  22.709  0.00  0.00     0.002 A 
ATOM     25  C   UNL d   1     -39.146  15.705  21.929  0.00  0.00     0.020 A 
ENDBRANCH   1  19
TORSDOF 3
ENDMDL
MODEL 4
REMARK VINA RESULT:      -8.0      8.257      9.682
REMARK  3 active torsions:
REMARK  status: ('A' for Active; 'I' for Inactive)
REMARK    1  A    between atoms: C_6  and  C_1 
REMARK    2  A    between atoms: C_5  and  N_2 
REMARK    3  A    between atoms: N_4  and  C_6 
ROOT
ATOM      1  N   UNL d   1     -39.166  14.437  17.744  0.00  0.00    -0.299 N 
ATOM      2  N   UNL d   1     -39.813  14.205  19.197  0.00  0.00    -0.300 N 
ATOM      3  C   UNL d   1     -38.683  14.358  18.390  0.00  0.00     0.100 A 
ATOM      4  C   UNL d   1     -39.986  14.400  17.817  0.00  0.00     0.100 A 
ATOM      5  C   UNL d   1     -39.007  14.242  19.117  0.00  0.00     0.100 A 
ATOM      6  C   UNL d   1     -40.310  14.284  18.544  0.00  0.00     0.100 A 
ENDROOT
BRANCH   2   7
ATOM      7  C   UNL d   1     -40.166  14.083  19.952  0.00  0.00     0.084 C 
BRANCH   7   8
ATOM      8  C   UNL d   1     -40.101  14.659  20.567  0.00  0.00     0.057 A 
ATOM      9  C   UNL d   1     -39.656  14.469  21.205  0.00  0.00     0.004 A 
ATOM     10  C   UNL d   1     -39.584  15.051  21.839  0.00  0.00     0.000 A 
ATOM     11  C   UNL d   1     -39.271  13.743  21.272  0.00  0.00     0.000 A 
ATOM     12  C   UNL d   1     -39.129  14.868  22.500  0.00  0.00     0.000 A 
ATOM     13  C   UNL d   1     -39.959  15.759  21.774  0.00  0.00     0.003 A 
ATOM     14  C   UNL d   1     -38.761  14.129  22.526  0.00  0.00     0.000 A 
ATOM     15  C   UNL d   1     -38.811  13.594  21.973  0.00  0.00     0.000 A 
ATOM     16  C   UNL d   1     -40.426  15.922  21.072  0.00  0.00     0.042 A 
ATOM     17  C   UNL d   1     -40.477  15.388  20.519  0.00  0.00     0.197 A 
ATOM     18  O   UNL d   1     -40.945  15.577  19.837  0.00  0.00    -0.286 OA
ENDBRANCH   7   8
ENDBRANCH   2   7
BRANCH   1  19
ATOM     19  C   UNL d   1     -38.827  14.559  16.983  0.00  0.00     0.092 A 
ATOM     20  C   UNL d   1     -38.617  13.900  16.526  0.00  0.00     0.156 A 
ATOM     21  F   UNL d   1     -38.732  13.129  16.796  0.00  0.00    -0.203 F 
ATOM     22  C   UNL d   1     -38.275  14.022  15.757  0.00  0.00     0.031 A 
ATOM     23  C   UNL d   1     -38.161  14.798  15.487  0.00  0.00     0.002 A 
ATOM     24  C   UNL d   1     -38.369  15.435  15.941  0.00  0.00     0.002 A 
ATOM     25  C   UNL d   1     -38.711  15.312  16.710  0.00  0.00     0.020 A 
ENDBRANCH   1  19
TORSDOF 3
ENDMDL
MODEL 5
REMARK VINA RESULT:      -7.8      1.548      4.745
REMARK  3 active torsions:
REMARK  status: ('A' for Active; 'I' for Inactive)
REMARK    1  A    between atoms: C_6  and  C_1 
REMARK    2  A    between atoms: C_5  and  N_2 
REMARK    3  A    between atoms: N_4  and  C_6 
ROOT
ATOM      1  N   UNL d   1     -48.845  13.054  22.505  0.00  0.00    -0.299 N 
ATOM      2  N   UNL d   1     -47.416  12.846  23.212  0.00  0.00    -0.300 N 
ATOM      3  C   UNL d   1     -48.498  12.321  22.503  0.00  0.00     0.100 A 
ATOM      4  C   UNL d   1     -48.478  13.698  22.865  0.00  0.00     0.100 A 
ATOM      5  C   UNL d   1     -47.784  12.217  22.856  0.00  0.00     0.100 A 
ATOM      6  C   UNL d   1     -47.763  13.594  23.218  0.00  0.00     0.100 A 
ENDROOT
BRANCH   2   7
ATOM      7  C   UNL d   1     -46.667  12.753  23.586  0.00  0.00     0.084 C 
BRANCH   7   8
ATOM      8  C   UNL d   1     -45.958  12.663  23.136  0.00  0.00     0.057 A 
ATOM      9  C   UNL d   1     -45.569  11.966  23.195  0.00  0.00     0.004 A 
ATOM     10  C   UNL d   1     -44.843  11.865  22.739  0.00  0.00     0.000 A 
ATOM     11  C   UNL d   1     -45.839  11.350  23.673  0.00  0.00     0.000 A 
ATOM     12  C   UNL d   1     -44.433  11.152  22.791  0.00  0.00     0.000 A 
ATOM     13  C   UNL d   1     -44.579  12.464  22.273  0.00  0.00     0.003 A 
ATOM     14  C   UNL d   1     -44.740  10.563  23.282  0.00  0.00     0.000 A 
ATOM     15  C   UNL d   1     -45.386  10.631  23.698  0.00  0.00     0.000 A 
ATOM     16  C   UNL d   1     -45.027  13.196  22.239  0.00  0.00     0.042 A 
ATOM     17  C   UNL d   1     -45.672  13.264  22.654  0.00  0.00     0.197 A 
ATOM     18  O   UNL d   1     -46.094  13.998  22.600  0.00  0.00    -0.286 OA
ENDBRANCH   7   8
ENDBRANCH   2   7
BRANCH   1  19
ATOM     19  C   UNL d   1     -49.594  13.163  22.135  0.00  0.00     0.092 A 
ATOM     20  C   UNL d   1     -49.621  13.473  21.367  0.00  0.00     0.156 A 
ATOM     21  F   UNL d   1     -48.936  13.678  20.956  0.00  0.00    -0.203 F 
ATOM     22  C   UNL d   1     -50.377  13.583  20.994  0.00  0.00     0.031 A 
ATOM     23  C   UNL d   1     -51.064  13.376  21.408  0.00  0.00     0.002 A 
ATOM     24  C   UNL d   1     -51.027  13.073  22.159  0.00  0.00     0.002 A 
ATOM     25  C   UNL d   1     -50.271  12.964  22.532  0.00  0.00     0.020 A 
ENDBRANCH   1  19
TORSDOF 3
ENDMDL
MODEL 6
REMARK VINA RESULT:      -7.5      8.633      9.363
REMARK  3 active torsions:
REMARK  status: ('A' for Active; 'I' for Inactive)
REMARK    1  A    between atoms: C_6  and  C_1 
REMARK    2  A    between atoms: C_5  and  N_2 
REMARK    3  A    between atoms: N_4  and  C_6 
ROOT
ATOM      1  N   UNL d   1     -38.898  14.583  21.066  0.00  0.00    -0.299 N 
ATOM      2  N   UNL d   1     -39.184  15.417  19.721  0.00  0.00    -0.300 N 
ATOM      3  C   UNL d   1     -39.469  14.329  20.549  0.00  0.00     0.100 A 
ATOM      4  C   UNL d   1     -38.459  15.264  20.915  0.00  0.00     0.100 A 
ATOM      5  C   UNL d   1     -39.611  14.746  19.876  0.00  0.00     0.100 A 
ATOM      6  C   UNL d   1     -38.602  15.682  20.243  0.00  0.00     0.100 A 
ENDROOT
BRANCH   2   7
ATOM      7  C   UNL d   1     -39.322  15.865  19.021  0.00  0.00     0.084 C 
BRANCH   7   8
ATOM      8  C   UNL d   1     -39.317  15.502  18.258  0.00  0.00     0.057 A 
ATOM      9  C   UNL d   1     -39.992  15.539  17.828  0.00  0.00     0.004 A 
ATOM     10  C   UNL d   1     -39.997  15.171  17.047  0.00  0.00     0.000 A 
ATOM     11  C   UNL d   1     -40.672  15.913  18.108  0.00  0.00     0.000 A 
ATOM     12  C   UNL d   1     -40.685  15.202  16.595  0.00  0.00     0.000 A 
ATOM     13  C   UNL d   1     -39.335  14.806  16.775  0.00  0.00     0.003 A 
ATOM     14  C   UNL d   1     -41.343  15.587  16.913  0.00  0.00     0.000 A 
ATOM     15  C   UNL d   1     -41.360  15.922  17.608  0.00  0.00     0.000 A 
ATOM     16  C   UNL d   1     -38.632  14.790  17.269  0.00  0.00     0.042 A 
ATOM     17  C   UNL d   1     -38.650  15.125  17.962  0.00  0.00     0.197 A 
ATOM     18  O   UNL d   1     -37.942  15.093  18.428  0.00  0.00    -0.286 OA
ENDBRANCH   7   8
ENDBRANCH   2   7
BRANCH   1  19
ATOM     19  C   UNL d   1     -38.749  14.146  21.770  0.00  0.00     0.092 A 
ATOM     20  C   UNL d   1     -38.330  13.433  21.719  0.00  0.00     0.156 A 
ATOM     21  F   UNL d   1     -38.055  13.140  20.999  0.00  0.00    -0.203 F 
ATOM     22  C   UNL d   1     -38.179  12.992  22.430  0.00  0.00     0.031 A 
ATOM     23  C   UNL d   1     -38.456  13.288  23.153  0.00  0.00     0.002 A 
ATOM     24  C   UNL d   1     -38.865  13.986  23.192  0.00  0.00     0.002 A 
ATOM     25  C   UNL d   1     -39.015  14.427  22.481  0.00  0.00     0.020 A 
ENDBRANCH   1  19
TORSDOF 3
ENDMDL
MODEL 7
REMARK VINA RESULT:      -7.3      8.031      9.899
REMARK  3 active torsions:
REMARK  status: ('A' for Active; 'I' for Inactive)
REMARK    1  A    between atoms: C_6  and  C_1 
REMARK    2  A    between atoms: C_5  and  N_2 
REMARK    3  A    between atoms: N_4  and  C_6 
ROOT
ATOM      1  N   UNL d   1     -38.507  14.732  17.459  0.00  0.00    -0.299 N 
ATOM      2  N   UNL d   1     -38.857  15.288  18.926  0.00  0.00    -0.300 N 
ATOM      3  C   UNL d   1     -39.235  14.582  17.782  0.00  0.00     0.100 A 
ATOM      4  C   UNL d   1     -37.940  15.166  17.870  0.00  0.00     0.100 A 
ATOM      5  C   UNL d   1     -39.410  14.860  18.516  0.00  0.00     0.100 A 
ATOM      6  C   UNL d   1     -38.115  15.445  18.604  0.00  0.00     0.100 A 
ENDROOT
BRANCH   2   7
ATOM      7  C   UNL d   1     -39.026  15.586  19.695  0.00  0.00     0.084 C 
BRANCH   7   8
ATOM      8  C   UNL d   1     -39.339  15.089  20.302  0.00  0.00     0.057 A 
ATOM      9  C   UNL d   1     -40.092  15.224  20.539  0.00  0.00     0.004 A 
ATOM     10  C   UNL d   1     -40.421  14.721  21.158  0.00  0.00     0.000 A 
ATOM     11  C   UNL d   1     -40.555  15.823  20.211  0.00  0.00     0.000 A 
ATOM     12  C   UNL d   1     -41.194  14.850  21.411  0.00  0.00     0.000 A 
ATOM     13  C   UNL d   1     -39.970  14.137  21.478  0.00  0.00     0.003 A 
ATOM     14  C   UNL d   1     -41.622  15.461  21.055  0.00  0.00     0.000 A 
ATOM     15  C   UNL d   1     -41.349  15.922  20.501  0.00  0.00     0.000 A 
ATOM     16  C   UNL d   1     -39.167  14.026  21.194  0.00  0.00     0.042 A 
ATOM     17  C   UNL d   1     -38.894  14.487  20.641  0.00  0.00     0.197 A 
ATOM     18  O   UNL d   1     -38.098  14.354  20.381  0.00  0.00    -0.286 OA
ENDBRANCH   7   8
ENDBRANCH   2   7
BRANCH   1  19
ATOM     19  C   UNL d   1     -38.324  14.440  16.690  0.00  0.00     0.092 A 
ATOM     20  C   UNL d   1     -38.125  13.641  16.601  0.00  0.00     0.156 A 
ATOM     21  F   UNL d   1     -38.102  13.124  17.243  0.00  0.00    -0.203 F 
ATOM     22  C   UNL d   1     -37.940  13.346  15.825  0.00  0.00     0.031 A 
ATOM     23  C   UNL d   1     -37.964  13.868  15.181  0.00  0.00     0.002 A 
ATOM     24  C   UNL d   1     -38.159  14.647  15.279  0.00  0.00     0.002 A 
ATOM     25  C   UNL d   1     -38.344  14.942  16.055  0.00  0.00     0.020 A 
ENDBRANCH   1  19
TORSDOF 3
ENDMDL
MODEL 8
REMARK VINA RESULT:      -7.1      8.700      9.895
REMARK  3 active torsions:
REMARK  status: ('A' for Active; 'I' for Inactive)
REMARK    1  A    between atoms: C_6  and  C_1 
REMARK    2  A    between atoms: C_5  and  N_2 
REMARK    3  A    between atoms: N_4  and  C_6 
ROOT
ATOM      1  N   UNL d   1     -39.504  15.252  18.625  0.00  0.00    -0.299 N 
ATOM      2  N   UNL d   1     -38.493  14.954  19.840  0.00  0.00    -0.300 N 
ATOM      3  C   UNL d   1     -39.451  14.503  18.930  0.00  0.00     0.100 A 
ATOM      4  C   UNL d   1     -39.046  15.868  18.928  0.00  0.00     0.100 A 
ATOM      5  C   UNL d   1     -38.946  14.354  19.537  0.00  0.00     0.100 A 
ATOM      6  C   UNL d   1     -38.541  15.719  19.535  0.00  0.00     0.100 A 
ENDROOT
BRANCH   2   7
ATOM      7  C   UNL d   1     -37.960  14.813  20.476  0.00  0.00     0.084 C 
BRANCH   7   8
ATOM      8  C   UNL d   1     -38.184  14.347  21.144  0.00  0.00     0.057 A 
ATOM      9  C   UNL d   1     -38.405  14.737  21.808  0.00  0.00     0.004 A 
ATOM     10  C   UNL d   1     -38.636  14.270  22.497  0.00  0.00     0.000 A 
ATOM     11  C   UNL d   1     -38.419  15.561  21.851  0.00  0.00     0.000 A 
ATOM     12  C   UNL d   1     -38.866  14.658  23.185  0.00  0.00     0.000 A 
ATOM     13  C   UNL d   1     -38.623  13.467  22.455  0.00  0.00     0.003 A 
ATOM     14  C   UNL d   1     -38.865  15.484  23.185  0.00  0.00     0.000 A 
ATOM     15  C   UNL d   1     -38.663  15.921  22.582  0.00  0.00     0.000 A 
ATOM     16  C   UNL d   1     -38.378  13.089  21.723  0.00  0.00     0.042 A 
ATOM     17  C   UNL d   1     -38.177  13.526  21.122  0.00  0.00     0.197 A 
ATOM     18  O   UNL d   1     -37.940  13.126  20.412  0.00  0.00    -0.286 OA
ENDBRANCH   7   8
ENDBRANCH   2   7
BRANCH   1  19
ATOM     19  C   UNL d   1     -40.033  15.408  17.989  0.00  0.00     0.092 A 
ATOM     20  C   UNL d   1     -40.776  15.736  18.155  0.00  0.00     0.156 A 
ATOM     21  F   UNL d   1     -41.011  15.912  18.926  0.00  0.00    -0.203 F 
ATOM     22  C   UNL d   1     -41.310  15.893  17.513  0.00  0.00     0.031 A 
ATOM     23  C   UNL d   1     -41.072  15.715  16.739  0.00  0.00     0.002 A 
ATOM     24  C   UNL d   1     -40.344  15.395  16.587  0.00  0.00     0.002 A 
ATOM     25  C   UNL d   1     -39.810  15.238  17.229  0.00  0.00     0.020 A 
ENDBRANCH   1  19
TORSDOF 3
ENDMDL
MODEL 9
REMARK VINA RESULT:      -6.9      8.061     10.295
REMARK  3 active torsions:
REMARK  status: ('A' for Active; 'I' for Inactive)
REMARK    1  A    between atoms: C_6  and  C_1 
REMARK    2  A    between atoms: C_5  and  N_2 
REMARK    3  A    between atoms: N_4  and  C_6 
ROOT
ATOM      1  N   UNL d   1     -39.831  14.823  19.613  0.00  0.00    -0.299 N 
ATOM      2  N   UNL d   1     -38.596  14.522  18.627  0.00  0.00    -0.300 N 
ATOM      3  C   UNL d   1     -39.971  14.652  18.833  0.00  0.00     0.100 A 
ATOM      4  C   UNL d   1     -39.062  14.847  19.912  0.00  0.00     0.100 A 
ATOM      5  C   UNL d   1     -39.354  14.501  18.341  0.00  0.00     0.100 A 
ATOM      6  C   UNL d   1     -38.445  14.696  19.419  0.00  0.00     0.100 A 
ENDROOT
BRANCH   2   7
ATOM      7  C   UNL d   1     -37.940  14.367  18.123  0.00  0.00     0.084 C 
BRANCH   7   8
ATOM      8  C   UNL d   1     -37.975  13.772  17.525  0.00  0.00     0.057 A 
ATOM      9  C   UNL d   1     -37.974  14.015  16.761  0.00  0.00     0.004 A 
ATOM     10  C   UNL d   1     -38.010  13.415  16.142  0.00  0.00     0.000 A 
ATOM     11  C   UNL d   1     -37.940  14.813  16.555  0.00  0.00     0.000 A 
ATOM     12  C   UNL d   1     -38.009  13.652  15.354  0.00  0.00     0.000 A 
ATOM     13  C   UNL d   1     -38.043  12.638  16.344  0.00  0.00     0.003 A 
ATOM     14  C   UNL d   1     -37.974  14.462  15.192  0.00  0.00     0.000 A 
ATOM     15  C   UNL d   1     -37.941  15.015  15.728  0.00  0.00     0.000 A 
ATOM     16  C   UNL d   1     -38.042  12.419  17.175  0.00  0.00     0.042 A 
ATOM     17  C   UNL d   1     -38.009  12.972  17.710  0.00  0.00     0.197 A 
ATOM     18  O   UNL d   1     -38.010  12.728  18.522  0.00  0.00    -0.286 OA
ENDBRANCH   7   8
ENDBRANCH   2   7
BRANCH   1  19
ATOM     19  C   UNL d   1     -40.477  14.981  20.129  0.00  0.00     0.092 A 
ATOM     20  C   UNL d   1     -40.809  14.356  20.560  0.00  0.00     0.156 A 
ATOM     21  F   UNL d   1     -40.524  13.585  20.497  0.00  0.00    -0.203 F 
ATOM     22  C   UNL d   1     -41.462  14.515  21.081  0.00  0.00     0.031 A 
ATOM     23  C   UNL d   1     -41.747  15.291  21.143  0.00  0.00     0.002 A 
ATOM     24  C   UNL d   1     -41.415  15.895  20.717  0.00  0.00     0.002 A 
ATOM     25  C   UNL d   1     -40.763  15.736  20.196  0.00  0.00     0.020 A 
ENDBRANCH   1  19
TORSDOF 3
ENDMDL
