MODEL 1
REMARK VINA RESULT:      -7.3      0.000      0.000
REMARK  2 active torsions:
REMARK  status: ('A' for Active; 'I' for Inactive)
REMARK    1  A    between atoms: N_9  and  C_3 
REMARK    2  A    between atoms: C_11  and  C_4 
ROOT
ATOM      1  N   UNL d   1     -39.236  14.543  20.545  0.00  0.00    -0.196 N 
ATOM      2  C   UNL d   1     -39.685  14.817  19.903  0.00  0.00     0.167 A 
ATOM      3  C   UNL d   1     -39.471  14.729  21.318  0.00  0.00     0.153 A 
ATOM      4  C   UNL d   1     -39.462  14.640  19.137  0.00  0.00     0.057 A 
ATOM      5  N   UNL d   1     -38.327  13.906  19.645  0.00  0.00    -0.161 NA
ATOM      6  N   UNL d   1     -40.360  15.270  20.038  0.00  0.00    -0.227 NA
ATOM      7  C   UNL d   1     -40.141  15.179  21.441  0.00  0.00     0.057 A 
ATOM      8  C   UNL d   1     -38.779  14.181  19.007  0.00  0.00     0.124 A 
ATOM      9  C   UNL d   1     -40.588  15.450  20.798  0.00  0.00     0.086 A 
ATOM     10  C   UNL d   1     -41.263  15.903  20.932  0.00  0.00     0.021 C 
ENDROOT
BRANCH   4  11
ATOM     11  C   UNL d   1     -39.906  14.910  18.497  0.00  0.00     0.004 A 
ATOM     12  C   UNL d   1     -39.746  15.652  18.168  0.00  0.00     0.000 A 
ATOM     13  C   UNL d   1     -40.190  15.922  17.527  0.00  0.00     0.000 A 
ATOM     14  C   UNL d   1     -40.802  15.440  17.216  0.00  0.00     0.000 A 
ATOM     15  C   UNL d   1     -40.947  14.706  17.556  0.00  0.00     0.000 A 
ATOM     16  C   UNL d   1     -41.246  15.710  16.576  0.00  0.00     0.000 C 
ATOM     17  C   UNL d   1     -40.505  14.437  18.193  0.00  0.00     0.000 A 
ENDBRANCH   4  11
BRANCH   3  18
ATOM     18  N   UNL d   1     -39.011  14.449  21.982  0.00  0.00    -0.285 N 
ATOM     19  C   UNL d   1     -38.417  14.957  22.327  0.00  0.00     0.108 A 
ATOM     20  C   UNL d   1     -37.964  14.675  22.984  0.00  0.00     0.142 A 
ATOM     21  O   UNL d   1     -38.098  13.878  23.307  0.00  0.00    -0.300 OA
ATOM     22  C   UNL d   1     -38.690  13.396  22.949  0.00  0.00     0.142 A 
ATOM     23  C   UNL d   1     -39.146  13.674  22.291  0.00  0.00     0.108 A 
ENDBRANCH   3  18
TORSDOF 2
ENDMDL
MODEL 2
REMARK VINA RESULT:      -6.9      2.124      2.875
REMARK  2 active torsions:
REMARK  status: ('A' for Active; 'I' for Inactive)
REMARK    1  A    between atoms: N_9  and  C_3 
REMARK    2  A    between atoms: C_11  and  C_4 
ROOT
ATOM      1  N   UNL d   1     -39.391  14.712  18.685  0.00  0.00    -0.196 N 
ATOM      2  C   UNL d   1     -39.244  14.636  17.873  0.00  0.00     0.167 A 
ATOM      3  C   UNL d   1     -40.113  15.029  18.942  0.00  0.00     0.153 A 
ATOM      4  C   UNL d   1     -38.536  14.325  17.608  0.00  0.00     0.057 A 
ATOM      5  N   UNL d   1     -38.105  14.160  18.977  0.00  0.00    -0.161 NA
ATOM      6  N   UNL d   1     -39.814  14.874  17.327  0.00  0.00    -0.227 NA
ATOM      7  C   UNL d   1     -40.672  15.262  18.395  0.00  0.00     0.057 A 
ATOM      8  C   UNL d   1     -37.963  14.086  18.164  0.00  0.00     0.124 A 
ATOM      9  C   UNL d   1     -40.521  15.184  17.583  0.00  0.00     0.086 A 
ATOM     10  C   UNL d   1     -41.091  15.422  17.038  0.00  0.00     0.021 C 
ENDROOT
BRANCH   4  11
ATOM     11  C   UNL d   1     -38.386  14.247  16.801  0.00  0.00     0.004 A 
ATOM     12  C   UNL d   1     -38.120  14.899  16.367  0.00  0.00     0.000 A 
ATOM     13  C   UNL d   1     -37.970  14.821  15.559  0.00  0.00     0.000 A 
ATOM     14  C   UNL d   1     -38.089  14.079  15.186  0.00  0.00     0.000 A 
ATOM     15  C   UNL d   1     -38.354  13.442  15.634  0.00  0.00     0.000 A 
ATOM     16  C   UNL d   1     -37.940  14.001  14.379  0.00  0.00     0.000 C 
ATOM     17  C   UNL d   1     -38.503  13.520  16.437  0.00  0.00     0.000 A 
ENDBRANCH   4  11
BRANCH   3  18
ATOM     18  N   UNL d   1     -40.269  15.110  19.779  0.00  0.00    -0.285 N 
ATOM     19  C   UNL d   1     -40.088  15.846  20.172  0.00  0.00     0.108 A 
ATOM     20  C   UNL d   1     -40.243  15.921  21.001  0.00  0.00     0.142 A 
ATOM     21  O   UNL d   1     -40.583  15.258  21.451  0.00  0.00    -0.300 OA
ATOM     22  C   UNL d   1     -40.754  14.542  21.039  0.00  0.00     0.142 A 
ATOM     23  C   UNL d   1     -40.600  14.462  20.210  0.00  0.00     0.108 A 
ENDBRANCH   3  18
TORSDOF 2
ENDMDL
MODEL 3
REMARK VINA RESULT:      -6.2      8.377      9.930
REMARK  2 active torsions:
REMARK  status: ('A' for Active; 'I' for Inactive)
REMARK    1  A    between atoms: N_9  and  C_3 
REMARK    2  A    between atoms: C_11  and  C_4 
ROOT
ATOM      1  N   UNL d   1     -48.722  13.402  23.138  0.00  0.00    -0.196 N 
ATOM      2  C   UNL d   1     -47.995  13.004  23.136  0.00  0.00     0.167 A 
ATOM      3  C   UNL d   1     -48.761  14.186  22.868  0.00  0.00     0.153 A 
ATOM      4  C   UNL d   1     -47.945  12.232  23.399  0.00  0.00     0.057 A 
ATOM      5  N   UNL d   1     -49.363  12.242  23.672  0.00  0.00    -0.161 NA
ATOM      6  N   UNL d   1     -47.316  13.388  22.869  0.00  0.00    -0.227 NA
ATOM      7  C   UNL d   1     -48.083  14.558  22.605  0.00  0.00     0.057 A 
ATOM      8  C   UNL d   1     -48.634  11.848  23.669  0.00  0.00     0.124 A 
ATOM      9  C   UNL d   1     -47.358  14.157  22.605  0.00  0.00     0.086 A 
ATOM     10  C   UNL d   1     -46.679  14.541  22.338  0.00  0.00     0.021 C 
ENDROOT
BRANCH   4  11
ATOM     11  C   UNL d   1     -47.223  11.833  23.400  0.00  0.00     0.004 A 
ATOM     12  C   UNL d   1     -46.547  12.205  23.697  0.00  0.00     0.000 A 
ATOM     13  C   UNL d   1     -45.825  11.806  23.697  0.00  0.00     0.000 A 
ATOM     14  C   UNL d   1     -45.785  11.025  23.395  0.00  0.00     0.000 A 
ATOM     15  C   UNL d   1     -46.467  10.671  23.103  0.00  0.00     0.000 A 
ATOM     16  C   UNL d   1     -45.062  10.626  23.395  0.00  0.00     0.000 C 
ATOM     17  C   UNL d   1     -47.185  11.068  23.103  0.00  0.00     0.000 A 
ENDBRANCH   4  11
BRANCH   3  18
ATOM     18  N   UNL d   1     -49.509  14.600  22.868  0.00  0.00    -0.285 N 
ATOM     19  C   UNL d   1     -50.039  14.512  22.204  0.00  0.00     0.108 A 
ATOM     20  C   UNL d   1     -50.779  14.923  22.208  0.00  0.00     0.142 A 
ATOM     21  O   UNL d   1     -51.000  15.430  22.879  0.00  0.00    -0.300 OA
ATOM     22  C   UNL d   1     -50.460  15.501  23.523  0.00  0.00     0.142 A 
ATOM     23  C   UNL d   1     -49.719  15.091  23.523  0.00  0.00     0.108 A 
ENDBRANCH   3  18
TORSDOF 2
ENDMDL
