MODEL 1
REMARK VINA RESULT:      -4.8      0.000      0.000
REMARK  6 active torsions:
REMARK  status: ('A' for Active; 'I' for Inactive)
REMARK    1  A    between atoms: C_14  and  N_1 
REMARK    2  A    between atoms: S_12  and  C_3 
REMARK    3  A    between atoms: C_4  and  N_11 
REMARK    4  A    between atoms: C_15  and  C_8 
REMARK       I    between atoms: N_11  and  C_13 
REMARK    5  A    between atoms: C_17  and  S_12 
REMARK    6  A    between atoms: C_13  and  C_17 
ROOT
ATOM      1  N   UNL d   1     -41.534-123.165 -52.009  0.00  0.00    -0.018 NA
ATOM      2  C   UNL d   1     -41.736-122.828 -51.283  0.00  0.00     0.302 C 
ATOM      3  O   UNL d   1     -41.949-122.046 -51.236  0.00  0.00    -0.264 OA
ENDROOT
BRANCH   2   4
ATOM      4  C   UNL d   1     -41.721-123.289 -50.603  0.00  0.00     0.101 C 
BRANCH   4   5
ATOM      5  S   UNL d   1     -42.066-123.015 -49.907  0.00  0.00    -0.041 SA
BRANCH   5   6
ATOM      6  C   UNL d   1     -42.785-123.320 -49.653  0.00  0.00     0.219 A 
ATOM      7  N   UNL d   1     -42.915-123.463 -48.841  0.00  0.00    -0.186 N 
ATOM      8  N   UNL d   1     -43.669-123.763 -48.752  0.00  0.00    -0.038 NA
ATOM      9  N   UNL d   1     -44.013-123.810 -49.496  0.00  0.00    -0.022 NA
ATOM     10  N   UNL d   1     -43.468-123.536 -50.056  0.00  0.00    -0.101 NA
BRANCH   7  11
ATOM     11  C   UNL d   1     -42.391-123.334 -48.212  0.00  0.00     0.087 A 
ATOM     12  C   UNL d   1     -41.642-123.674 -48.218  0.00  0.00     0.019 A 
ATOM     13  C   UNL d   1     -41.123-123.544 -47.589  0.00  0.00     0.002 A 
ATOM     14  C   UNL d   1     -41.355-123.073 -46.954  0.00  0.00     0.000 A 
ATOM     15  C   UNL d   1     -42.115-122.730 -46.949  0.00  0.00     0.002 A 
ATOM     16  C   UNL d   1     -42.628-122.867 -47.585  0.00  0.00     0.019 A 
ENDBRANCH   7  11
ENDBRANCH   5   6
ENDBRANCH   4   5
ENDBRANCH   2   4
BRANCH   1  17
ATOM     17  C   UNL d   1     -41.548-122.703 -52.702  0.00  0.00     0.760 A 
ATOM     18  N   UNL d   1     -41.959-122.869 -53.406  0.00  0.00    -0.051 NA
ATOM     19  C   UNL d   1     -41.807-122.257 -53.935  0.00  0.00     0.147 A 
ATOM     20  S   UNL d   1     -41.313-121.722 -53.567  0.00  0.00     0.052 SA
ATOM     21  N   UNL d   1     -41.156-122.001 -52.810  0.00  0.00    -0.019 NA
BRANCH  19  22
ATOM     22  C   UNL d   1     -42.065-122.125 -54.714  0.00  0.00     0.026 A 
ATOM     23  C   UNL d   1     -42.872-122.073 -54.880  0.00  0.00     0.002 A 
ATOM     24  C   UNL d   1     -43.123-121.942 -55.656  0.00  0.00     0.000 A 
ATOM     25  C   UNL d   1     -42.580-121.865 -56.252  0.00  0.00     0.000 A 
ATOM     26  C   UNL d   1     -41.764-121.916 -56.096  0.00  0.00     0.000 A 
ATOM     27  C   UNL d   1     -41.512-122.047 -55.319  0.00  0.00     0.002 A 
ENDBRANCH  19  22
ENDBRANCH   1  17
TORSDOF 6
ENDMDL
