MODEL 1
REMARK VINA RESULT:     117.7      0.000      0.000
REMARK  4 active torsions:
REMARK  status: ('A' for Active; 'I' for Inactive)
REMARK    1  A    between atoms: C_2  and  C_1 
REMARK    2  A    between atoms: C_3  and  C_1 
REMARK    3  A    between atoms: C_9  and  C_1 
REMARK    4  A    between atoms: N_4  and  C_10 
ROOT
ATOM      1  C   UNL d   1     -55.855-100.220 -43.714  0.00  0.00     0.012 C 
ENDROOT
BRANCH   1   2
ATOM      2  C   UNL d   1     -55.580-100.815 -43.208  0.00  0.00     0.077 A 
ATOM      3  C   UNL d   1     -55.593-101.605 -43.451  0.00  0.00     0.195 A 
ATOM      4  C   UNL d   1     -55.319-102.200 -42.947  0.00  0.00     0.019 A 
ATOM      5  O   UNL d   1     -55.883-101.798 -44.206  0.00  0.00    -0.287 OA
ATOM      6  C   UNL d   1     -55.028-102.003 -42.191  0.00  0.00     0.043 A 
ATOM      7  C   UNL d   1     -55.019-101.212 -41.957  0.00  0.00     0.019 A 
ATOM      8  C   UNL d   1     -54.712-102.053 -41.440  0.00  0.00     0.009 C 
ATOM      9  C   UNL d   1     -54.975-102.817 -42.281  0.00  0.00     0.009 C 
ATOM     10  C   UNL d   1     -55.290-100.614 -42.452  0.00  0.00     0.195 A 
ATOM     11  O   UNL d   1     -55.275 -99.818 -42.201  0.00  0.00    -0.287 OA
ENDBRANCH   1   2
BRANCH   1  12
ATOM     12  C   UNL d   1     -55.607 -99.959 -44.455  0.00  0.00     0.077 A 
ATOM     13  C   UNL d   1     -55.743-100.415 -45.126  0.00  0.00     0.195 A 
ATOM     14  C   UNL d   1     -55.503-100.171 -45.865  0.00  0.00     0.019 A 
ATOM     15  O   UNL d   1     -56.131-101.133 -45.048  0.00  0.00    -0.287 OA
ATOM     16  C   UNL d   1     -55.112 -99.445 -45.936  0.00  0.00     0.043 A 
ATOM     17  C   UNL d   1     -54.963 -98.967 -45.273  0.00  0.00     0.019 A 
ATOM     18  C   UNL d   1     -55.137 -99.716 -46.707  0.00  0.00     0.009 C 
ATOM     19  C   UNL d   1     -54.712 -98.756 -46.194  0.00  0.00     0.009 C 
ATOM     20  C   UNL d   1     -55.217 -99.236 -44.527  0.00  0.00     0.195 A 
ATOM     21  O   UNL d   1     -55.065 -98.756 -43.869  0.00  0.00    -0.287 OA
ENDBRANCH   1  12
BRANCH   1  22
ATOM     22  C   UNL d   1     -56.501 -99.792 -43.448  0.00  0.00     0.002 A 
ATOM     23  C   UNL d   1     -57.192 -99.767 -43.912  0.00  0.00     0.024 A 
ATOM     24  C   UNL d   1     -57.838 -99.340 -43.646  0.00  0.00     0.127 A 
ATOM     25  C   UNL d   1     -57.794 -98.937 -42.916  0.00  0.00     0.024 A 
ATOM     26  C   UNL d   1     -57.121 -98.966 -42.470  0.00  0.00     0.002 A 
ATOM     27  C   UNL d   1     -56.466 -99.399 -42.740  0.00  0.00     0.000 A 
BRANCH  24  28
ATOM     28  N   UNL d   1     -58.526 -99.320 -44.117  0.00  0.00    -0.114 N 
ATOM     29  O   UNL d   1     -58.614 -98.758 -44.703  0.00  0.00    -0.532 OA
ATOM     30  O   UNL d   1     -59.138 -99.873 -44.002  0.00  0.00    -0.532 OA
ENDBRANCH  24  28
ENDBRANCH   1  22
TORSDOF 4
ENDMDL
MODEL 2
REMARK VINA RESULT:     119.3      1.324      3.753
REMARK  4 active torsions:
REMARK  status: ('A' for Active; 'I' for Inactive)
REMARK    1  A    between atoms: C_2  and  C_1 
REMARK    2  A    between atoms: C_3  and  C_1 
REMARK    3  A    between atoms: C_9  and  C_1 
REMARK    4  A    between atoms: N_4  and  C_10 
ROOT
ATOM      1  C   UNL d   1     -56.213-100.262 -43.717  0.00  0.00     0.012 C 
ENDROOT
BRANCH   1   2
ATOM      2  C   UNL d   1     -56.939 -99.886 -43.852  0.00  0.00     0.077 A 
ATOM      3  C   UNL d   1     -57.231 -99.813 -44.623  0.00  0.00     0.195 A 
ATOM      4  C   UNL d   1     -57.955 -99.438 -44.759  0.00  0.00     0.019 A 
ATOM      5  O   UNL d   1     -56.792-100.119 -45.259  0.00  0.00    -0.287 OA
ATOM      6  C   UNL d   1     -58.392 -99.133 -44.119  0.00  0.00     0.043 A 
ATOM      7  C   UNL d   1     -58.093 -99.210 -43.354  0.00  0.00     0.019 A 
ATOM      8  C   UNL d   1     -58.973 -98.771 -43.673  0.00  0.00     0.009 C 
ATOM      9  C   UNL d   1     -58.811 -98.983 -44.809  0.00  0.00     0.009 C 
ATOM     10  C   UNL d   1     -57.374 -99.581 -43.209  0.00  0.00     0.195 A 
ATOM     11  O   UNL d   1     -57.084 -99.652 -42.430  0.00  0.00    -0.287 OA
ENDBRANCH   1   2
BRANCH   1  12
ATOM     12  C   UNL d   1     -55.877-100.600 -43.046  0.00  0.00     0.077 A 
ATOM     13  C   UNL d   1     -56.012-101.392 -42.865  0.00  0.00     0.195 A 
ATOM     14  C   UNL d   1     -55.687-101.740 -42.205  0.00  0.00     0.019 A 
ATOM     15  O   UNL d   1     -56.486-101.839 -43.362  0.00  0.00    -0.287 OA
ATOM     16  C   UNL d   1     -55.209-101.283 -41.707  0.00  0.00     0.043 A 
ATOM     17  C   UNL d   1     -55.059-100.482 -41.869  0.00  0.00     0.019 A 
ATOM     18  C   UNL d   1     -55.205-102.015 -41.344  0.00  0.00     0.009 C 
ATOM     19  C   UNL d   1     -54.713-100.982 -41.104  0.00  0.00     0.009 C 
ATOM     20  C   UNL d   1     -55.401-100.145 -42.549  0.00  0.00     0.195 A 
ATOM     21  O   UNL d   1     -55.247 -99.346 -42.707  0.00  0.00    -0.287 OA
ENDBRANCH   1  12
BRANCH   1  22
ATOM     22  C   UNL d   1     -55.713-100.320 -44.364  0.00  0.00     0.002 A 
ATOM     23  C   UNL d   1     -55.580-101.065 -44.710  0.00  0.00     0.024 A 
ATOM     24  C   UNL d   1     -55.081-101.123 -45.356  0.00  0.00     0.127 A 
ATOM     25  C   UNL d   1     -54.713-100.436 -45.657  0.00  0.00     0.024 A 
ATOM     26  C   UNL d   1     -54.847 -99.716 -45.317  0.00  0.00     0.002 A 
ATOM     27  C   UNL d   1     -55.353 -99.657 -44.661  0.00  0.00     0.000 A 
BRANCH  24  28
ATOM     28  N   UNL d   1     -54.953-101.873 -45.697  0.00  0.00    -0.114 N 
ATOM     29  O   UNL d   1     -54.712-102.504 -45.238  0.00  0.00    -0.532 OA
ATOM     30  O   UNL d   1     -55.068-101.996 -46.512  0.00  0.00    -0.532 OA
ENDBRANCH  24  28
ENDBRANCH   1  22
TORSDOF 4
ENDMDL
