MODEL 1
REMARK VINA RESULT:      58.8      0.000      0.000
REMARK  8 active torsions:
REMARK  status: ('A' for Active; 'I' for Inactive)
REMARK    1  A    between atoms: N_3  and  C_1 
REMARK    2  A    between atoms: C_20  and  N_2 
REMARK       I    between atoms: C_7  and  N_3 
REMARK    3  A    between atoms: C_10  and  C_7 
REMARK    4  A    between atoms: C_9  and  C_10 
REMARK    5  A    between atoms: C_15  and  C_9 
REMARK       I    between atoms: C_12  and  N_13 
REMARK    6  A    between atoms: N_13  and  C_14 
REMARK    7  A    between atoms: C_26  and  C_20 
REMARK    8  A    between atoms: O_22  and  C_26 
ROOT
ATOM      1  C   UNL d   1      14.106  16.310  -4.623  0.00  0.00     0.182 A 
ATOM      2  N   UNL d   1      14.426  15.958  -3.954  0.00  0.00    -0.283 N 
ATOM      3  S   UNL d   1      13.598  15.766  -4.978  0.00  0.00    -0.048 SA
ATOM      4  C   UNL d   1      13.606  15.074  -4.523  0.00  0.00     0.050 A 
ATOM      5  C   UNL d   1      14.120  15.193  -3.888  0.00  0.00     0.072 A 
ATOM      6  C   UNL d   1      13.212  14.354  -4.606  0.00  0.00     0.027 A 
ATOM      7  C   UNL d   1      14.240  14.593  -3.335  0.00  0.00     0.020 A 
ATOM      8  C   UNL d   1      13.333  13.754  -4.054  0.00  0.00     0.085 A 
ATOM      9  C   UNL d   1      13.847  13.874  -3.419  0.00  0.00     0.021 A 
ENDROOT
BRANCH   1  10
ATOM     10  N   UNL d   1      14.269  17.075  -4.889  0.00  0.00    -0.184 NA
ATOM     11  C   UNL d   1      14.380  17.211  -5.694  0.00  0.00     0.281 C 
ATOM     12  O   UNL d   1      14.328  16.584  -6.227  0.00  0.00    -0.265 OA
BRANCH  11  13
ATOM     13  C   UNL d   1      14.543  17.973  -5.966  0.00  0.00     0.063 C 
BRANCH  13  14
ATOM     14  C   UNL d   1      14.023  18.589  -5.807  0.00  0.00     0.006 C 
BRANCH  14  15
ATOM     15  C   UNL d   1      14.257  19.369  -5.886  0.00  0.00     0.011 A 
ATOM     16  C   UNL d   1      13.721  19.935  -6.172  0.00  0.00     0.058 A 
ATOM     17 CL   UNL d   1      12.946  19.703  -6.377  0.00  0.00    -0.082 Cl
ATOM     18  C   UNL d   1      13.961  20.736  -6.252  0.00  0.00     0.011 A 
ATOM     19  C   UNL d   1      14.716  20.969  -6.053  0.00  0.00     0.001 A 
ATOM     20  C   UNL d   1      15.253  20.407  -5.767  0.00  0.00     0.000 A 
ATOM     21  C   UNL d   1      15.019  19.613  -5.687  0.00  0.00     0.001 A 
ENDBRANCH  14  15
ENDBRANCH  13  14
ENDBRANCH  11  13
ENDBRANCH   1  10
BRANCH   2  22
ATOM     22  C   UNL d   1      14.965  16.304  -3.429  0.00  0.00     0.108 C 
BRANCH  22  23
ATOM     23  C   UNL d   1      14.770  16.403  -2.635  0.00  0.00     0.135 C 
BRANCH  23  24
ATOM     24  O   UNL d   1      15.032  17.066  -2.226  0.00  0.00    -0.325 OA
ATOM     25  C   UNL d   1      15.261  17.009  -1.430  0.00  0.00     0.182 C 
ENDBRANCH  23  24
ENDBRANCH  22  23
ENDBRANCH   2  22
BRANCH   8  26
ATOM     26  N   UNL d   1      12.934  13.022  -4.137  0.00  0.00    -0.208 NA
ATOM     27  C   UNL d   1      13.163  12.501  -4.724  0.00  0.00     0.279 C 
ATOM     28  O   UNL d   1      12.769  11.780  -4.804  0.00  0.00    -0.265 OA
ATOM     29  C   UNL d   1      13.783  12.684  -5.238  0.00  0.00     0.068 C 
ENDBRANCH   8  26
TORSDOF 8
ENDMDL
