MODEL 1
REMARK VINA RESULT:      14.6      0.000      0.000
REMARK  3 active torsions:
REMARK  status: ('A' for Active; 'I' for Inactive)
REMARK    1  A    between atoms: N_9  and  C_2 
REMARK    2  A    between atoms: C_11  and  N_9 
REMARK    3  A    between atoms: O_14  and  C_13 
ROOT
ATOM      1  C   UNL d   1      46.455 -18.401  43.225  0.00  0.00     0.154 A 
ATOM      2  C   UNL d   1      46.345 -17.799  43.772  0.00  0.00     0.185 A 
ATOM      3  C   UNL d   1      46.510 -19.185  43.476  0.00  0.00     0.186 A 
ATOM      4  N   UNL d   1      46.530 -18.390  42.404  0.00  0.00    -0.218 NA
ATOM      5  N   UNL d   1      46.618 -19.656  42.810  0.00  0.00    -0.203 NA
ATOM      6  N   UNL d   1      46.289 -17.979  44.576  0.00  0.00    -0.203 NA
ATOM      7  N   UNL d   1      46.454 -19.367  44.275  0.00  0.00    -0.203 NA
ATOM      8  C   UNL d   1      46.630 -19.172  42.153  0.00  0.00     0.201 A 
ATOM      9  C   UNL d   1      46.343 -18.763  44.827  0.00  0.00     0.202 A 
ENDROOT
BRANCH   2  10
ATOM     10  N   UNL d   1      46.291 -17.015  43.521  0.00  0.00    -0.225 NA
BRANCH  10  11
ATOM     11  C   UNL d   1      45.930 -16.453  43.998  0.00  0.00     0.085 A 
ATOM     12  C   UNL d   1      46.206 -15.674  43.996  0.00  0.00     0.043 A 
ATOM     13  C   UNL d   1      45.845 -15.107  44.474  0.00  0.00     0.096 A 
ATOM     14  C   UNL d   1      45.208 -15.317  44.955  0.00  0.00     0.024 A 
ATOM     15  C   UNL d   1      44.933 -16.104  44.953  0.00  0.00     0.004 A 
ATOM     16  C   UNL d   1      45.293 -16.663  44.478  0.00  0.00     0.019 A 
BRANCH  13  17
ATOM     17  O   UNL d   1      46.124 -14.323  44.471  0.00  0.00    -0.328 OA
ATOM     18  C   UNL d   1      45.673 -13.725  44.125  0.00  0.00     0.181 C 
ENDBRANCH  13  17
ENDBRANCH  10  11
ENDBRANCH   2  10
TORSDOF 3
ENDMDL
MODEL 2
REMARK VINA RESULT:      15.8      0.951      1.580
REMARK  3 active torsions:
REMARK  status: ('A' for Active; 'I' for Inactive)
REMARK    1  A    between atoms: N_9  and  C_2 
REMARK    2  A    between atoms: C_11  and  N_9 
REMARK    3  A    between atoms: O_14  and  C_13 
ROOT
ATOM      1  C   UNL d   1      46.513 -19.015  41.971  0.00  0.00     0.154 A 
ATOM      2  C   UNL d   1      46.457 -18.688  42.721  0.00  0.00     0.185 A 
ATOM      3  C   UNL d   1      46.454 -19.832  41.870  0.00  0.00     0.186 A 
ATOM      4  N   UNL d   1      46.626 -18.673  41.229  0.00  0.00    -0.218 NA
ATOM      5  N   UNL d   1      46.531 -19.992  41.065  0.00  0.00    -0.203 NA
ATOM      6  N   UNL d   1      46.342 -19.177  43.376  0.00  0.00    -0.203 NA
ATOM      7  N   UNL d   1      46.340 -20.321  42.519  0.00  0.00    -0.203 NA
ATOM      8  C   UNL d   1      46.635 -19.284  40.672  0.00  0.00     0.201 A 
ATOM      9  C   UNL d   1      46.283 -19.993  43.275  0.00  0.00     0.202 A 
ENDROOT
BRANCH   2  10
ATOM     10  N   UNL d   1      46.516 -17.871  42.822  0.00  0.00    -0.225 NA
BRANCH  10  11
ATOM     11  C   UNL d   1      46.287 -17.525  43.532  0.00  0.00     0.085 A 
ATOM     12  C   UNL d   1      45.930 -16.781  43.529  0.00  0.00     0.043 A 
ATOM     13  C   UNL d   1      45.700 -16.431  44.240  0.00  0.00     0.096 A 
ATOM     14  C   UNL d   1      45.826 -16.825  44.954  0.00  0.00     0.024 A 
ATOM     15  C   UNL d   1      46.187 -17.576  44.951  0.00  0.00     0.004 A 
ATOM     16  C   UNL d   1      46.414 -17.919  44.245  0.00  0.00     0.019 A 
BRANCH  13  17
ATOM     17  O   UNL d   1      45.340 -15.681  44.236  0.00  0.00    -0.328 OA
ATOM     18  C   UNL d   1      45.517 -15.134  44.828  0.00  0.00     0.181 C 
ENDBRANCH  13  17
ENDBRANCH  10  11
ENDBRANCH   2  10
TORSDOF 3
ENDMDL
MODEL 3
REMARK VINA RESULT:      16.7      2.556      4.599
REMARK  3 active torsions:
REMARK  status: ('A' for Active; 'I' for Inactive)
REMARK    1  A    between atoms: N_9  and  C_2 
REMARK    2  A    between atoms: C_11  and  N_9 
REMARK    3  A    between atoms: O_14  and  C_13 
ROOT
ATOM      1  C   UNL d   1      45.598 -13.136  43.478  0.00  0.00     0.154 A 
ATOM      2  C   UNL d   1      45.737 -13.604  44.137  0.00  0.00     0.185 A 
ATOM      3  C   UNL d   1      45.188 -12.424  43.554  0.00  0.00     0.186 A 
ATOM      4  N   UNL d   1      45.798 -13.232  42.683  0.00  0.00    -0.218 NA
ATOM      5  N   UNL d   1      45.135 -12.082  42.806  0.00  0.00    -0.203 NA
ATOM      6  N   UNL d   1      45.467 -13.361  44.878  0.00  0.00    -0.203 NA
ATOM      7  N   UNL d   1      44.917 -12.180  44.290  0.00  0.00    -0.203 NA
ATOM      8  C   UNL d   1      45.508 -12.576  42.272  0.00  0.00     0.201 A 
ATOM      9  C   UNL d   1      45.057 -12.650  44.955  0.00  0.00     0.202 A 
ENDROOT
BRANCH   2  10
ATOM     10  N   UNL d   1      46.148 -14.315  44.061  0.00  0.00    -0.225 NA
BRANCH  10  11
ATOM     11  C   UNL d   1      45.800 -15.020  44.301  0.00  0.00     0.085 A 
ATOM     12  C   UNL d   1      46.167 -15.739  44.126  0.00  0.00     0.043 A 
ATOM     13  C   UNL d   1      45.819 -16.448  44.366  0.00  0.00     0.096 A 
ATOM     14  C   UNL d   1      45.106 -16.439  44.781  0.00  0.00     0.024 A 
ATOM     15  C   UNL d   1      44.740 -15.711  44.955  0.00  0.00     0.004 A 
ATOM     16  C   UNL d   1      45.087 -15.011  44.716  0.00  0.00     0.019 A 
BRANCH  13  17
ATOM     17  O   UNL d   1      46.190 -17.172  44.189  0.00  0.00    -0.328 OA
ATOM     18  C   UNL d   1      45.885 -17.658  43.596  0.00  0.00     0.181 C 
ENDBRANCH  13  17
ENDBRANCH  10  11
ENDBRANCH   2  10
TORSDOF 3
ENDMDL
