MODEL 1
REMARK VINA RESULT:      -5.6      0.000      0.000
REMARK  3 active torsions:
REMARK  status: ('A' for Active; 'I' for Inactive)
REMARK    1  A    between atoms: C_7  and  C_3 
REMARK       I    between atoms: N_10  and  C_7 
REMARK    2  A    between atoms: C_16  and  N_10 
REMARK    3  A    between atoms: C_15  and  C_16 
ROOT
ATOM      1  C   UNL d   1      59.362  -1.168  29.389  0.00  0.00     0.063 A 
ATOM      2  C   UNL d   1      59.046  -0.475  29.718  0.00  0.00     0.033 A 
ATOM      3  C   UNL d   1      58.279  -0.648  29.983  0.00  0.00     0.158 A 
ATOM      4  C   UNL d   1      58.796  -1.764  29.450  0.00  0.00     0.099 A 
ATOM      5  O   UNL d   1      58.127  -1.442  29.817  0.00  0.00    -0.302 OA
ATOM      6  C   UNL d   1      60.101  -1.317  29.044  0.00  0.00     0.194 A 
ATOM      7  C   UNL d   1      58.965  -2.513  29.166  0.00  0.00     0.002 A 
ATOM      8  C   UNL d   1      59.687  -2.681  28.821  0.00  0.00     0.042 A 
ATOM      9  C   UNL d   1      60.256  -2.082  28.760  0.00  0.00     0.019 A 
ATOM     10  O   UNL d   1      60.674  -0.714  28.982  0.00  0.00    -0.287 OA
ATOM     11  C   UNL d   1      59.280   0.307  29.847  0.00  0.00     0.002 C 
ATOM     12  C   UNL d   1      60.207  -3.213  28.455  0.00  0.00     0.009 C 
ATOM     13  C   UNL d   1      59.276  -3.394  28.784  0.00  0.00     0.009 C 
ENDROOT
BRANCH   3  14
ATOM     14  C   UNL d   1      57.759  -0.122  30.348  0.00  0.00     0.302 C 
ATOM     15  N   UNL d   1      57.434  -0.303  31.090  0.00  0.00    -0.205 NA
ATOM     16  O   UNL d   1      57.559   0.593  29.973  0.00  0.00    -0.263 OA
BRANCH  15  17
ATOM     17  C   UNL d   1      56.913   0.220  31.458  0.00  0.00     0.104 C 
BRANCH  17  18
ATOM     18  C   UNL d   1      56.538   0.004  32.158  0.00  0.00     0.038 A 
ATOM     19  C   UNL d   1      56.438   0.563  32.759  0.00  0.00     0.101 A 
ATOM     20  N   UNL d   1      56.065   0.342  33.453  0.00  0.00    -0.242 NA
ATOM     21  C   UNL d   1      55.789  -0.420  33.561  0.00  0.00     0.099 A 
ATOM     22  C   UNL d   1      55.890  -0.978  32.955  0.00  0.00     0.021 A 
ATOM     23  C   UNL d   1      56.266  -0.762  32.254  0.00  0.00     0.005 A 
ENDBRANCH  17  18
ENDBRANCH  15  17
ENDBRANCH   3  14
TORSDOF 3
ENDMDL
MODEL 2
REMARK VINA RESULT:      -5.5      1.387      4.783
REMARK  3 active torsions:
REMARK  status: ('A' for Active; 'I' for Inactive)
REMARK    1  A    between atoms: C_7  and  C_3 
REMARK       I    between atoms: N_10  and  C_7 
REMARK    2  A    between atoms: C_16  and  N_10 
REMARK    3  A    between atoms: C_15  and  C_16 
ROOT
ATOM      1  C   UNL d   1      57.204   0.209  32.515  0.00  0.00     0.063 A 
ATOM      2  C   UNL d   1      57.777   0.278  31.920  0.00  0.00     0.033 A 
ATOM      3  C   UNL d   1      57.436   0.023  31.208  0.00  0.00     0.158 A 
ATOM      4  C   UNL d   1      56.513  -0.086  32.174  0.00  0.00     0.099 A 
ATOM      5  O   UNL d   1      56.657  -0.201  31.367  0.00  0.00    -0.302 OA
ATOM      6  C   UNL d   1      57.237   0.383  33.325  0.00  0.00     0.194 A 
ATOM      7  C   UNL d   1      55.853  -0.209  32.642  0.00  0.00     0.002 A 
ATOM      8  C   UNL d   1      55.865  -0.045  33.442  0.00  0.00     0.042 A 
ATOM      9  C   UNL d   1      56.559   0.252  33.785  0.00  0.00     0.019 A 
ATOM     10  O   UNL d   1      57.936   0.681  33.670  0.00  0.00    -0.287 OA
ATOM     11  C   UNL d   1      58.564   0.523  31.849  0.00  0.00     0.002 C 
ATOM     12  C   UNL d   1      55.490  -0.020  34.181  0.00  0.00     0.009 C 
ATOM     13  C   UNL d   1      55.101  -0.323  33.306  0.00  0.00     0.009 C 
ENDROOT
BRANCH   3  14
ATOM     14  C   UNL d   1      57.806  -0.003  30.471  0.00  0.00     0.302 C 
ATOM     15  N   UNL d   1      58.136  -0.713  30.195  0.00  0.00    -0.205 NA
ATOM     16  O   UNL d   1      57.850   0.682  30.003  0.00  0.00    -0.263 OA
BRANCH  15  17
ATOM     17  C   UNL d   1      58.507  -0.743  29.459  0.00  0.00     0.104 C 
BRANCH  17  18
ATOM     18  C   UNL d   1      58.916  -1.420  29.231  0.00  0.00     0.038 A 
ATOM     19  C   UNL d   1      59.724  -1.375  29.066  0.00  0.00     0.101 A 
ATOM     20  N   UNL d   1      60.126  -2.051  28.840  0.00  0.00    -0.242 NA
ATOM     21  C   UNL d   1      59.741  -2.770  28.775  0.00  0.00     0.099 A 
ATOM     22  C   UNL d   1      58.929  -2.812  28.942  0.00  0.00     0.021 A 
ATOM     23  C   UNL d   1      58.520  -2.134  29.170  0.00  0.00     0.005 A 
ENDBRANCH  17  18
ENDBRANCH  15  17
ENDBRANCH   3  14
TORSDOF 3
ENDMDL
MODEL 3
REMARK VINA RESULT:      -5.2      1.863      4.932
REMARK  3 active torsions:
REMARK  status: ('A' for Active; 'I' for Inactive)
REMARK    1  A    between atoms: C_7  and  C_3 
REMARK       I    between atoms: N_10  and  C_7 
REMARK    2  A    between atoms: C_16  and  N_10 
REMARK    3  A    between atoms: C_15  and  C_16 
ROOT
ATOM      1  C   UNL d   1      56.382  -0.537  32.309  0.00  0.00     0.063 A 
ATOM      2  C   UNL d   1      56.811  -0.617  31.604  0.00  0.00     0.033 A 
ATOM      3  C   UNL d   1      57.052   0.141  31.367  0.00  0.00     0.158 A 
ATOM      4  C   UNL d   1      56.358   0.263  32.507  0.00  0.00     0.099 A 
ATOM      5  O   UNL d   1      56.773   0.682  31.925  0.00  0.00    -0.302 OA
ATOM      6  C   UNL d   1      56.013  -1.105  32.788  0.00  0.00     0.194 A 
ATOM      7  C   UNL d   1      55.965   0.500  33.185  0.00  0.00     0.002 A 
ATOM      8  C   UNL d   1      55.595  -0.043  33.671  0.00  0.00     0.042 A 
ATOM      9  C   UNL d   1      55.619  -0.848  33.472  0.00  0.00     0.019 A 
ATOM     10  O   UNL d   1      56.037  -1.914  32.587  0.00  0.00    -0.287 OA
ATOM     11  C   UNL d   1      57.052  -1.222  31.095  0.00  0.00     0.002 C 
ATOM     12  C   UNL d   1      55.152  -0.224  34.348  0.00  0.00     0.009 C 
ATOM     13  C   UNL d   1      55.457   0.681  34.038  0.00  0.00     0.009 C 
ENDROOT
BRANCH   3  14
ATOM     14  C   UNL d   1      57.494   0.324  30.695  0.00  0.00     0.302 C 
ATOM     15  N   UNL d   1      58.317   0.419  30.749  0.00  0.00    -0.205 NA
ATOM     16  O   UNL d   1      57.116   0.416  29.961  0.00  0.00    -0.263 OA
BRANCH  15  17
ATOM     17  C   UNL d   1      58.762   0.603  30.079  0.00  0.00     0.104 C 
BRANCH  17  18
ATOM     18  C   UNL d   1      59.552   0.376  30.034  0.00  0.00     0.038 A 
ATOM     19  C   UNL d   1      60.098   0.682  30.574  0.00  0.00     0.101 A 
ATOM     20  N   UNL d   1      60.882   0.453  30.524  0.00  0.00    -0.242 NA
ATOM     21  C   UNL d   1      61.133  -0.072  29.951  0.00  0.00     0.099 A 
ATOM     22  C   UNL d   1      60.583  -0.378  29.410  0.00  0.00     0.021 A 
ATOM     23  C   UNL d   1      59.792  -0.151  29.455  0.00  0.00     0.005 A 
ENDBRANCH  17  18
ENDBRANCH  15  17
ENDBRANCH   3  14
TORSDOF 3
ENDMDL
MODEL 4
REMARK VINA RESULT:      -3.1      1.046      1.600
REMARK  3 active torsions:
REMARK  status: ('A' for Active; 'I' for Inactive)
REMARK    1  A    between atoms: C_7  and  C_3 
REMARK       I    between atoms: N_10  and  C_7 
REMARK    2  A    between atoms: C_16  and  N_10 
REMARK    3  A    between atoms: C_15  and  C_16 
ROOT
ATOM      1  C   UNL d   1      59.024  -1.001  29.594  0.00  0.00     0.063 A 
ATOM      2  C   UNL d   1      58.301  -0.878  29.981  0.00  0.00     0.033 A 
ATOM      3  C   UNL d   1      58.234  -0.067  30.143  0.00  0.00     0.158 A 
ATOM      4  C   UNL d   1      59.402  -0.271  29.517  0.00  0.00     0.099 A 
ATOM      5  O   UNL d   1      58.913   0.305  29.856  0.00  0.00    -0.302 OA
ATOM      6  C   UNL d   1      59.376  -1.694  29.306  0.00  0.00     0.194 A 
ATOM      7  C   UNL d   1      60.133  -0.232  29.151  0.00  0.00     0.002 A 
ATOM      8  C   UNL d   1      60.497  -0.903  28.860  0.00  0.00     0.042 A 
ATOM      9  C   UNL d   1      60.118  -1.636  28.938  0.00  0.00     0.019 A 
ATOM     10  O   UNL d   1      58.994  -2.431  29.384  0.00  0.00    -0.287 OA
ATOM     11  C   UNL d   1      57.656  -1.328  30.238  0.00  0.00     0.002 C 
ATOM     12  C   UNL d   1      61.133  -1.273  28.479  0.00  0.00     0.009 C 
ATOM     13  C   UNL d   1      61.027  -0.297  28.686  0.00  0.00     0.009 C 
ENDROOT
BRANCH   3  14
ATOM     14  C   UNL d   1      57.603   0.304  30.522  0.00  0.00     0.302 C 
ATOM     15  N   UNL d   1      57.558   0.309  31.351  0.00  0.00    -0.205 NA
ATOM     16  O   UNL d   1      57.009   0.676  30.075  0.00  0.00    -0.263 OA
BRANCH  15  17
ATOM     17  C   UNL d   1      56.929   0.679  31.734  0.00  0.00     0.104 C 
BRANCH  17  18
ATOM     18  C   UNL d   1      56.839   0.601  32.549  0.00  0.00     0.038 A 
ATOM     19  C   UNL d   1      57.496   0.682  33.044  0.00  0.00     0.101 A 
ATOM     20  N   UNL d   1      57.400   0.604  33.853  0.00  0.00    -0.242 NA
ATOM     21  C   UNL d   1      56.667   0.447  34.179  0.00  0.00     0.099 A 
ATOM     22  C   UNL d   1      56.009   0.367  33.679  0.00  0.00     0.021 A 
ATOM     23  C   UNL d   1      56.099   0.445  32.864  0.00  0.00     0.005 A 
ENDBRANCH  17  18
ENDBRANCH  15  17
ENDBRANCH   3  14
TORSDOF 3
ENDMDL
