MODEL 1
REMARK VINA RESULT:      47.8      0.000      0.000
REMARK  3 active torsions:
REMARK  status: ('A' for Active; 'I' for Inactive)
REMARK    1  A    between atoms: S_3  and  N_1 
REMARK    2  A    between atoms: C_7  and  C_4 
REMARK    3  A    between atoms: C_11  and  C_5 
ROOT
ATOM      1  N   UNL d   1      14.552  13.251  -1.872  0.00  0.00    -0.155 N 
ATOM      2  N   UNL d   1      14.835  13.998  -1.596  0.00  0.00    -0.156 NA
ATOM      3  C   UNL d   1      14.106  13.429  -2.550  0.00  0.00     0.102 A 
ATOM      4  C   UNL d   1      14.565  14.588  -2.095  0.00  0.00     0.104 A 
ATOM      5  C   UNL d   1      14.108  14.218  -2.690  0.00  0.00     0.041 A 
ENDROOT
BRANCH   4   6
ATOM      6  C   UNL d   1      14.720  15.374  -2.012  0.00  0.00     0.019 A 
ATOM      7  C   UNL d   1      14.924  15.677  -1.265  0.00  0.00     0.002 A 
ATOM      8  C   UNL d   1      15.086  16.477  -1.158  0.00  0.00     0.007 A 
ATOM      9  C   UNL d   1      15.048  17.005  -1.806  0.00  0.00     0.035 A 
ATOM     10  C   UNL d   1      14.844  16.700  -2.555  0.00  0.00     0.007 A 
ATOM     11 BR   UNL d   1      15.210  17.800  -1.700  0.00  0.00    -0.049 Br
ATOM     12  C   UNL d   1      14.681  15.898  -2.661  0.00  0.00     0.002 A 
ENDBRANCH   4   6
BRANCH   1  13
ATOM     13  S   UNL d   1      14.689  12.530  -1.544  0.00  0.00     0.266 S 
ATOM     14  O   UNL d   1      14.821  11.779  -1.194  0.00  0.00    -0.203 OA
ATOM     15  O   UNL d   1      15.349  12.444  -1.997  0.00  0.00    -0.203 OA
ATOM     16  C   UNL d   1      14.001  12.620  -1.073  0.00  0.00     0.165 C 
ENDBRANCH   1  13
BRANCH   3  17
ATOM     17  C   UNL d   1      13.720  12.864  -3.009  0.00  0.00     0.048 A 
ATOM     18  S   UNL d   1      13.628  12.863  -3.825  0.00  0.00    -0.085 SA
ATOM     19  C   UNL d   1      13.213  12.207  -4.049  0.00  0.00     0.035 A 
ATOM     20  C   UNL d   1      13.035  11.781  -3.374  0.00  0.00     0.007 A 
ATOM     21  C   UNL d   1      13.341  12.176  -2.736  0.00  0.00     0.009 A 
ENDBRANCH   3  17
TORSDOF 3
ENDMDL
MODEL 2
REMARK VINA RESULT:      48.2      2.199      3.043
REMARK  3 active torsions:
REMARK  status: ('A' for Active; 'I' for Inactive)
REMARK    1  A    between atoms: S_3  and  N_1 
REMARK    2  A    between atoms: C_7  and  C_4 
REMARK    3  A    between atoms: C_11  and  C_5 
ROOT
ATOM      1  N   UNL d   1      14.591  14.148  -1.342  0.00  0.00    -0.155 N 
ATOM      2  N   UNL d   1      14.320  14.526  -2.048  0.00  0.00    -0.156 NA
ATOM      3  C   UNL d   1      14.458  13.338  -1.470  0.00  0.00     0.102 A 
ATOM      4  C   UNL d   1      14.040  13.958  -2.566  0.00  0.00     0.104 A 
ATOM      5  C   UNL d   1      14.132  13.216  -2.192  0.00  0.00     0.041 A 
ENDROOT
BRANCH   4   6
ATOM      6  C   UNL d   1      13.736  14.105  -3.297  0.00  0.00     0.019 A 
ATOM      7  C   UNL d   1      13.893  14.830  -3.671  0.00  0.00     0.002 A 
ATOM      8  C   UNL d   1      13.593  15.001  -4.418  0.00  0.00     0.007 A 
ATOM      9  C   UNL d   1      13.117  14.441  -4.819  0.00  0.00     0.035 A 
ATOM     10  C   UNL d   1      12.959  13.713  -4.443  0.00  0.00     0.007 A 
ATOM     11 BR   UNL d   1      12.818  14.610  -5.561  0.00  0.00    -0.049 Br
ATOM     12  C   UNL d   1      13.262  13.543  -3.695  0.00  0.00     0.002 A 
ENDBRANCH   4   6
BRANCH   1  13
ATOM     13  S   UNL d   1      14.907  14.503  -0.694  0.00  0.00     0.266 S 
ATOM     14  O   UNL d   1      15.248  14.871  -0.021  0.00  0.00    -0.203 OA
ATOM     15  O   UNL d   1      14.169  14.690  -0.432  0.00  0.00    -0.203 OA
ATOM     16  C   UNL d   1      15.674  14.307  -0.968  0.00  0.00     0.165 C 
ENDBRANCH   1  13
BRANCH   3  17
ATOM     17  C   UNL d   1      14.640  12.750  -0.923  0.00  0.00     0.048 A 
ATOM     18  S   UNL d   1      15.387  12.493  -0.698  0.00  0.00    -0.085 SA
ATOM     19  C   UNL d   1      15.316  11.906  -0.147  0.00  0.00     0.035 A 
ATOM     20  C   UNL d   1      14.519  11.783  -0.014  0.00  0.00     0.007 A 
ATOM     21  C   UNL d   1      14.101  12.293  -0.484  0.00  0.00     0.009 A 
ENDBRANCH   3  17
TORSDOF 3
ENDMDL
MODEL 3
REMARK VINA RESULT:      48.6      1.006      1.997
REMARK  3 active torsions:
REMARK  status: ('A' for Active; 'I' for Inactive)
REMARK    1  A    between atoms: S_3  and  N_1 
REMARK    2  A    between atoms: C_7  and  C_4 
REMARK    3  A    between atoms: C_11  and  C_5 
ROOT
ATOM      1  N   UNL d   1      14.160  13.168  -2.272  0.00  0.00    -0.155 N 
ATOM      2  N   UNL d   1      14.233  13.917  -2.657  0.00  0.00    -0.156 NA
ATOM      3  C   UNL d   1      14.441  13.296  -1.501  0.00  0.00     0.102 A 
ATOM      4  C   UNL d   1      14.545  14.459  -2.130  0.00  0.00     0.104 A 
ATOM      5  C   UNL d   1      14.671  14.058  -1.408  0.00  0.00     0.041 A 
ENDROOT
BRANCH   4   6
ATOM      6  C   UNL d   1      14.696  15.234  -2.295  0.00  0.00     0.019 A 
ATOM      7  C   UNL d   1      14.673  15.500  -3.081  0.00  0.00     0.002 A 
ATOM      8  C   UNL d   1      14.824  16.286  -3.272  0.00  0.00     0.007 A 
ATOM      9  C   UNL d   1      15.005  16.838  -2.670  0.00  0.00     0.035 A 
ATOM     10  C   UNL d   1      15.028  16.571  -1.880  0.00  0.00     0.007 A 
ATOM     11 BR   UNL d   1      15.155  17.620  -2.858  0.00  0.00    -0.049 Br
ATOM     12  C   UNL d   1      14.876  15.782  -1.690  0.00  0.00     0.002 A 
ENDBRANCH   4   6
BRANCH   1  13
ATOM     13  S   UNL d   1      13.878  12.485  -2.591  0.00  0.00     0.266 S 
ATOM     14  O   UNL d   1      13.574  11.780  -2.927  0.00  0.00    -0.203 OA
ATOM     15  O   UNL d   1      14.542  12.095  -2.352  0.00  0.00    -0.203 OA
ATOM     16  C   UNL d   1      13.189  12.892  -2.839  0.00  0.00     0.165 C 
ENDBRANCH   1  13
BRANCH   3  17
ATOM     17  C   UNL d   1      14.474  12.713  -0.920  0.00  0.00     0.048 A 
ATOM     18  S   UNL d   1      13.844  12.303  -0.590  0.00  0.00    -0.085 SA
ATOM     19  C   UNL d   1      14.120  11.780  -0.040  0.00  0.00     0.035 A 
ATOM     20  C   UNL d   1      14.935  11.852  -0.014  0.00  0.00     0.007 A 
ATOM     21  C   UNL d   1      15.157  12.418  -0.548  0.00  0.00     0.009 A 
ENDBRANCH   3  17
TORSDOF 3
ENDMDL
MODEL 4
REMARK VINA RESULT:      50.5      1.700      2.304
REMARK  3 active torsions:
REMARK  status: ('A' for Active; 'I' for Inactive)
REMARK    1  A    between atoms: S_3  and  N_1 
REMARK    2  A    between atoms: C_7  and  C_4 
REMARK    3  A    between atoms: C_11  and  C_5 
ROOT
ATOM      1  N   UNL d   1      13.627  13.136  -3.721  0.00  0.00    -0.155 N 
ATOM      2  N   UNL d   1      13.725  13.875  -4.121  0.00  0.00    -0.156 NA
ATOM      3  C   UNL d   1      13.969  13.252  -2.973  0.00  0.00     0.102 A 
ATOM      4  C   UNL d   1      14.109  14.399  -3.625  0.00  0.00     0.104 A 
ATOM      5  C   UNL d   1      14.258  13.997  -2.907  0.00  0.00     0.041 A 
ENDROOT
BRANCH   4   6
ATOM      6  C   UNL d   1      14.301  15.159  -3.811  0.00  0.00     0.019 A 
ATOM      7  C   UNL d   1      14.614  15.660  -3.226  0.00  0.00     0.002 A 
ATOM      8  C   UNL d   1      14.817  16.440  -3.393  0.00  0.00     0.007 A 
ATOM      9  C   UNL d   1      14.711  16.746  -4.165  0.00  0.00     0.035 A 
ATOM     10  C   UNL d   1      14.398  16.243  -4.752  0.00  0.00     0.007 A 
ATOM     11 BR   UNL d   1      14.913  17.520  -4.333  0.00  0.00    -0.049 Br
ATOM     12  C   UNL d   1      14.195  15.461  -4.582  0.00  0.00     0.002 A 
ENDBRANCH   4   6
BRANCH   1  13
ATOM     13  S   UNL d   1      13.277  12.472  -4.009  0.00  0.00     0.266 S 
ATOM     14  O   UNL d   1      12.919  11.780  -4.320  0.00  0.00    -0.203 OA
ATOM     15  O   UNL d   1      12.785  12.450  -3.371  0.00  0.00    -0.203 OA
ATOM     16  C   UNL d   1      13.789  12.497  -4.671  0.00  0.00     0.165 C 
ENDBRANCH   1  13
BRANCH   3  17
ATOM     17  C   UNL d   1      14.002  12.674  -2.387  0.00  0.00     0.048 A 
ATOM     18  S   UNL d   1      13.371  12.331  -1.989  0.00  0.00    -0.085 SA
ATOM     19  C   UNL d   1      13.648  11.789  -1.459  0.00  0.00     0.035 A 
ATOM     20  C   UNL d   1      14.464  11.780  -1.514  0.00  0.00     0.007 A 
ATOM     21  C   UNL d   1      14.687  12.317  -2.078  0.00  0.00     0.009 A 
ENDBRANCH   3  17
TORSDOF 3
ENDMDL
