MODEL 1
REMARK VINA RESULT:      58.8      0.000      0.000
REMARK  8 active torsions:
REMARK  status: ('A' for Active; 'I' for Inactive)
REMARK    1  A    between atoms: S_7  and  C_3 
REMARK    2  A    between atoms: C_8  and  C_4 
REMARK    3  A    between atoms: C_14  and  S_7 
REMARK    4  A    between atoms: C_17  and  C_8 
REMARK    5  A    between atoms: C_9  and  C_14 
REMARK       I    between atoms: N_12  and  C_9 
REMARK    6  A    between atoms: C_15  and  N_12 
REMARK    7  A    between atoms: O_22  and  C_16 
REMARK    8  A    between atoms: C_23  and  O_22 
ROOT
ATOM      1  N   UNL d   1     -49.590  25.765  33.344  0.00  0.00    -0.149 N 
ATOM      2  C   UNL d   1     -49.933  25.033  33.325  0.00  0.00     0.303 A 
ATOM      3  C   UNL d   1     -50.054  26.446  33.363  0.00  0.00     0.220 A 
ATOM      4  C   UNL d   1     -50.750  24.978  33.325  0.00  0.00     0.161 A 
ATOM      5  N   UNL d   1     -51.225  25.638  33.344  0.00  0.00    -0.141 NA
ATOM      6  N   UNL d   1     -50.883  26.369  33.362  0.00  0.00    -0.121 NA
ATOM      7  O   UNL d   1     -49.461  24.348  33.306  0.00  0.00    -0.263 OA
ATOM      8  N   UNL d   1     -48.755  25.856  33.345  0.00  0.00    -0.037 N 
ENDROOT
BRANCH   3   9
ATOM      9  S   UNL d   1     -49.715  27.189  33.382  0.00  0.00    -0.041 SA
BRANCH   9  10
ATOM     10  C   UNL d   1     -49.429  27.494  34.100  0.00  0.00     0.101 C 
BRANCH  10  11
ATOM     11  C   UNL d   1     -49.297  28.298  34.168  0.00  0.00     0.286 C 
ATOM     12  N   UNL d   1     -48.576  28.569  34.463  0.00  0.00    -0.208 NA
ATOM     13  O   UNL d   1     -49.857  28.866  33.953  0.00  0.00    -0.265 OA
BRANCH  12  14
ATOM     14  C   UNL d   1     -48.430  29.368  34.536  0.00  0.00     0.085 A 
ATOM     15  C   UNL d   1     -48.137  29.695  35.244  0.00  0.00     0.021 A 
ATOM     16  C   UNL d   1     -47.994  30.507  35.303  0.00  0.00     0.026 A 
ATOM     17  C   UNL d   1     -48.133  31.010  34.679  0.00  0.00     0.100 A 
ATOM     18  C   UNL d   1     -48.426  30.683  33.972  0.00  0.00     0.026 A 
ATOM     19  C   UNL d   1     -48.569  29.898  33.899  0.00  0.00     0.021 A 
BRANCH  17  20
ATOM     20  O   UNL d   1     -47.990  31.794  34.751  0.00  0.00    -0.305 OA
BRANCH  20  21
ATOM     21  C   UNL d   1     -47.519  32.204  34.209  0.00  0.00     0.123 C 
ATOM     22  C   UNL d   1     -46.968  32.769  34.450  0.00  0.00     0.029 C 
ENDBRANCH  20  21
ENDBRANCH  17  20
ENDBRANCH  12  14
ENDBRANCH  10  11
ENDBRANCH   9  10
ENDBRANCH   3   9
BRANCH   4  23
ATOM     23  C   UNL d   1     -51.107  24.216  33.306  0.00  0.00     0.026 C 
BRANCH  23  24
ATOM     24  C   UNL d   1     -51.898  24.144  33.481  0.00  0.00     0.002 A 
ATOM     25  C   UNL d   1     -52.323  24.756  33.821  0.00  0.00     0.000 A 
ATOM     26  C   UNL d   1     -53.107  24.681  33.993  0.00  0.00     0.000 A 
ATOM     27  C   UNL d   1     -53.501  23.959  33.821  0.00  0.00     0.000 A 
ATOM     28  C   UNL d   1     -53.083  23.332  33.477  0.00  0.00     0.000 A 
ATOM     29  C   UNL d   1     -52.292  23.422  33.308  0.00  0.00     0.000 A 
ENDBRANCH  23  24
ENDBRANCH   4  23
TORSDOF 8
ENDMDL
