MODEL 1
REMARK VINA RESULT:      59.7      0.000      0.000
REMARK  3 active torsions:
REMARK  status: ('A' for Active; 'I' for Inactive)
REMARK       I    between atoms: N_3  and  C_8 
REMARK    1  A    between atoms: S_12  and  C_6 
REMARK    2  A    between atoms: C_8  and  C_14 
REMARK    3  A    between atoms: C_14  and  S_12 
ROOT
ATOM      1  S   UNL d   1     -55.783 -98.974 -44.503  0.00  0.00    -0.060 SA
ENDROOT
BRANCH   1   2
ATOM      2  C   UNL d   1     -55.503 -99.735 -44.644  0.00  0.00     0.137 A 
ATOM      3  C   UNL d   1     -55.365-100.247 -44.022  0.00  0.00     0.141 A 
ATOM      4  O   UNL d   1     -55.451-100.162 -43.208  0.00  0.00    -0.303 OA
ATOM      5  C   UNL d   1     -55.085-101.005 -44.174  0.00  0.00     0.110 A 
ATOM      6  C   UNL d   1     -55.224-100.871 -42.862  0.00  0.00     0.102 A 
ATOM      7  C   UNL d   1     -55.191-101.118 -42.069  0.00  0.00     0.025 A 
ATOM      8  C   UNL d   1     -54.999-101.388 -43.456  0.00  0.00     0.043 A 
ATOM      9  C   UNL d   1     -54.936-101.875 -41.884  0.00  0.00     0.002 A 
ATOM     10  C   UNL d   1     -54.711-102.391 -42.478  0.00  0.00     0.000 A 
ATOM     11  C   UNL d   1     -54.741-102.152 -43.266  0.00  0.00     0.004 A 
ATOM     12  N   UNL d   1     -54.945-101.249 -44.945  0.00  0.00    -0.222 NA
ATOM     13  C   UNL d   1     -55.084-100.737 -45.566  0.00  0.00     0.200 A 
ATOM     14  N   UNL d   1     -55.363 -99.976 -45.426  0.00  0.00    -0.215 NA
ENDBRANCH   1   2
BRANCH   1  15
ATOM     15  C   UNL d   1     -56.581 -98.835 -44.438  0.00  0.00     0.098 C 
BRANCH  15  16
ATOM     16  C   UNL d   1     -57.066 -98.819 -45.112  0.00  0.00     0.271 C 
ATOM     17  N   UNL d   1     -57.891 -98.798 -45.034  0.00  0.00    -0.273 N 
ATOM     18  C   UNL d   1     -58.233 -98.793 -44.291  0.00  0.00     0.067 A 
ATOM     19  C   UNL d   1     -58.375 -98.781 -45.712  0.00  0.00     0.083 A 
ATOM     20  C   UNL d   1     -59.055 -98.772 -44.208  0.00  0.00     0.016 A 
ATOM     21  C   UNL d   1     -57.753 -98.809 -43.619  0.00  0.00     0.018 A 
ATOM     22  C   UNL d   1     -59.409 -98.767 -43.457  0.00  0.00     0.001 A 
ATOM     23  C   UNL d   1     -59.535 -98.756 -44.880  0.00  0.00     0.003 A 
ATOM     24  C   UNL d   1     -58.918 -98.783 -42.788  0.00  0.00     0.000 A 
ATOM     25  C   UNL d   1     -58.098 -98.804 -42.866  0.00  0.00     0.002 A 
ATOM     26  C   UNL d   1     -59.197 -98.760 -45.626  0.00  0.00     0.019 A 
ATOM     27  O   UNL d   1     -56.721 -98.823 -45.864  0.00  0.00    -0.266 OA
ENDBRANCH  15  16
ENDBRANCH   1  15
TORSDOF 3
ENDMDL
MODEL 2
REMARK VINA RESULT:      62.1      0.852      4.392
REMARK  3 active torsions:
REMARK  status: ('A' for Active; 'I' for Inactive)
REMARK       I    between atoms: N_3  and  C_8 
REMARK    1  A    between atoms: S_12  and  C_6 
REMARK    2  A    between atoms: C_8  and  C_14 
REMARK    3  A    between atoms: C_14  and  S_12 
ROOT
ATOM      1  S   UNL d   1     -56.158 -98.802 -44.045  0.00  0.00    -0.060 SA
ENDROOT
BRANCH   1   2
ATOM      2  C   UNL d   1     -56.958 -98.838 -43.858  0.00  0.00     0.137 A 
ATOM      3  C   UNL d   1     -57.523 -98.830 -44.449  0.00  0.00     0.141 A 
ATOM      4  O   UNL d   1     -57.462 -98.791 -45.269  0.00  0.00    -0.303 OA
ATOM      5  C   UNL d   1     -58.319 -98.867 -44.250  0.00  0.00     0.110 A 
ATOM      6  C   UNL d   1     -58.225 -98.803 -45.571  0.00  0.00     0.102 A 
ATOM      7  C   UNL d   1     -58.516 -98.777 -46.350  0.00  0.00     0.025 A 
ATOM      8  C   UNL d   1     -58.751 -98.850 -44.945  0.00  0.00     0.043 A 
ATOM      9  C   UNL d   1     -59.323 -98.798 -46.489  0.00  0.00     0.002 A 
ATOM     10  C   UNL d   1     -59.848 -98.845 -45.862  0.00  0.00     0.000 A 
ATOM     11  C   UNL d   1     -59.566 -98.871 -45.089  0.00  0.00     0.004 A 
ATOM     12  N   UNL d   1     -58.550 -98.911 -43.463  0.00  0.00    -0.222 NA
ATOM     13  C   UNL d   1     -57.986 -98.919 -42.873  0.00  0.00     0.200 A 
ATOM     14  N   UNL d   1     -57.185 -98.883 -43.060  0.00  0.00    -0.215 NA
ENDBRANCH   1   2
BRANCH   1  15
ATOM     15  C   UNL d   1     -55.708 -99.479 -44.058  0.00  0.00     0.098 C 
BRANCH  15  16
ATOM     16  C   UNL d   1     -55.590 -99.898 -44.765  0.00  0.00     0.271 C 
ATOM     17  N   UNL d   1     -55.314-100.679 -44.749  0.00  0.00    -0.273 N 
ATOM     18  C   UNL d   1     -55.157-101.044 -44.034  0.00  0.00     0.067 A 
ATOM     19  C   UNL d   1     -55.197-101.096 -45.461  0.00  0.00     0.083 A 
ATOM     20  C   UNL d   1     -54.882-101.823 -44.013  0.00  0.00     0.016 A 
ATOM     21  C   UNL d   1     -55.274-100.630 -43.329  0.00  0.00     0.018 A 
ATOM     22  C   UNL d   1     -54.720-102.200 -43.291  0.00  0.00     0.001 A 
ATOM     23  C   UNL d   1     -54.765-102.237 -44.718  0.00  0.00     0.003 A 
ATOM     24  C   UNL d   1     -54.841-101.776 -42.587  0.00  0.00     0.000 A 
ATOM     25  C   UNL d   1     -55.115-100.999 -42.604  0.00  0.00     0.002 A 
ATOM     26  C   UNL d   1     -54.922-101.875 -45.436  0.00  0.00     0.019 A 
ATOM     27  O   UNL d   1     -55.749 -99.529 -45.489  0.00  0.00    -0.266 OA
ENDBRANCH  15  16
ENDBRANCH   1  15
TORSDOF 3
ENDMDL
