MODEL 1
REMARK VINA RESULT:      84.3      0.000      0.000
REMARK  4 active torsions:
REMARK  status: ('A' for Active; 'I' for Inactive)
REMARK    1  A    between atoms: S_13  and  C_7 
REMARK       I    between atoms: N_10  and  C_12 
REMARK    2  A    between atoms: C_25  and  C_11 
REMARK    3  A    between atoms: C_12  and  C_16 
REMARK    4  A    between atoms: C_16  and  S_13 
ROOT
ATOM      1  N   UNL d   1      58.004  49.630  50.335  0.00  0.00    -0.224 N 
ATOM      2  N   UNL d   1      58.029  49.673  51.772  0.00  0.00    -0.241 N 
ATOM      3  C   UNL d   1      57.602  49.660  51.066  0.00  0.00     0.343 A 
ATOM      4  C   UNL d   1      58.857  49.657  51.747  0.00  0.00     0.160 A 
ATOM      5  C   UNL d   1      58.829  49.614  50.316  0.00  0.00     0.273 A 
ATOM      6  C   UNL d   1      59.255  49.627  51.022  0.00  0.00     0.115 A 
ATOM      7  C   UNL d   1      60.080  49.610  51.003  0.00  0.00     0.120 A 
ATOM      8  N   UNL d   1      59.292  49.670  52.456  0.00  0.00    -0.209 NA
ATOM      9  N   UNL d   1      60.509  49.624  51.705  0.00  0.00    -0.220 NA
ATOM     10  C   UNL d   1      60.116  49.653  52.438  0.00  0.00     0.165 A 
ATOM     11  O   UNL d   1      56.774  49.676  51.082  0.00  0.00    -0.245 OA
ATOM     12  O   UNL d   1      59.222  49.584  49.590  0.00  0.00    -0.266 OA
ATOM     13  C   UNL d   1      57.573  49.617  49.636  0.00  0.00     0.107 C 
ATOM     14  C   UNL d   1      57.631  49.703  52.496  0.00  0.00     0.105 C 
ENDROOT
BRANCH   7  15
ATOM     15  S   UNL d   1      60.474  49.581  50.278  0.00  0.00    -0.062 SA
BRANCH  15  16
ATOM     16  C   UNL d   1      60.502  48.873  49.850  0.00  0.00     0.098 C 
BRANCH  16  17
ATOM     17  C   UNL d   1      61.226  48.511  49.693  0.00  0.00     0.271 C 
ATOM     18  N   UNL d   1      61.316  47.701  49.795  0.00  0.00    -0.272 N 
ATOM     19  C   UNL d   1      60.686  47.262  50.052  0.00  0.00     0.083 A 
ATOM     20  C   UNL d   1      62.037  47.337  49.639  0.00  0.00     0.083 A 
ATOM     21  C   UNL d   1      60.771  46.438  50.158  0.00  0.00     0.019 A 
ATOM     22  C   UNL d   1      61.498  46.072  50.001  0.00  0.00     0.003 A 
ATOM     23  C   UNL d   1      62.134  46.532  49.739  0.00  0.00     0.019 A 
ATOM     24  C   UNL d   1      61.582  45.263  50.105  0.00  0.00     0.000 C 
ATOM     25  O   UNL d   1      61.872  48.969  49.428  0.00  0.00    -0.266 OA
ENDBRANCH  16  17
ENDBRANCH  15  16
ENDBRANCH   7  15
BRANCH  10  26
ATOM     26  C   UNL d   1      60.550  49.666  53.142  0.00  0.00     0.039 C 
ATOM     27  C   UNL d   1      61.374  49.692  53.123  0.00  0.00     0.003 C 
ENDBRANCH  10  26
TORSDOF 4
ENDMDL
