MODEL 1
REMARK VINA RESULT:      97.0      0.000      0.000
REMARK  3 active torsions:
REMARK  status: ('A' for Active; 'I' for Inactive)
REMARK    1  A    between atoms: N_10  and  C_3 
REMARK    2  A    between atoms: C_15  and  N_4 
REMARK    3  A    between atoms: C_20  and  C_15 
ROOT
ATOM      1  C   UNL d   1      58.198  49.571  52.026  0.00  0.00     0.191 A 
ATOM      2  C   UNL d   1      58.945  49.617  52.384  0.00  0.00     0.173 A 
ATOM      3  C   UNL d   1      58.016  49.590  53.343  0.00  0.00     0.738 A 
ATOM      4  N   UNL d   1      59.552  49.620  51.093  0.00  0.00    -0.224 N 
ATOM      5  N   UNL d   1      57.627  49.554  52.618  0.00  0.00    -0.041 NA
ATOM      6  N   UNL d   1      58.129  49.550  51.207  0.00  0.00    -0.240 N 
ATOM      7  C   UNL d   1      58.807  49.574  50.740  0.00  0.00     0.343 A 
ATOM      8  C   UNL d   1      59.620  49.642  51.914  0.00  0.00     0.288 A 
ATOM      9  N   UNL d   1      58.829  49.629  53.201  0.00  0.00    -0.130 N 
ATOM     10  O   UNL d   1      58.740  49.553  49.918  0.00  0.00    -0.245 OA
ATOM     11  O   UNL d   1      60.365  49.688  52.267  0.00  0.00    -0.265 OA
ATOM     12  C   UNL d   1      57.384  49.504  50.854  0.00  0.00     0.105 C 
ATOM     13  C   UNL d   1      59.421  49.672  53.773  0.00  0.00     0.118 C 
ENDROOT
BRANCH   4  14
ATOM     14  C   UNL d   1      60.232  49.645  50.621  0.00  0.00     0.087 C 
BRANCH  14  15
ATOM     15  C   UNL d   1      60.704  48.974  50.543  0.00  0.00     0.019 A 
ATOM     16  C   UNL d   1      60.502  48.274  50.948  0.00  0.00     0.014 A 
ATOM     17  C   UNL d   1      60.975  47.602  50.870  0.00  0.00     0.068 A 
ATOM     18 CL   UNL d   1      60.774  46.911  51.271  0.00  0.00    -0.082 Cl
ATOM     19  C   UNL d   1      61.641  47.623  50.396  0.00  0.00     0.068 A 
ATOM     20  C   UNL d   1      61.846  48.327  49.987  0.00  0.00     0.012 A 
ATOM     21 CL   UNL d   1      62.113  46.952  50.318  0.00  0.00    -0.082 Cl
ATOM     22  C   UNL d   1      61.367  48.995  50.071  0.00  0.00     0.002 A 
ENDBRANCH  14  15
ENDBRANCH   4  14
BRANCH   3  23
ATOM     23  N   UNL d   1      57.655  49.588  54.086  0.00  0.00    -0.059 N 
ATOM     24  N   UNL d   1      58.044  49.538  54.810  0.00  0.00    -0.151 NA
ATOM     25  C   UNL d   1      57.470  49.554  55.411  0.00  0.00     0.103 A 
ATOM     26  C   UNL d   1      57.618  49.517  56.225  0.00  0.00     0.022 C 
ATOM     27  C   UNL d   1      56.730  49.614  55.046  0.00  0.00     0.041 A 
ATOM     28  C   UNL d   1      56.849  49.634  54.231  0.00  0.00     0.102 A 
ATOM     29  C   UNL d   1      56.255  49.692  53.658  0.00  0.00     0.021 C 
ENDBRANCH   3  23
TORSDOF 3
ENDMDL
