MODEL 1
REMARK VINA RESULT:      44.3      0.000      0.000
REMARK  3 active torsions:
REMARK  status: ('A' for Active; 'I' for Inactive)
REMARK    1  A    between atoms: C_3  and  C_1 
REMARK    2  A    between atoms: C_5  and  C_3 
REMARK    3  A    between atoms: C_10  and  C_5 
ROOT
ATOM      1  C   UNL d   1     -50.685  25.561  33.506  0.00  0.00     0.109 C 
ATOM      2  C   UNL d   1     -50.233  24.872  33.479  0.00  0.00     0.105 C 
ATOM      3  N   UNL d   1     -49.778  24.188  33.453  0.00  0.00    -0.191 NA
ENDROOT
BRANCH   1   4
ATOM      4  C   UNL d   1     -50.331  26.275  33.725  0.00  0.00     0.192 A 
ATOM      5  N   UNL d   1     -49.876  26.404  34.411  0.00  0.00    -0.220 NA
ATOM      6  C   UNL d   1     -49.634  27.189  34.408  0.00  0.00     0.106 A 
ATOM      7  C   UNL d   1     -49.174  27.627  34.944  0.00  0.00     0.021 A 
ATOM      8  C   UNL d   1     -49.932  27.550  33.729  0.00  0.00     0.119 A 
ATOM      9  C   UNL d   1     -49.017  28.426  34.792  0.00  0.00     0.002 A 
ATOM     10  C   UNL d   1     -49.314  28.790  34.114  0.00  0.00     0.002 A 
ATOM     11  C   UNL d   1     -49.770  28.360  33.580  0.00  0.00     0.026 A 
ATOM     12  O   UNL d   1     -50.362  26.984  33.308  0.00  0.00    -0.287 OA
ENDBRANCH   1   4
BRANCH   1  13
ATOM     13  C   UNL d   1     -51.482  25.539  33.317  0.00  0.00     0.014 C 
BRANCH  13  14
ATOM     14  C   UNL d   1     -51.891  24.823  33.346  0.00  0.00     0.004 A 
ATOM     15  C   UNL d   1     -52.710  24.822  33.413  0.00  0.00     0.042 A 
ATOM     16  C   UNL d   1     -53.116  24.104  33.441  0.00  0.00     0.196 A 
ATOM     17  O   UNL d   1     -53.941  24.096  33.508  0.00  0.00    -0.287 OA
ATOM     18  C   UNL d   1     -52.708  23.390  33.403  0.00  0.00     0.042 A 
ATOM     19  C   UNL d   1     -51.877  23.399  33.335  0.00  0.00     0.003 A 
ATOM     20  C   UNL d   1     -51.468  24.116  33.306  0.00  0.00     0.000 A 
ENDBRANCH  13  14
ENDBRANCH   1  13
TORSDOF 3
ENDMDL
MODEL 2
REMARK VINA RESULT:      44.8      1.280      4.422
REMARK  3 active torsions:
REMARK  status: ('A' for Active; 'I' for Inactive)
REMARK    1  A    between atoms: C_3  and  C_1 
REMARK    2  A    between atoms: C_5  and  C_3 
REMARK    3  A    between atoms: C_10  and  C_5 
ROOT
ATOM      1  C   UNL d   1     -51.039  26.571  33.453  0.00  0.00     0.109 C 
ATOM      2  C   UNL d   1     -51.506  27.234  33.603  0.00  0.00     0.105 C 
ATOM      3  N   UNL d   1     -51.976  27.891  33.754  0.00  0.00    -0.191 NA
ENDROOT
BRANCH   1   4
ATOM      4  C   UNL d   1     -51.384  25.820  33.449  0.00  0.00     0.192 A 
ATOM      5  N   UNL d   1     -52.194  25.653  33.554  0.00  0.00    -0.220 NA
ATOM      6  C   UNL d   1     -52.290  24.838  33.509  0.00  0.00     0.106 A 
ATOM      7  C   UNL d   1     -52.966  24.359  33.572  0.00  0.00     0.021 A 
ATOM      8  C   UNL d   1     -51.551  24.496  33.378  0.00  0.00     0.119 A 
ATOM      9  C   UNL d   1     -52.893  23.537  33.503  0.00  0.00     0.002 A 
ATOM     10  C   UNL d   1     -52.156  23.191  33.371  0.00  0.00     0.002 A 
ATOM     11  C   UNL d   1     -51.484  23.663  33.308  0.00  0.00     0.026 A 
ATOM     12  O   UNL d   1     -50.993  25.103  33.341  0.00  0.00    -0.287 OA
ENDBRANCH   1   4
BRANCH   1  13
ATOM     13  C   UNL d   1     -50.237  26.656  33.308  0.00  0.00     0.014 C 
BRANCH  13  14
ATOM     14  C   UNL d   1     -49.807  27.235  33.708  0.00  0.00     0.004 A 
ATOM     15  C   UNL d   1     -49.574  27.106  34.487  0.00  0.00     0.042 A 
ATOM     16  C   UNL d   1     -49.144  27.688  34.884  0.00  0.00     0.196 A 
ATOM     17  O   UNL d   1     -48.906  27.564  35.667  0.00  0.00    -0.287 OA
ATOM     18  C   UNL d   1     -48.948  28.394  34.509  0.00  0.00     0.042 A 
ATOM     19  C   UNL d   1     -49.188  28.516  33.720  0.00  0.00     0.003 A 
ATOM     20  C   UNL d   1     -49.618  27.937  33.320  0.00  0.00     0.000 A 
ENDBRANCH  13  14
ENDBRANCH   1  13
TORSDOF 3
ENDMDL
