MODEL 1
REMARK VINA RESULT:      27.5      0.000      0.000
REMARK  1 active torsions:
REMARK  status: ('A' for Active; 'I' for Inactive)
REMARK    1  A    between atoms: C_12  and  N_2 
ROOT
ATOM      1  C   UNL d   1      14.289  13.640  -2.467  0.00  0.00     0.267 A 
ATOM      2  N   UNL d   1      13.992  13.707  -3.207  0.00  0.00    -0.271 N 
ATOM      3  C   UNL d   1      14.267  13.082  -2.062  0.00  0.00     0.081 A 
ATOM      4  C   UNL d   1      13.962  12.322  -2.146  0.00  0.00     0.105 A 
ATOM      5  O   UNL d   1      13.618  11.988  -2.667  0.00  0.00    -0.305 OA
ATOM      6  C   UNL d   1      13.596  13.102  -3.627  0.00  0.00     0.090 A 
ATOM      7  C   UNL d   1      13.422  12.308  -3.381  0.00  0.00     0.116 A 
ATOM      8  C   UNL d   1      14.648  13.305  -1.365  0.00  0.00     0.028 A 
ATOM      9  O   UNL d   1      14.659  14.308  -2.157  0.00  0.00    -0.267 OA
ATOM     10  C   UNL d   1      14.035  11.780  -1.534  0.00  0.00     0.026 A 
ATOM     11  C   UNL d   1      14.722  12.762  -0.750  0.00  0.00     0.103 A 
ATOM     12  N   UNL d   1      15.100  12.978  -0.054  0.00  0.00    -0.148 N 
ATOM     13  C   UNL d   1      14.414  11.995  -0.835  0.00  0.00     0.023 A 
ATOM     14  C   UNL d   1      13.355  13.366  -4.399  0.00  0.00     0.020 A 
ATOM     15  C   UNL d   1      13.010  11.780  -3.900  0.00  0.00     0.026 A 
ATOM     16  C   UNL d   1      12.942  12.834  -4.918  0.00  0.00     0.002 A 
ATOM     17  C   UNL d   1      12.770  12.037  -4.664  0.00  0.00     0.002 A 
ENDROOT
BRANCH   2  18
ATOM     18  C   UNL d   1      14.084  14.428  -3.585  0.00  0.00     0.083 C 
ATOM     19  C   UNL d   1      13.538  15.023  -3.468  0.00  0.00     0.021 C 
ENDBRANCH   2  18
TORSDOF 1
ENDMDL
MODEL 2
REMARK VINA RESULT:      28.5      0.944      2.969
REMARK  1 active torsions:
REMARK  status: ('A' for Active; 'I' for Inactive)
REMARK    1  A    between atoms: C_12  and  N_2 
ROOT
ATOM      1  C   UNL d   1      14.207  13.565  -2.697  0.00  0.00     0.267 A 
ATOM      2  N   UNL d   1      14.559  13.629  -1.982  0.00  0.00    -0.271 N 
ATOM      3  C   UNL d   1      13.840  13.029  -2.930  0.00  0.00     0.081 A 
ATOM      4  C   UNL d   1      13.623  12.300  -2.614  0.00  0.00     0.105 A 
ATOM      5  O   UNL d   1      13.744  11.979  -1.995  0.00  0.00    -0.305 OA
ATOM      6  C   UNL d   1      14.545  13.049  -1.380  0.00  0.00     0.090 A 
ATOM      7  C   UNL d   1      14.170  12.287  -1.383  0.00  0.00     0.116 A 
ATOM      8  C   UNL d   1      13.603  13.243  -3.691  0.00  0.00     0.028 A 
ATOM      9  O   UNL d   1      14.292  14.205  -3.208  0.00  0.00    -0.267 OA
ATOM     10  C   UNL d   1      13.169  11.779  -3.057  0.00  0.00     0.026 A 
ATOM     11  C   UNL d   1      13.147  12.721  -4.136  0.00  0.00     0.103 A 
ATOM     12  N   UNL d   1      12.908  12.928  -4.893  0.00  0.00    -0.148 N 
ATOM     13  C   UNL d   1      12.929  11.985  -3.818  0.00  0.00     0.023 A 
ATOM     14  C   UNL d   1      14.978  13.302  -0.693  0.00  0.00     0.020 A 
ATOM     15  C   UNL d   1      14.225  11.780  -0.706  0.00  0.00     0.026 A 
ATOM     16  C   UNL d   1      15.032  12.791  -0.015  0.00  0.00     0.002 A 
ATOM     17  C   UNL d   1      14.652  12.027  -0.024  0.00  0.00     0.002 A 
ENDROOT
BRANCH   2  18
ATOM     18  C   UNL d   1      14.969  14.321  -1.825  0.00  0.00     0.083 C 
ATOM     19  C   UNL d   1      14.571  15.032  -1.789  0.00  0.00     0.021 C 
ENDBRANCH   2  18
TORSDOF 1
ENDMDL
