MODEL 1
REMARK VINA RESULT:      18.7      0.000      0.000
REMARK  4 active torsions:
REMARK  status: ('A' for Active; 'I' for Inactive)
REMARK    1  A    between atoms: C_5  and  N_1 
REMARK    2  A    between atoms: C_7  and  C_3 
REMARK    3  A    between atoms: C_8  and  C_4 
REMARK    4  A    between atoms: N_10  and  C_5 
ROOT
ATOM      1  N   UNL d   1      45.970 -18.300  44.135  0.00  0.00    -0.203 N 
ATOM      2  N   UNL d   1      45.840 -17.601  44.559  0.00  0.00    -0.163 NA
ATOM      3  C   UNL d   1      45.854 -16.968  44.060  0.00  0.00     0.103 A 
ATOM      4  C   UNL d   1      46.071 -18.101  43.331  0.00  0.00     0.087 A 
ATOM      5  C   UNL d   1      46.001 -17.278  43.277  0.00  0.00     0.040 A 
ENDROOT
BRANCH   3   6
ATOM      6  C   UNL d   1      45.745 -16.174  44.287  0.00  0.00     0.019 A 
ATOM      7  C   UNL d   1      46.334 -15.613  44.159  0.00  0.00     0.002 A 
ATOM      8  C   UNL d   1      46.205 -14.821  44.394  0.00  0.00     0.000 A 
ATOM      9  C   UNL d   1      45.498 -14.608  44.747  0.00  0.00     0.000 A 
ATOM     10  C   UNL d   1      44.919 -15.184  44.867  0.00  0.00     0.000 A 
ATOM     11  C   UNL d   1      45.454 -13.940  44.917  0.00  0.00     0.000 C 
ATOM     12  C   UNL d   1      45.039 -15.952  44.642  0.00  0.00     0.002 A 
ENDBRANCH   3   6
BRANCH   1  13
ATOM     13  C   UNL d   1      45.997 -19.081  44.451  0.00  0.00     0.222 C 
ATOM     14  S   UNL d   1      46.646 -19.300  44.948  0.00  0.00    -0.037 SA
BRANCH  13  15
ATOM     15  N   UNL d   1      45.391 -19.647  44.284  0.00  0.00    -0.214 NA
ATOM     16  C   UNL d   1      45.285 -20.304  44.784  0.00  0.00     0.122 C 
ENDBRANCH  13  15
ENDBRANCH   1  13
BRANCH   4  17
ATOM     17  C   UNL d   1      46.215 -18.601  42.688  0.00  0.00     0.018 A 
ATOM     18  C   UNL d   1      46.076 -18.351  41.919  0.00  0.00     0.002 A 
ATOM     19  C   UNL d   1      46.219 -18.850  41.280  0.00  0.00     0.011 A 
ATOM     20  C   UNL d   1      46.506 -19.608  41.413  0.00  0.00     0.058 A 
ATOM     21  C   UNL d   1      46.646 -19.865  42.161  0.00  0.00     0.011 A 
ATOM     22 CL   UNL d   1      46.646 -20.101  40.747  0.00  0.00    -0.082 Cl
ATOM     23  C   UNL d   1      46.502 -19.365  42.804  0.00  0.00     0.002 A 
ENDBRANCH   4  17
TORSDOF 4
ENDMDL
