MODEL 1
REMARK VINA RESULT:      61.1      0.000      0.000
REMARK  2 active torsions:
REMARK  status: ('A' for Active; 'I' for Inactive)
REMARK    1  A    between atoms: C_9  and  N_1 
REMARK    2  A    between atoms: C_2  and  C_10 
ROOT
ATOM      1  C   UNL d   1     -55.004-100.565 -43.765  0.00  0.00     0.070 A 
ATOM      2  C   UNL d   1     -54.925-101.173 -42.212  0.00  0.00     0.024 A 
ATOM      3  C   UNL d   1     -54.753-100.086 -43.149  0.00  0.00     0.018 A 
ATOM      4  C   UNL d   1     -55.220-101.342 -43.637  0.00  0.00     0.018 A 
ATOM      5  C   UNL d   1     -54.712-100.395 -42.361  0.00  0.00     0.004 A 
ATOM      6  C   UNL d   1     -55.180-101.650 -42.852  0.00  0.00     0.004 A 
ENDROOT
BRANCH   2   7
ATOM      7  C   UNL d   1     -54.892-101.424 -41.571  0.00  0.00     0.111 A 
ATOM      8  N   UNL d   1     -54.948-100.910 -40.818  0.00  0.00    -0.239 NA
ATOM      9  C   UNL d   1     -54.879-101.473 -40.179  0.00  0.00     0.088 A 
ATOM     10  C   UNL d   1     -54.893-101.321 -39.421  0.00  0.00     0.020 A 
ATOM     11  C   UNL d   1     -54.790-102.235 -40.482  0.00  0.00     0.049 A 
ATOM     12  C   UNL d   1     -54.812-101.981 -38.883  0.00  0.00     0.002 A 
ATOM     13  C   UNL d   1     -54.726-102.722 -39.178  0.00  0.00     0.001 A 
ATOM     14  C   UNL d   1     -54.712-102.879 -39.982  0.00  0.00     0.008 A 
ATOM     15  S   UNL d   1     -54.805-102.153 -41.395  0.00  0.00    -0.066 SA
ENDBRANCH   2   7
BRANCH   1  16
ATOM     16  N   UNL d   1     -55.044-100.260 -44.541  0.00  0.00    -0.242 N 
ATOM     17  C   UNL d   1     -55.193 -99.461 -44.671  0.00  0.00     0.267 A 
ATOM     18  C   UNL d   1     -55.197 -99.342 -45.487  0.00  0.00     0.066 A 
ATOM     19  O   UNL d   1     -55.325 -98.836 -44.090  0.00  0.00    -0.267 OA
ATOM     20  C   UNL d   1     -55.047-100.088 -45.855  0.00  0.00     0.066 A 
ATOM     21  C   UNL d   1     -54.954-100.652 -45.242  0.00  0.00     0.267 A 
ATOM     22  O   UNL d   1     -54.799-101.452 -45.355  0.00  0.00    -0.267 OA
ENDBRANCH   1  16
TORSDOF 2
ENDMDL
