MODEL 1
REMARK VINA RESULT:      -7.9      0.000      0.000
REMARK  5 active torsions:
REMARK  status: ('A' for Active; 'I' for Inactive)
REMARK    1  A    between atoms: C_2  and  C_1 
REMARK       I    between atoms: N_3  and  C_1 
REMARK    2  A    between atoms: C_8  and  N_3 
REMARK    3  A    between atoms: C_5  and  C_4 
REMARK    4  A    between atoms: O_15  and  C_12 
REMARK    5  A    between atoms: O_16  and  C_13 
ROOT
ATOM      1  C   UNL d   1      52.685  32.654  53.025  0.00  0.00     0.279 C 
ATOM      2  N   UNL d   1      53.010  32.256  53.700  0.00  0.00    -0.208 NA
ATOM      3  O   UNL d   1      52.752  32.328  52.287  0.00  0.00    -0.265 OA
ENDROOT
BRANCH   1   4
ATOM      4  C   UNL d   1      52.303  33.375  53.147  0.00  0.00     0.062 A 
ATOM      5  C   UNL d   1      51.479  33.406  53.036  0.00  0.00     0.029 A 
ATOM      6  C   UNL d   1      51.081  34.119  53.154  0.00  0.00     0.096 A 
ATOM      7  C   UNL d   1      51.520  34.810  53.386  0.00  0.00     0.048 A 
ATOM      8  C   UNL d   1      52.336  34.755  53.491  0.00  0.00     0.096 A 
ATOM      9  C   UNL d   1      52.731  34.046  53.374  0.00  0.00     0.029 A 
BRANCH   6  10
ATOM     10  O   UNL d   1      50.252  34.123  53.035  0.00  0.00    -0.328 OA
ATOM     11  C   UNL d   1      49.922  34.493  52.361  0.00  0.00     0.181 C 
ENDBRANCH   6  10
BRANCH   8  12
ATOM     12  O   UNL d   1      52.772  35.446  53.723  0.00  0.00    -0.328 OA
ATOM     13  C   UNL d   1      52.901  35.600  54.523  0.00  0.00     0.181 C 
ENDBRANCH   8  12
ENDBRANCH   1   4
BRANCH   2  14
ATOM     14  C   UNL d   1      53.390  31.534  53.564  0.00  0.00     0.085 A 
ATOM     15  C   UNL d   1      53.012  30.837  53.794  0.00  0.00     0.022 A 
ATOM     16  C   UNL d   1      53.333  30.130  53.685  0.00  0.00     0.041 A 
ATOM     17  C   UNL d   1      54.104  30.076  53.314  0.00  0.00     0.003 A 
ATOM     18  C   UNL d   1      54.491  30.766  53.080  0.00  0.00     0.002 A 
ATOM     19  C   UNL d   1      54.123  31.492  53.210  0.00  0.00     0.019 A 
BRANCH  16  20
ATOM     20  C   UNL d   1      52.929  29.433  53.928  0.00  0.00     0.196 C 
ATOM     21  O   UNL d   1      52.238  29.191  53.537  0.00  0.00    -0.287 OA
ATOM     22  C   UNL d   1      53.234  28.999  54.560  0.00  0.00     0.045 C 
ENDBRANCH  16  20
ENDBRANCH   2  14
TORSDOF 5
ENDMDL
MODEL 2
REMARK VINA RESULT:      -7.8      1.382      2.319
REMARK  5 active torsions:
REMARK  status: ('A' for Active; 'I' for Inactive)
REMARK    1  A    between atoms: C_2  and  C_1 
REMARK       I    between atoms: N_3  and  C_1 
REMARK    2  A    between atoms: C_8  and  N_3 
REMARK    3  A    between atoms: C_5  and  C_4 
REMARK    4  A    between atoms: O_15  and  C_12 
REMARK    5  A    between atoms: O_16  and  C_13 
ROOT
ATOM      1  C   UNL d   1      53.642  32.114  53.633  0.00  0.00     0.279 C 
ATOM      2  N   UNL d   1      52.978  31.633  53.854  0.00  0.00    -0.208 NA
ATOM      3  O   UNL d   1      54.254  31.795  53.210  0.00  0.00    -0.265 OA
ENDROOT
BRANCH   1   4
ATOM      4  C   UNL d   1      53.640  32.907  53.861  0.00  0.00     0.062 A 
ATOM      5  C   UNL d   1      54.102  33.126  54.517  0.00  0.00     0.029 A 
ATOM      6  C   UNL d   1      54.113  33.915  54.760  0.00  0.00     0.096 A 
ATOM      7  C   UNL d   1      53.651  34.489  54.334  0.00  0.00     0.048 A 
ATOM      8  C   UNL d   1      53.200  34.248  53.687  0.00  0.00     0.096 A 
ATOM      9  C   UNL d   1      53.191  33.464  53.447  0.00  0.00     0.029 A 
BRANCH   6  10
ATOM     10  O   UNL d   1      54.586  34.108  55.423  0.00  0.00    -0.328 OA
ATOM     11  C   UNL d   1      55.421  34.117  55.360  0.00  0.00     0.181 C 
ENDBRANCH   6  10
BRANCH   8  12
ATOM     12  O   UNL d   1      52.740  34.824  53.265  0.00  0.00    -0.328 OA
ATOM     13  C   UNL d   1      51.917  34.801  53.306  0.00  0.00     0.181 C 
ENDBRANCH   8  12
ENDBRANCH   1   4
BRANCH   2  14
ATOM     14  C   UNL d   1      52.992  30.841  53.619  0.00  0.00     0.085 A 
ATOM     15  C   UNL d   1      53.132  30.261  54.188  0.00  0.00     0.022 A 
ATOM     16  C   UNL d   1      53.154  29.497  54.012  0.00  0.00     0.041 A 
ATOM     17  C   UNL d   1      53.030  29.254  53.199  0.00  0.00     0.003 A 
ATOM     18  C   UNL d   1      52.889  29.825  52.622  0.00  0.00     0.002 A 
ATOM     19  C   UNL d   1      52.872  30.619  52.843  0.00  0.00     0.019 A 
BRANCH  16  20
ATOM     20  C   UNL d   1      53.298  28.923  54.610  0.00  0.00     0.196 C 
ATOM     21  O   UNL d   1      52.780  28.848  55.254  0.00  0.00    -0.287 OA
ATOM     22  C   UNL d   1      53.963  28.439  54.542  0.00  0.00     0.045 C 
ENDBRANCH  16  20
ENDBRANCH   2  14
TORSDOF 5
ENDMDL
MODEL 3
REMARK VINA RESULT:      -7.5      1.548      4.870
REMARK  5 active torsions:
REMARK  status: ('A' for Active; 'I' for Inactive)
REMARK    1  A    between atoms: C_2  and  C_1 
REMARK       I    between atoms: N_3  and  C_1 
REMARK    2  A    between atoms: C_8  and  N_3 
REMARK    3  A    between atoms: C_5  and  C_4 
REMARK    4  A    between atoms: O_15  and  C_12 
REMARK    5  A    between atoms: O_16  and  C_13 
ROOT
ATOM      1  C   UNL d   1      51.252  34.057  52.663  0.00  0.00     0.279 C 
ATOM      2  N   UNL d   1      50.469  33.970  52.980  0.00  0.00    -0.208 NA
ATOM      3  O   UNL d   1      51.381  34.529  52.018  0.00  0.00    -0.265 OA
ENDROOT
BRANCH   1   4
ATOM      4  C   UNL d   1      51.867  33.650  53.032  0.00  0.00     0.062 A 
ATOM      5  C   UNL d   1      52.114  32.929  52.699  0.00  0.00     0.029 A 
ATOM      6  C   UNL d   1      52.728  32.508  53.054  0.00  0.00     0.096 A 
ATOM      7  C   UNL d   1      53.098  32.819  53.755  0.00  0.00     0.048 A 
ATOM      8  C   UNL d   1      52.836  33.536  54.067  0.00  0.00     0.096 A 
ATOM      9  C   UNL d   1      52.226  33.953  53.713  0.00  0.00     0.029 A 
BRANCH   6  10
ATOM     10  O   UNL d   1      52.958  31.785  52.699  0.00  0.00    -0.328 OA
ATOM     11  C   UNL d   1      52.756  31.054  53.054  0.00  0.00     0.181 C 
ENDBRANCH   6  10
BRANCH   8  12
ATOM     12  O   UNL d   1      53.206  33.843  54.766  0.00  0.00    -0.328 OA
ATOM     13  C   UNL d   1      54.002  34.062  54.747  0.00  0.00     0.181 C 
ENDBRANCH   8  12
ENDBRANCH   1   4
BRANCH   2  14
ATOM     14  C   UNL d   1      49.862  34.383  52.601  0.00  0.00     0.085 A 
ATOM     15  C   UNL d   1      49.435  34.944  53.031  0.00  0.00     0.022 A 
ATOM     16  C   UNL d   1      48.851  35.360  52.714  0.00  0.00     0.041 A 
ATOM     17  C   UNL d   1      48.646  35.230  51.891  0.00  0.00     0.003 A 
ATOM     18  C   UNL d   1      49.065  34.672  51.452  0.00  0.00     0.002 A 
ATOM     19  C   UNL d   1      49.674  34.252  51.818  0.00  0.00     0.019 A 
BRANCH  16  20
ATOM     20  C   UNL d   1      48.430  35.927  53.171  0.00  0.00     0.196 C 
ATOM     21  O   UNL d   1      48.800  36.312  53.807  0.00  0.00    -0.287 OA
ATOM     22  C   UNL d   1      47.645  36.090  52.976  0.00  0.00     0.045 C 
ENDBRANCH  16  20
ENDBRANCH   2  14
TORSDOF 5
ENDMDL
MODEL 4
REMARK VINA RESULT:      -7.5      1.577      5.030
REMARK  5 active torsions:
REMARK  status: ('A' for Active; 'I' for Inactive)
REMARK    1  A    between atoms: C_2  and  C_1 
REMARK       I    between atoms: N_3  and  C_1 
REMARK    2  A    between atoms: C_8  and  N_3 
REMARK    3  A    between atoms: C_5  and  C_4 
REMARK    4  A    between atoms: O_15  and  C_12 
REMARK    5  A    between atoms: O_16  and  C_13 
ROOT
ATOM      1  C   UNL d   1      51.255  34.072  52.649  0.00  0.00     0.279 C 
ATOM      2  N   UNL d   1      50.476  33.977  52.971  0.00  0.00    -0.208 NA
ATOM      3  O   UNL d   1      51.375  34.544  52.002  0.00  0.00    -0.265 OA
ENDROOT
BRANCH   1   4
ATOM      4  C   UNL d   1      51.878  33.671  53.013  0.00  0.00     0.062 A 
ATOM      5  C   UNL d   1      52.224  34.015  53.687  0.00  0.00     0.029 A 
ATOM      6  C   UNL d   1      52.848  33.628  54.064  0.00  0.00     0.096 A 
ATOM      7  C   UNL d   1      53.125  32.884  53.757  0.00  0.00     0.048 A 
ATOM      8  C   UNL d   1      52.766  32.563  53.088  0.00  0.00     0.096 A 
ATOM      9  C   UNL d   1      52.147  32.948  52.714  0.00  0.00     0.029 A 
BRANCH   6  10
ATOM     10  O   UNL d   1      53.178  33.996  54.740  0.00  0.00    -0.328 OA
ATOM     11  C   UNL d   1      54.004  33.973  54.874  0.00  0.00     0.181 C 
ENDBRANCH   6  10
BRANCH   8  12
ATOM     12  O   UNL d   1      53.045  31.821  52.784  0.00  0.00    -0.328 OA
ATOM     13  C   UNL d   1      52.674  31.119  53.009  0.00  0.00     0.181 C 
ENDBRANCH   8  12
ENDBRANCH   1   4
BRANCH   2  14
ATOM     14  C   UNL d   1      49.862  34.384  52.597  0.00  0.00     0.085 A 
ATOM     15  C   UNL d   1      49.440  34.948  53.027  0.00  0.00     0.022 A 
ATOM     16  C   UNL d   1      48.850  35.359  52.713  0.00  0.00     0.041 A 
ATOM     17  C   UNL d   1      48.633  35.218  51.896  0.00  0.00     0.003 A 
ATOM     18  C   UNL d   1      49.047  34.656  51.457  0.00  0.00     0.002 A 
ATOM     19  C   UNL d   1      49.662  34.243  51.819  0.00  0.00     0.019 A 
BRANCH  16  20
ATOM     20  C   UNL d   1      48.434  35.930  53.170  0.00  0.00     0.196 C 
ATOM     21  O   UNL d   1      48.803  36.302  53.814  0.00  0.00    -0.287 OA
ATOM     22  C   UNL d   1      47.656  36.110  52.966  0.00  0.00     0.045 C 
ENDBRANCH  16  20
ENDBRANCH   2  14
TORSDOF 5
ENDMDL
MODEL 5
REMARK VINA RESULT:      -7.4      1.948      3.309
REMARK  5 active torsions:
REMARK  status: ('A' for Active; 'I' for Inactive)
REMARK    1  A    between atoms: C_2  and  C_1 
REMARK       I    between atoms: N_3  and  C_1 
REMARK    2  A    between atoms: C_8  and  N_3 
REMARK    3  A    between atoms: C_5  and  C_4 
REMARK    4  A    between atoms: O_15  and  C_12 
REMARK    5  A    between atoms: O_16  and  C_13 
ROOT
ATOM      1  C   UNL d   1      50.953  33.771  53.087  0.00  0.00     0.279 C 
ATOM      2  N   UNL d   1      51.748  33.974  52.867  0.00  0.00    -0.208 NA
ATOM      3  O   UNL d   1      50.815  33.155  53.594  0.00  0.00    -0.265 OA
ENDROOT
BRANCH   1   4
ATOM      4  C   UNL d   1      50.337  34.218  52.770  0.00  0.00     0.062 A 
ATOM      5  C   UNL d   1      49.955  34.765  53.267  0.00  0.00     0.029 A 
ATOM      6  C   UNL d   1      49.336  35.221  52.967  0.00  0.00     0.096 A 
ATOM      7  C   UNL d   1      49.099  35.123  52.155  0.00  0.00     0.048 A 
ATOM      8  C   UNL d   1      49.493  34.574  51.682  0.00  0.00     0.096 A 
ATOM      9  C   UNL d   1      50.108  34.122  51.981  0.00  0.00     0.029 A 
BRANCH   6  10
ATOM     10  O   UNL d   1      48.968  35.765  53.488  0.00  0.00    -0.328 OA
ATOM     11  C   UNL d   1      48.146  35.914  53.435  0.00  0.00     0.181 C 
ENDBRANCH   6  10
BRANCH   8  12
ATOM     12  O   UNL d   1      49.255  34.478  50.873  0.00  0.00    -0.328 OA
ATOM     13  C   UNL d   1      48.455  34.516  50.672  0.00  0.00     0.181 C 
ENDBRANCH   8  12
ENDBRANCH   1   4
BRANCH   2  14
ATOM     14  C   UNL d   1      52.356  33.518  53.191  0.00  0.00     0.085 A 
ATOM     15  C   UNL d   1      52.821  33.845  53.789  0.00  0.00     0.022 A 
ATOM     16  C   UNL d   1      53.409  33.450  54.127  0.00  0.00     0.041 A 
ATOM     17  C   UNL d   1      53.576  32.651  53.867  0.00  0.00     0.003 A 
ATOM     18  C   UNL d   1      53.118  32.314  53.271  0.00  0.00     0.002 A 
ATOM     19  C   UNL d   1      52.508  32.758  52.938  0.00  0.00     0.019 A 
BRANCH  16  20
ATOM     20  C   UNL d   1      53.870  33.805  54.735  0.00  0.00     0.196 C 
ATOM     21  O   UNL d   1      53.575  34.452  55.162  0.00  0.00    -0.287 OA
ATOM     22  C   UNL d   1      54.618  33.495  54.896  0.00  0.00     0.045 C 
ENDBRANCH  16  20
ENDBRANCH   2  14
TORSDOF 5
ENDMDL
MODEL 6
REMARK VINA RESULT:      -7.2      1.388      2.701
REMARK  5 active torsions:
REMARK  status: ('A' for Active; 'I' for Inactive)
REMARK    1  A    between atoms: C_2  and  C_1 
REMARK       I    between atoms: N_3  and  C_1 
REMARK    2  A    between atoms: C_8  and  N_3 
REMARK    3  A    between atoms: C_5  and  C_4 
REMARK    4  A    between atoms: O_15  and  C_12 
REMARK    5  A    between atoms: O_16  and  C_13 
ROOT
ATOM      1  C   UNL d   1      51.128  34.149  52.639  0.00  0.00     0.279 C 
ATOM      2  N   UNL d   1      51.208  33.501  53.181  0.00  0.00    -0.208 NA
ATOM      3  O   UNL d   1      51.781  34.461  52.277  0.00  0.00    -0.265 OA
ENDROOT
BRANCH   1   4
ATOM      4  C   UNL d   1      50.371  34.445  52.497  0.00  0.00     0.062 A 
ATOM      5  C   UNL d   1      50.050  34.348  51.736  0.00  0.00     0.029 A 
ATOM      6  C   UNL d   1      49.294  34.637  51.576  0.00  0.00     0.096 A 
ATOM      7  C   UNL d   1      48.858  35.031  52.192  0.00  0.00     0.048 A 
ATOM      8  C   UNL d   1      49.197  35.116  52.938  0.00  0.00     0.096 A 
ATOM      9  C   UNL d   1      49.948  34.827  53.096  0.00  0.00     0.029 A 
BRANCH   6  10
ATOM     10  O   UNL d   1      48.993  34.526  50.802  0.00  0.00    -0.328 OA
ATOM     11  C   UNL d   1      48.170  34.443  50.674  0.00  0.00     0.181 C 
ENDBRANCH   6  10
BRANCH   8  12
ATOM     12  O   UNL d   1      48.759  35.509  53.550  0.00  0.00    -0.328 OA
ATOM     13  C   UNL d   1      48.289  36.161  53.365  0.00  0.00     0.181 C 
ENDBRANCH   8  12
ENDBRANCH   1   4
BRANCH   2  14
ATOM     14  C   UNL d   1      51.971  33.214  53.315  0.00  0.00     0.085 A 
ATOM     15  C   UNL d   1      52.144  32.435  53.106  0.00  0.00     0.022 A 
ATOM     16  C   UNL d   1      52.855  32.119  53.214  0.00  0.00     0.041 A 
ATOM     17  C   UNL d   1      53.475  32.599  53.561  0.00  0.00     0.003 A 
ATOM     18  C   UNL d   1      53.313  33.379  53.773  0.00  0.00     0.002 A 
ATOM     19  C   UNL d   1      52.555  33.678  53.646  0.00  0.00     0.019 A 
BRANCH  16  20
ATOM     20  C   UNL d   1      53.008  31.322  52.993  0.00  0.00     0.196 C 
ATOM     21  O   UNL d   1      52.715  31.021  52.277  0.00  0.00    -0.287 OA
ATOM     22  C   UNL d   1      53.454  30.850  53.501  0.00  0.00     0.045 C 
ENDBRANCH  16  20
ENDBRANCH   2  14
TORSDOF 5
ENDMDL
