MODEL 1
REMARK VINA RESULT:      57.0      0.000      0.000
REMARK  4 active torsions:
REMARK  status: ('A' for Active; 'I' for Inactive)
REMARK    1  A    between atoms: C_8  and  C_1 
REMARK    2  A    between atoms: N_5  and  C_2 
REMARK       I    between atoms: C_6  and  N_5 
REMARK    3  A    between atoms: C_10  and  C_6 
REMARK    4  A    between atoms: N_9  and  C_8 
ROOT
ATOM      1  C   UNL d   1      58.957  49.620  51.005  0.00  0.00     0.042 A 
ATOM      2  C   UNL d   1      58.164  49.647  50.786  0.00  0.00     0.115 A 
ATOM      3  S   UNL d   1      58.137  49.627  49.962  0.00  0.00    -0.068 SA
ATOM      4  C   UNL d   1      59.407  49.583  50.322  0.00  0.00     0.009 A 
ATOM      5  C   UNL d   1      58.899  49.587  49.679  0.00  0.00     0.031 A 
ATOM      6  C   UNL d   1      60.238  49.547  50.294  0.00  0.00     0.001 C 
ATOM      7  C   UNL d   1      59.106  49.557  48.878  0.00  0.00     0.007 C 
ENDROOT
BRANCH   2   8
ATOM      8  N   UNL d   1      57.512  49.689  51.291  0.00  0.00    -0.201 NA
ATOM      9  C   UNL d   1      56.857  49.200  51.160  0.00  0.00     0.282 C 
ATOM     10  O   UNL d   1      56.213  49.245  51.666  0.00  0.00    -0.265 OA
BRANCH   9  11
ATOM     11  C   UNL d   1      56.857  48.671  50.524  0.00  0.00     0.085 A 
ATOM     12  C   UNL d   1      56.520  48.903  49.806  0.00  0.00     0.145 A 
ATOM     13  F   UNL d   1      56.172  49.634  49.652  0.00  0.00    -0.204 F 
ATOM     14  C   UNL d   1      56.516  48.380  49.167  0.00  0.00     0.030 A 
ATOM     15  C   UNL d   1      56.852  47.628  49.256  0.00  0.00     0.002 A 
ATOM     16  C   UNL d   1      57.186  47.400  49.973  0.00  0.00     0.000 A 
ATOM     17  C   UNL d   1      57.186  47.929  50.609  0.00  0.00     0.007 A 
ENDBRANCH   9  11
ENDBRANCH   2   8
BRANCH   1  18
ATOM     18  C   UNL d   1      59.326  49.624  51.750  0.00  0.00     0.082 C 
BRANCH  18  19
ATOM     19  N   UNL d   1      60.146  49.635  51.794  0.00  0.00    -0.304 N 
ATOM     20  C   UNL d   1      60.518  49.611  52.541  0.00  0.00     0.064 A 
ATOM     21  C   UNL d   1      60.063  49.577  53.225  0.00  0.00     0.019 C 
ATOM     22  C   UNL d   1      61.344  49.622  52.593  0.00  0.00     0.018 A 
ATOM     23  C   UNL d   1      61.795  49.656  51.909  0.00  0.00     0.003 A 
ATOM     24  C   UNL d   1      61.426  49.680  51.170  0.00  0.00     0.019 A 
ATOM     25  C   UNL d   1      60.607  49.669  51.116  0.00  0.00     0.080 A 
ENDBRANCH  18  19
ENDBRANCH   1  18
TORSDOF 4
ENDMDL
