MODEL 1
REMARK VINA RESULT:      35.4      0.000      0.000
REMARK  2 active torsions:
REMARK  status: ('A' for Active; 'I' for Inactive)
REMARK       I    between atoms: N_2  and  C_1 
REMARK    1  A    between atoms: C_4  and  C_1 
REMARK    2  A    between atoms: C_3  and  N_2 
ROOT
ATOM      1  C   UNL d   1     -51.685  25.653  33.306  0.00  0.00     0.085 A 
ATOM      2  C   UNL d   1     -52.366  24.407  33.306  0.00  0.00     0.002 A 
ATOM      3  C   UNL d   1     -51.665  24.844  33.306  0.00  0.00     0.018 A 
ATOM      4  C   UNL d   1     -53.091  24.783  33.307  0.00  0.00     0.000 A 
ATOM      5  C   UNL d   1     -52.349  23.589  33.306  0.00  0.00     0.000 A 
ATOM      6  C   UNL d   1     -52.418  26.047  33.306  0.00  0.00     0.019 A 
ATOM      7  C   UNL d   1     -53.121  25.610  33.307  0.00  0.00     0.002 A 
ATOM      8  C   UNL d   1     -53.683  24.211  33.307  0.00  0.00     0.000 A 
ATOM      9  C   UNL d   1     -53.121  23.313  33.307  0.00  0.00     0.000 A 
ATOM     10  C   UNL d   1     -50.939  24.466  33.306  0.00  0.00     0.002 A 
ATOM     11  C   UNL d   1     -50.907  23.624  33.306  0.00  0.00     0.000 A 
ATOM     12  C   UNL d   1     -51.608  23.188  33.306  0.00  0.00     0.000 A 
ENDROOT
BRANCH   1  13
ATOM     13  N   UNL d   1     -50.990  26.085  33.305  0.00  0.00    -0.206 NA
ATOM     14  C   UNL d   1     -50.998  26.838  33.600  0.00  0.00     0.302 C 
ATOM     15  O   UNL d   1     -51.659  27.103  33.864  0.00  0.00    -0.263 OA
BRANCH  14  16
ATOM     16  C   UNL d   1     -50.331  27.328  33.629  0.00  0.00     0.158 A 
ATOM     17  O   UNL d   1     -49.573  27.063  33.793  0.00  0.00    -0.300 OA
ATOM     18  C   UNL d   1     -49.057  27.732  33.769  0.00  0.00     0.123 A 
ATOM     19  C   UNL d   1     -49.500  28.389  33.593  0.00  0.00     0.029 A 
ATOM     20  C   UNL d   1     -50.291  28.165  33.502  0.00  0.00     0.032 A 
ENDBRANCH  14  16
ENDBRANCH   1  13
TORSDOF 2
ENDMDL
