MODEL 1
REMARK VINA RESULT:      23.9      0.000      0.000
REMARK  2 active torsions:
REMARK  status: ('A' for Active; 'I' for Inactive)
REMARK    1  A    between atoms: C_6  and  N_1 
REMARK    2  A    between atoms: C_11  and  C_6 
ROOT
ATOM      1  N   UNL d   1      14.095  12.003  -2.414  0.00  0.00    -0.251 N 
ATOM      2  C   UNL d   1      13.383  11.856  -2.010  0.00  0.00     0.378 A 
ATOM      3  C   UNL d   1      13.918  12.038  -3.223  0.00  0.00     0.092 A 
ATOM      4  O   UNL d   1      12.770  11.800  -2.561  0.00  0.00    -0.258 OA
ATOM      5  C   UNL d   1      13.101  11.914  -3.319  0.00  0.00     0.121 A 
ATOM      6  O   UNL d   1      13.311  11.779  -1.193  0.00  0.00    -0.237 OA
ATOM      7  C   UNL d   1      14.395  12.168  -3.883  0.00  0.00     0.020 A 
ATOM      8  C   UNL d   1      12.771  11.920  -4.075  0.00  0.00     0.026 A 
ATOM      9  C   UNL d   1      14.055  12.173  -4.636  0.00  0.00     0.002 A 
ATOM     10  C   UNL d   1      13.247  12.050  -4.731  0.00  0.00     0.002 A 
ATOM     11  C   UNL d   1      14.541  12.304  -5.299  0.00  0.00     0.000 C 
ENDROOT
BRANCH   1  12
ATOM     12  C   UNL d   1      14.857  12.102  -2.112  0.00  0.00     0.085 C 
BRANCH  12  13
ATOM     13  C   UNL d   1      14.976  12.576  -1.451  0.00  0.00     0.018 A 
ATOM     14  C   UNL d   1      15.048  12.234  -0.709  0.00  0.00     0.002 A 
ATOM     15  C   UNL d   1      15.167  12.717  -0.047  0.00  0.00     0.000 A 
ATOM     16  C   UNL d   1      15.214  13.536  -0.138  0.00  0.00     0.000 A 
ATOM     17  C   UNL d   1      15.141  13.873  -0.885  0.00  0.00     0.000 A 
ATOM     18  C   UNL d   1      15.022  13.394  -1.545  0.00  0.00     0.002 A 
ENDBRANCH  12  13
ENDBRANCH   1  12
TORSDOF 2
ENDMDL
