MODEL 1
REMARK VINA RESULT:      79.4      0.000      0.000
REMARK  9 active torsions:
REMARK  status: ('A' for Active; 'I' for Inactive)
REMARK    1  A    between atoms: P_3  and  C_1 
REMARK    2  A    between atoms: O_13  and  P_3 
REMARK    3  A    between atoms: O_14  and  P_3 
REMARK    4  A    between atoms: N_8  and  C_4 
REMARK    5  A    between atoms: C_15  and  N_8 
REMARK    6  A    between atoms: C_25  and  O_13 
REMARK    7  A    between atoms: C_26  and  O_14 
REMARK    8  A    between atoms: O_23  and  C_16 
REMARK    9  A    between atoms: O_24  and  C_17 
ROOT
ATOM      1  C   UNL d   1     -51.743  25.452  33.889  0.00  0.00     0.174 A 
ATOM      2  C   UNL d   1     -51.944  25.887  34.569  0.00  0.00     0.100 A 
ATOM      3  C   UNL d   1     -51.456  26.503  34.823  0.00  0.00     0.095 A 
ATOM      4  N   UNL d   1     -51.055  25.637  33.471  0.00  0.00    -0.237 NA
ATOM      5  C   UNL d   1     -50.772  26.686  34.405  0.00  0.00     0.038 A 
ATOM      6  C   UNL d   1     -50.570  26.251  33.725  0.00  0.00     0.083 A 
ATOM      7  C   UNL d   1     -50.291  27.298  34.660  0.00  0.00     0.027 A 
ATOM      8 CL   UNL d   1     -52.635  25.700  34.988  0.00  0.00    -0.079 Cl
ATOM      9  C   UNL d   1     -49.886  26.433  33.307  0.00  0.00     0.021 A 
ATOM     10  C   UNL d   1     -49.596  27.487  34.241  0.00  0.00     0.094 A 
ATOM     11  C   UNL d   1     -49.401  27.047  33.562  0.00  0.00     0.026 A 
ENDROOT
BRANCH   3  12
ATOM     12  N   UNL d   1     -51.657  26.937  35.501  0.00  0.00    -0.245 NA
BRANCH  12  13
ATOM     13  C   UNL d   1     -51.760  26.554  36.230  0.00  0.00     0.082 A 
ATOM     14  C   UNL d   1     -51.148  26.559  36.780  0.00  0.00     0.021 A 
ATOM     15  C   UNL d   1     -51.241  26.177  37.515  0.00  0.00     0.026 A 
ATOM     16  C   UNL d   1     -51.955  25.793  37.686  0.00  0.00     0.094 A 
ATOM     17  C   UNL d   1     -52.571  25.792  37.124  0.00  0.00     0.026 A 
ATOM     18  C   UNL d   1     -52.470  26.172  36.400  0.00  0.00     0.021 A 
BRANCH  16  19
ATOM     19  O   UNL d   1     -52.051  25.413  38.413  0.00  0.00    -0.328 OA
ATOM     20  C   UNL d   1     -52.694  25.614  38.901  0.00  0.00     0.181 C 
ENDBRANCH  16  19
ENDBRANCH  12  13
ENDBRANCH   3  12
BRANCH   1  21
ATOM     21  P   UNL d   1     -52.233  24.831  33.631  0.00  0.00     0.393 P 
ATOM     22  O   UNL d   1     -52.828  25.379  33.465  0.00  0.00    -0.251 OA
BRANCH  21  23
ATOM     23  O   UNL d   1     -52.696  24.195  33.382  0.00  0.00    -0.263 OA
BRANCH  23  24
ATOM     24  C   UNL d   1     -53.486  24.141  33.613  0.00  0.00     0.126 C 
ATOM     25  C   UNL d   1     -53.969  23.548  33.306  0.00  0.00     0.029 C 
ENDBRANCH  23  24
ENDBRANCH  21  23
BRANCH  21  26
ATOM     26  O   UNL d   1     -51.772  24.143  33.730  0.00  0.00    -0.263 OA
BRANCH  26  27
ATOM     27  C   UNL d   1     -51.071  24.046  33.307  0.00  0.00     0.126 C 
ATOM     28  C   UNL d   1     -50.630  23.354  33.387  0.00  0.00     0.029 C 
ENDBRANCH  26  27
ENDBRANCH  21  26
ENDBRANCH   1  21
BRANCH  10  29
ATOM     29  O   UNL d   1     -49.112  28.101  34.496  0.00  0.00    -0.328 OA
ATOM     30  C   UNL d   1     -48.563  28.431  33.979  0.00  0.00     0.181 C 
ENDBRANCH  10  29
TORSDOF 9
ENDMDL
MODEL 2
REMARK VINA RESULT:      81.1      1.302      3.357
REMARK  9 active torsions:
REMARK  status: ('A' for Active; 'I' for Inactive)
REMARK    1  A    between atoms: P_3  and  C_1 
REMARK    2  A    between atoms: O_13  and  P_3 
REMARK    3  A    between atoms: O_14  and  P_3 
REMARK    4  A    between atoms: N_8  and  C_4 
REMARK    5  A    between atoms: C_15  and  N_8 
REMARK    6  A    between atoms: C_25  and  O_13 
REMARK    7  A    between atoms: C_26  and  O_14 
REMARK    8  A    between atoms: O_23  and  C_16 
REMARK    9  A    between atoms: O_24  and  C_17 
ROOT
ATOM      1  C   UNL d   1     -51.086  25.235  33.738  0.00  0.00     0.174 A 
ATOM      2  C   UNL d   1     -51.569  25.647  34.276  0.00  0.00     0.100 A 
ATOM      3  C   UNL d   1     -52.305  25.339  34.487  0.00  0.00     0.095 A 
ATOM      4  N   UNL d   1     -51.343  24.519  33.417  0.00  0.00    -0.237 NA
ATOM      5  C   UNL d   1     -52.561  24.625  34.167  0.00  0.00     0.038 A 
ATOM      6  C   UNL d   1     -52.077  24.214  33.629  0.00  0.00     0.083 A 
ATOM      7  C   UNL d   1     -53.292  24.323  34.379  0.00  0.00     0.027 A 
ATOM      8 CL   UNL d   1     -51.308  26.366  34.597  0.00  0.00    -0.079 Cl
ATOM      9  C   UNL d   1     -52.332  23.500  33.309  0.00  0.00     0.021 A 
ATOM     10  C   UNL d   1     -53.555  23.601  34.058  0.00  0.00     0.094 A 
ATOM     11  C   UNL d   1     -53.066  23.195  33.521  0.00  0.00     0.026 A 
ENDROOT
BRANCH   3  12
ATOM     12  N   UNL d   1     -52.787  25.749  35.023  0.00  0.00    -0.245 NA
BRANCH  12  13
ATOM     13  C   UNL d   1     -52.567  25.814  35.821  0.00  0.00     0.082 A 
ATOM     14  C   UNL d   1     -53.020  25.440  36.398  0.00  0.00     0.021 A 
ATOM     15  C   UNL d   1     -52.808  25.499  37.201  0.00  0.00     0.026 A 
ATOM     16  C   UNL d   1     -52.137  25.937  37.414  0.00  0.00     0.094 A 
ATOM     17  C   UNL d   1     -51.682  26.313  36.825  0.00  0.00     0.026 A 
ATOM     18  C   UNL d   1     -51.900  26.249  36.032  0.00  0.00     0.021 A 
BRANCH  16  19
ATOM     19  O   UNL d   1     -51.924  25.997  38.210  0.00  0.00    -0.328 OA
ATOM     20  C   UNL d   1     -52.373  26.475  38.721  0.00  0.00     0.181 C 
ENDBRANCH  16  19
ENDBRANCH  12  13
ENDBRANCH   3  12
BRANCH   1  21
ATOM     21  P   UNL d   1     -50.343  25.544  33.523  0.00  0.00     0.393 P 
ATOM     22  O   UNL d   1     -50.633  26.307  33.649  0.00  0.00    -0.251 OA
BRANCH  21  23
ATOM     23  O   UNL d   1     -49.597  25.822  33.306  0.00  0.00    -0.263 OA
BRANCH  23  24
ATOM     24  C   UNL d   1     -49.414  26.622  33.381  0.00  0.00     0.126 C 
ATOM     25  C   UNL d   1     -48.695  26.855  33.710  0.00  0.00     0.029 C 
ENDBRANCH  23  24
ENDBRANCH  21  23
BRANCH  21  26
ATOM     26  O   UNL d   1     -49.879  24.874  33.348  0.00  0.00    -0.263 OA
BRANCH  26  27
ATOM     27  C   UNL d   1     -49.673  24.341  33.943  0.00  0.00     0.126 C 
ATOM     28  C   UNL d   1     -49.000  23.871  33.866  0.00  0.00     0.029 C 
ENDBRANCH  26  27
ENDBRANCH  21  26
ENDBRANCH   1  21
BRANCH  10  29
ATOM     29  O   UNL d   1     -54.289  23.295  34.270  0.00  0.00    -0.328 OA
ATOM     30  C   UNL d   1     -54.884  23.229  33.706  0.00  0.00     0.181 C 
ENDBRANCH  10  29
TORSDOF 9
ENDMDL
MODEL 3
REMARK VINA RESULT:      81.4      1.984      2.826
REMARK  9 active torsions:
REMARK  status: ('A' for Active; 'I' for Inactive)
REMARK    1  A    between atoms: P_3  and  C_1 
REMARK    2  A    between atoms: O_13  and  P_3 
REMARK    3  A    between atoms: O_14  and  P_3 
REMARK    4  A    between atoms: N_8  and  C_4 
REMARK    5  A    between atoms: C_15  and  N_8 
REMARK    6  A    between atoms: C_25  and  O_13 
REMARK    7  A    between atoms: C_26  and  O_14 
REMARK    8  A    between atoms: O_23  and  C_16 
REMARK    9  A    between atoms: O_24  and  C_17 
ROOT
ATOM      1  C   UNL d   1     -51.702  25.149  33.413  0.00  0.00     0.174 A 
ATOM      2  C   UNL d   1     -51.337  25.895  33.372  0.00  0.00     0.100 A 
ATOM      3  C   UNL d   1     -50.513  25.949  33.349  0.00  0.00     0.095 A 
ATOM      4  N   UNL d   1     -51.241  24.464  33.431  0.00  0.00    -0.237 NA
ATOM      5  C   UNL d   1     -50.055  25.266  33.368  0.00  0.00     0.038 A 
ATOM      6  C   UNL d   1     -50.420  24.520  33.409  0.00  0.00     0.083 A 
ATOM      7  C   UNL d   1     -49.238  25.323  33.345  0.00  0.00     0.027 A 
ATOM      8 CL   UNL d   1     -51.802  26.581  33.353  0.00  0.00    -0.079 Cl
ATOM      9  C   UNL d   1     -49.962  23.836  33.427  0.00  0.00     0.021 A 
ATOM     10  C   UNL d   1     -48.769  24.635  33.364  0.00  0.00     0.094 A 
ATOM     11  C   UNL d   1     -49.142  23.892  33.405  0.00  0.00     0.026 A 
ENDROOT
BRANCH   3  12
ATOM     12  N   UNL d   1     -50.148  26.692  33.308  0.00  0.00    -0.245 NA
BRANCH  12  13
ATOM     13  C   UNL d   1     -49.862  27.058  33.996  0.00  0.00     0.082 A 
ATOM     14  C   UNL d   1     -49.188  27.528  33.955  0.00  0.00     0.021 A 
ATOM     15  C   UNL d   1     -48.892  27.900  34.640  0.00  0.00     0.026 A 
ATOM     16  C   UNL d   1     -49.284  27.791  35.362  0.00  0.00     0.094 A 
ATOM     17  C   UNL d   1     -49.966  27.313  35.397  0.00  0.00     0.026 A 
ATOM     18  C   UNL d   1     -50.251  26.950  34.714  0.00  0.00     0.021 A 
BRANCH  16  19
ATOM     19  O   UNL d   1     -48.993  28.158  36.043  0.00  0.00    -0.328 OA
ATOM     20  C   UNL d   1     -48.388  28.725  35.979  0.00  0.00     0.181 C 
ENDBRANCH  16  19
ENDBRANCH  12  13
ENDBRANCH   3  12
BRANCH   1  21
ATOM     21  P   UNL d   1     -52.532  25.092  33.435  0.00  0.00     0.393 P 
ATOM     22  O   UNL d   1     -52.579  25.913  33.510  0.00  0.00    -0.251 OA
BRANCH  21  23
ATOM     23  O   UNL d   1     -53.353  25.005  33.455  0.00  0.00    -0.263 OA
BRANCH  23  24
ATOM     24  C   UNL d   1     -53.690  24.254  33.498  0.00  0.00     0.126 C 
ATOM     25  C   UNL d   1     -53.246  23.587  33.307  0.00  0.00     0.029 C 
ENDBRANCH  23  24
ENDBRANCH  21  23
BRANCH  21  26
ATOM     26  O   UNL d   1     -52.690  24.276  33.369  0.00  0.00    -0.263 OA
BRANCH  26  27
ATOM     27  C   UNL d   1     -52.942  23.844  34.024  0.00  0.00     0.126 C 
ATOM     28  C   UNL d   1     -53.469  23.217  33.931  0.00  0.00     0.029 C 
ENDBRANCH  26  27
ENDBRANCH  21  26
ENDBRANCH   1  21
BRANCH  10  29
ATOM     29  O   UNL d   1     -47.949  24.691  33.342  0.00  0.00    -0.328 OA
ATOM     30  C   UNL d   1     -47.504  24.454  33.992  0.00  0.00     0.181 C 
ENDBRANCH  10  29
TORSDOF 9
ENDMDL
