MODEL 1
REMARK VINA RESULT:      -7.1      0.000      0.000
REMARK  3 active torsions:
REMARK  status: ('A' for Active; 'I' for Inactive)
REMARK    1  A    between atoms: O_7  and  C_1 
REMARK    2  A    between atoms: C_12  and  O_7 
REMARK    3  A    between atoms: O_20  and  C_14 
ROOT
ATOM      1  C   UNL d   1     -47.799  13.251  22.829  0.00  0.00     0.163 A 
ATOM      2  C   UNL d   1     -48.351  13.846  22.849  0.00  0.00     0.222 A 
ATOM      3  C   UNL d   1     -49.023  13.786  22.384  0.00  0.00     0.064 A 
ATOM      4  C   UNL d   1     -49.126  13.116  21.901  0.00  0.00     0.106 A 
ATOM      5  C   UNL d   1     -47.895  12.619  22.373  0.00  0.00     0.150 A 
ATOM      6  O   UNL d   1     -48.553  12.531  21.901  0.00  0.00    -0.303 OA
ATOM      7  C   UNL d   1     -49.601  14.373  22.383  0.00  0.00     0.009 A 
ATOM      8  C   UNL d   1     -49.802  13.058  21.435  0.00  0.00     0.067 A 
ATOM      9  O   UNL d   1     -48.249  14.517  23.332  0.00  0.00    -0.284 OA
ATOM     10  C   UNL d   1     -50.368  13.661  21.452  0.00  0.00     0.198 A 
ATOM     11  C   UNL d   1     -50.271  14.294  21.908  0.00  0.00     0.042 A 
ATOM     12  O   UNL d   1     -51.062  13.615  20.982  0.00  0.00    -0.286 OA
ENDROOT
BRANCH   1  13
ATOM     13  O   UNL d   1     -47.079  13.310  23.323  0.00  0.00    -0.302 OA
BRANCH  13  14
ATOM     14  C   UNL d   1     -46.355  13.086  23.018  0.00  0.00     0.100 A 
ATOM     15  C   UNL d   1     -45.922  13.594  22.505  0.00  0.00     0.027 A 
ATOM     16  C   UNL d   1     -45.198  13.363  22.204  0.00  0.00     0.026 A 
ATOM     17  C   UNL d   1     -44.876  12.605  22.407  0.00  0.00     0.094 A 
ATOM     18  C   UNL d   1     -45.308  12.096  22.920  0.00  0.00     0.026 A 
ATOM     19  C   UNL d   1     -46.043  12.347  23.217  0.00  0.00     0.027 A 
BRANCH  17  20
ATOM     20  O   UNL d   1     -44.138  12.334  22.119  0.00  0.00    -0.328 OA
ATOM     21  C   UNL d   1     -43.661  12.648  21.499  0.00  0.00     0.181 C 
ENDBRANCH  17  20
ENDBRANCH  13  14
ENDBRANCH   1  13
TORSDOF 3
ENDMDL
MODEL 2
REMARK VINA RESULT:      -6.7      0.951      4.503
REMARK  3 active torsions:
REMARK  status: ('A' for Active; 'I' for Inactive)
REMARK    1  A    between atoms: O_7  and  C_1 
REMARK    2  A    between atoms: C_12  and  O_7 
REMARK    3  A    between atoms: O_20  and  C_14 
ROOT
ATOM      1  C   UNL d   1     -47.387  12.910  23.229  0.00  0.00     0.163 A 
ATOM      2  C   UNL d   1     -46.807  12.343  23.280  0.00  0.00     0.222 A 
ATOM      3  C   UNL d   1     -46.084  12.475  22.918  0.00  0.00     0.064 A 
ATOM      4  C   UNL d   1     -45.959  13.185  22.504  0.00  0.00     0.106 A 
ATOM      5  C   UNL d   1     -47.268  13.581  22.838  0.00  0.00     0.150 A 
ATOM      6  O   UNL d   1     -46.561  13.739  22.467  0.00  0.00    -0.303 OA
ATOM      7  C   UNL d   1     -45.477  11.919  22.953  0.00  0.00     0.009 A 
ATOM      8  C   UNL d   1     -45.231  13.315  22.140  0.00  0.00     0.067 A 
ATOM      9  O   UNL d   1     -46.932  11.632  23.695  0.00  0.00    -0.284 OA
ATOM     10  C   UNL d   1     -44.637  12.741  22.190  0.00  0.00     0.198 A 
ATOM     11  C   UNL d   1     -44.756  12.069  22.581  0.00  0.00     0.042 A 
ATOM     12  O   UNL d   1     -43.892  12.859  21.825  0.00  0.00    -0.286 OA
ENDROOT
BRANCH   1  13
ATOM     13  O   UNL d   1     -48.161  12.776  23.614  0.00  0.00    -0.302 OA
BRANCH  13  14
ATOM     14  C   UNL d   1     -48.850  12.978  23.225  0.00  0.00     0.100 A 
ATOM     15  C   UNL d   1     -49.240  12.430  22.718  0.00  0.00     0.027 A 
ATOM     16  C   UNL d   1     -49.930  12.639  22.333  0.00  0.00     0.026 A 
ATOM     17  C   UNL d   1     -50.261  13.414  22.442  0.00  0.00     0.094 A 
ATOM     18  C   UNL d   1     -49.871  13.961  22.949  0.00  0.00     0.026 A 
ATOM     19  C   UNL d   1     -49.170  13.732  23.333  0.00  0.00     0.027 A 
BRANCH  17  20
ATOM     20  O   UNL d   1     -50.965  13.664  22.065  0.00  0.00    -0.328 OA
ATOM     21  C   UNL d   1     -51.064  14.212  21.432  0.00  0.00     0.181 C 
ENDBRANCH  17  20
ENDBRANCH  13  14
ENDBRANCH   1  13
TORSDOF 3
ENDMDL
MODEL 3
REMARK VINA RESULT:      -6.7      1.185      2.018
REMARK  3 active torsions:
REMARK  status: ('A' for Active; 'I' for Inactive)
REMARK    1  A    between atoms: O_7  and  C_1 
REMARK    2  A    between atoms: C_12  and  O_7 
REMARK    3  A    between atoms: O_20  and  C_14 
ROOT
ATOM      1  C   UNL d   1     -48.591  13.341  22.467  0.00  0.00     0.163 A 
ATOM      2  C   UNL d   1     -49.378  13.444  22.292  0.00  0.00     0.222 A 
ATOM      3  C   UNL d   1     -49.790  14.060  22.640  0.00  0.00     0.064 A 
ATOM      4  C   UNL d   1     -49.394  14.568  23.167  0.00  0.00     0.106 A 
ATOM      5  C   UNL d   1     -48.218  13.821  22.965  0.00  0.00     0.150 A 
ATOM      6  O   UNL d   1     -48.601  14.442  23.327  0.00  0.00    -0.303 OA
ATOM      7  C   UNL d   1     -50.588  14.189  22.481  0.00  0.00     0.009 A 
ATOM      8  C   UNL d   1     -49.812  15.188  23.516  0.00  0.00     0.067 A 
ATOM      9  O   UNL d   1     -49.773  12.935  21.764  0.00  0.00    -0.284 OA
ATOM     10  C   UNL d   1     -50.612  15.296  23.340  0.00  0.00     0.198 A 
ATOM     11  C   UNL d   1     -50.986  14.816  22.842  0.00  0.00     0.042 A 
ATOM     12  O   UNL d   1     -51.049  15.922  23.688  0.00  0.00    -0.286 OA
ENDROOT
BRANCH   1  13
ATOM     13  O   UNL d   1     -48.145  12.685  22.099  0.00  0.00    -0.302 OA
BRANCH  13  14
ATOM     14  C   UNL d   1     -47.432  12.446  22.417  0.00  0.00     0.100 A 
ATOM     15  C   UNL d   1     -47.402  11.884  23.043  0.00  0.00     0.027 A 
ATOM     16  C   UNL d   1     -46.685  11.649  23.357  0.00  0.00     0.026 A 
ATOM     17  C   UNL d   1     -45.961  11.973  23.053  0.00  0.00     0.094 A 
ATOM     18  C   UNL d   1     -45.991  12.535  22.428  0.00  0.00     0.026 A 
ATOM     19  C   UNL d   1     -46.729  12.763  22.120  0.00  0.00     0.027 A 
BRANCH  17  20
ATOM     20  O   UNL d   1     -45.208  11.757  23.349  0.00  0.00    -0.328 OA
ATOM     21  C   UNL d   1     -44.932  11.002  23.602  0.00  0.00     0.181 C 
ENDBRANCH  17  20
ENDBRANCH  13  14
ENDBRANCH   1  13
TORSDOF 3
ENDMDL
MODEL 4
REMARK VINA RESULT:      -6.0      7.930      9.449
REMARK  3 active torsions:
REMARK  status: ('A' for Active; 'I' for Inactive)
REMARK    1  A    between atoms: O_7  and  C_1 
REMARK    2  A    between atoms: C_12  and  O_7 
REMARK    3  A    between atoms: O_20  and  C_14 
ROOT
ATOM      1  C   UNL d   1     -40.052  14.937  18.854  0.00  0.00     0.163 A 
ATOM      2  C   UNL d   1     -40.006  14.415  18.233  0.00  0.00     0.222 A 
ATOM      3  C   UNL d   1     -39.553  14.608  17.579  0.00  0.00     0.064 A 
ATOM      4  C   UNL d   1     -39.150  15.336  17.562  0.00  0.00     0.106 A 
ATOM      5  C   UNL d   1     -39.671  15.625  18.838  0.00  0.00     0.150 A 
ATOM      6  O   UNL d   1     -39.214  15.844  18.201  0.00  0.00    -0.303 OA
ATOM      7  C   UNL d   1     -39.488  14.099  16.934  0.00  0.00     0.009 A 
ATOM      8  C   UNL d   1     -38.695  15.528  16.902  0.00  0.00     0.067 A 
ATOM      9  O   UNL d   1     -40.410  13.687  18.250  0.00  0.00    -0.284 OA
ATOM     10  C   UNL d   1     -38.646  14.999  16.268  0.00  0.00     0.198 A 
ATOM     11  C   UNL d   1     -39.027  14.311  16.284  0.00  0.00     0.042 A 
ATOM     12  O   UNL d   1     -38.187  15.181  15.590  0.00  0.00    -0.286 OA
ENDROOT
BRANCH   1  13
ATOM     13  O   UNL d   1     -40.533  14.737  19.556  0.00  0.00    -0.302 OA
BRANCH  13  14
ATOM     14  C   UNL d   1     -40.291  14.975  20.299  0.00  0.00     0.100 A 
ATOM     15  C   UNL d   1     -39.719  14.534  20.731  0.00  0.00     0.027 A 
ATOM     16  C   UNL d   1     -39.481  14.778  21.475  0.00  0.00     0.026 A 
ATOM     17  C   UNL d   1     -39.811  15.481  21.818  0.00  0.00     0.094 A 
ATOM     18  C   UNL d   1     -40.383  15.922  21.385  0.00  0.00     0.026 A 
ATOM     19  C   UNL d   1     -40.613  15.660  20.630  0.00  0.00     0.027 A 
BRANCH  17  20
ATOM     20  O   UNL d   1     -39.592  15.762  22.575  0.00  0.00    -0.328 OA
ATOM     21  C   UNL d   1     -38.823  15.912  22.886  0.00  0.00     0.181 C 
ENDBRANCH  17  20
ENDBRANCH  13  14
ENDBRANCH   1  13
TORSDOF 3
ENDMDL
MODEL 5
REMARK VINA RESULT:      -5.6      8.530      9.265
REMARK  3 active torsions:
REMARK  status: ('A' for Active; 'I' for Inactive)
REMARK    1  A    between atoms: O_7  and  C_1 
REMARK    2  A    between atoms: C_12  and  O_7 
REMARK    3  A    between atoms: O_20  and  C_14 
ROOT
ATOM      1  C   UNL d   1     -38.845  14.597  18.926  0.00  0.00     0.163 A 
ATOM      2  C   UNL d   1     -38.922  15.199  18.386  0.00  0.00     0.222 A 
ATOM      3  C   UNL d   1     -39.600  15.243  17.928  0.00  0.00     0.064 A 
ATOM      4  C   UNL d   1     -40.195  14.670  18.025  0.00  0.00     0.106 A 
ATOM      5  C   UNL d   1     -39.407  14.055  19.017  0.00  0.00     0.150 A 
ATOM      6  O   UNL d   1     -40.091  14.073  18.577  0.00  0.00    -0.303 OA
ATOM      7  C   UNL d   1     -39.706  15.842  17.372  0.00  0.00     0.009 A 
ATOM      8  C   UNL d   1     -40.876  14.717  17.563  0.00  0.00     0.067 A 
ATOM      9  O   UNL d   1     -38.326  15.772  18.289  0.00  0.00    -0.284 OA
ATOM     10  C   UNL d   1     -40.959  15.328  17.012  0.00  0.00     0.198 A 
ATOM     11  C   UNL d   1     -40.396  15.869  16.920  0.00  0.00     0.042 A 
ATOM     12  O   UNL d   1     -41.646  15.388  16.535  0.00  0.00    -0.286 OA
ENDROOT
BRANCH   1  13
ATOM     13  O   UNL d   1     -38.124  14.544  19.418  0.00  0.00    -0.302 OA
BRANCH  13  14
ATOM     14  C   UNL d   1     -38.166  14.237  20.173  0.00  0.00     0.100 A 
ATOM     15  C   UNL d   1     -38.437  14.705  20.819  0.00  0.00     0.027 A 
ATOM     16  C   UNL d   1     -38.477  14.391  21.573  0.00  0.00     0.026 A 
ATOM     17  C   UNL d   1     -38.245  13.586  21.711  0.00  0.00     0.094 A 
ATOM     18  C   UNL d   1     -37.974  13.118  21.066  0.00  0.00     0.026 A 
ATOM     19  C   UNL d   1     -37.940  13.453  20.306  0.00  0.00     0.027 A 
BRANCH  17  20
ATOM     20  O   UNL d   1     -38.272  13.230  22.468  0.00  0.00    -0.328 OA
ATOM     21  C   UNL d   1     -38.834  13.338  23.087  0.00  0.00     0.181 C 
ENDBRANCH  17  20
ENDBRANCH  13  14
ENDBRANCH   1  13
TORSDOF 3
ENDMDL
MODEL 6
REMARK VINA RESULT:      -5.3      7.878      9.427
REMARK  3 active torsions:
REMARK  status: ('A' for Active; 'I' for Inactive)
REMARK    1  A    between atoms: O_7  and  C_1 
REMARK    2  A    between atoms: C_12  and  O_7 
REMARK    3  A    between atoms: O_20  and  C_14 
ROOT
ATOM      1  C   UNL d   1     -40.088  14.899  18.940  0.00  0.00     0.163 A 
ATOM      2  C   UNL d   1     -40.509  15.326  19.488  0.00  0.00     0.222 A 
ATOM      3  C   UNL d   1     -40.208  15.415  20.244  0.00  0.00     0.064 A 
ATOM      4  C   UNL d   1     -39.477  15.067  20.436  0.00  0.00     0.106 A 
ATOM      5  C   UNL d   1     -39.398  14.570  19.121  0.00  0.00     0.150 A 
ATOM      6  O   UNL d   1     -39.074  14.642  19.864  0.00  0.00    -0.303 OA
ATOM      7  C   UNL d   1     -40.612  15.843  20.821  0.00  0.00     0.009 A 
ATOM      8  C   UNL d   1     -39.177  15.159  21.198  0.00  0.00     0.067 A 
ATOM      9  O   UNL d   1     -41.241  15.675  19.296  0.00  0.00    -0.284 OA
ATOM     10  C   UNL d   1     -39.602  15.593  21.759  0.00  0.00     0.198 A 
ATOM     11  C   UNL d   1     -40.293  15.922  21.578  0.00  0.00     0.042 A 
ATOM     12  O   UNL d   1     -39.309  15.694  22.538  0.00  0.00    -0.286 OA
ENDROOT
BRANCH   1  13
ATOM     13  O   UNL d   1     -40.404  14.799  18.130  0.00  0.00    -0.302 OA
BRANCH  13  14
ATOM     14  C   UNL d   1     -39.901  14.838  17.488  0.00  0.00     0.100 A 
ATOM     15  C   UNL d   1     -39.607  14.138  17.123  0.00  0.00     0.027 A 
ATOM     16  C   UNL d   1     -39.104  14.185  16.480  0.00  0.00     0.026 A 
ATOM     17  C   UNL d   1     -38.872  14.942  16.174  0.00  0.00     0.094 A 
ATOM     18  C   UNL d   1     -39.166  15.642  16.540  0.00  0.00     0.026 A 
ATOM     19  C   UNL d   1     -39.677  15.576  17.193  0.00  0.00     0.027 A 
BRANCH  17  20
ATOM     20  O   UNL d   1     -38.359  15.030  15.519  0.00  0.00    -0.328 OA
ATOM     21  C   UNL d   1     -37.940  14.438  15.089  0.00  0.00     0.181 C 
ENDBRANCH  17  20
ENDBRANCH  13  14
ENDBRANCH   1  13
TORSDOF 3
ENDMDL
