MODEL 1
REMARK VINA RESULT:      30.1      0.000      0.000
REMARK  6 active torsions:
REMARK  status: ('A' for Active; 'I' for Inactive)
REMARK    1  A    between atoms: S_2  and  C_1 
REMARK    2  A    between atoms: C_9  and  S_2 
REMARK    3  A    between atoms: N_10  and  C_6 
REMARK    4  A    between atoms: C_13  and  N_10 
REMARK    5  A    between atoms: N_12  and  C_14 
REMARK    6  A    between atoms: C_14  and  C_13 
ROOT
ATOM      1  C   UNL d   1      13.636  12.881  -3.077  0.00  0.00     0.187 A 
ATOM      2  N   UNL d   1      13.844  13.618  -3.372  0.00  0.00    -0.208 NA
ATOM      3  C   UNL d   1      13.122  12.525  -3.614  0.00  0.00     0.118 A 
ATOM      4  S   UNL d   1      13.014  13.048  -4.241  0.00  0.00    -0.035 SA
ATOM      5  C   UNL d   1      13.458  13.721  -4.092  0.00  0.00     0.196 A 
ATOM      6 CL   UNL d   1      12.776  11.779  -3.539  0.00  0.00    -0.073 Cl
ENDROOT
BRANCH   1   7
ATOM      7  S   UNL d   1      13.894  12.550  -2.370  0.00  0.00     0.228 S 
ATOM      8  O   UNL d   1      13.689  11.787  -2.588  0.00  0.00    -0.216 OA
ATOM      9  O   UNL d   1      14.101  13.310  -2.147  0.00  0.00    -0.216 OA
BRANCH   7  10
ATOM     10  C   UNL d   1      14.177  12.296  -1.631  0.00  0.00     0.089 A 
ATOM     11  C   UNL d   1      13.646  12.065  -1.050  0.00  0.00     0.011 A 
ATOM     12  C   UNL d   1      13.925  11.810  -0.308  0.00  0.00     0.001 A 
ATOM     13  C   UNL d   1      14.742  11.789  -0.159  0.00  0.00     0.000 A 
ATOM     14  C   UNL d   1      15.279  12.024  -0.752  0.00  0.00     0.001 A 
ATOM     15  C   UNL d   1      15.000  12.278  -1.488  0.00  0.00     0.011 A 
ENDBRANCH   7  10
ENDBRANCH   1   7
BRANCH   5  16
ATOM     16  N   UNL d   1      13.508  14.380  -4.579  0.00  0.00    -0.218 NA
BRANCH  16  17
ATOM     17  C   UNL d   1      14.130  14.903  -4.478  0.00  0.00     0.120 C 
BRANCH  17  18
ATOM     18  C   UNL d   1      13.990  15.712  -4.500  0.00  0.00     0.101 C 
BRANCH  18  19
ATOM     19  N   UNL d   1      14.617  16.213  -4.296  0.00  0.00    -0.299 N 
ATOM     20  C   UNL d   1      15.162  16.423  -4.870  0.00  0.00     0.100 C 
ATOM     21  C   UNL d   1      14.689  16.493  -3.530  0.00  0.00     0.100 C 
ENDBRANCH  18  19
ENDBRANCH  17  18
ENDBRANCH  16  17
ENDBRANCH   5  16
TORSDOF 6
ENDMDL
