MODEL 1
REMARK VINA RESULT:      69.7      0.000      0.000
REMARK  7 active torsions:
REMARK  status: ('A' for Active; 'I' for Inactive)
REMARK    1  A    between atoms: S_8  and  C_3 
REMARK    2  A    between atoms: C_4  and  C_15 
REMARK       I    between atoms: N_7  and  C_4 
REMARK    3  A    between atoms: C_13  and  C_5 
REMARK    4  A    between atoms: C_6  and  C_9 
REMARK    5  A    between atoms: C_9  and  N_7 
REMARK    6  A    between atoms: C_15  and  S_8 
REMARK    7  A    between atoms: O_17  and  C_11 
ROOT
ATOM      1  S   UNL d   1      60.675  49.361  51.341  0.00  0.00    -0.061 SA
ENDROOT
BRANCH   1   2
ATOM      2  C   UNL d   1      59.897  49.396  51.045  0.00  0.00     0.133 A 
ATOM      3  N   UNL d   1      59.279  49.674  51.516  0.00  0.00    -0.141 NA
ATOM      4  N   UNL d   1      58.506  49.704  51.208  0.00  0.00    -0.148 NA
ATOM      5  C   UNL d   1      58.358  49.457  50.436  0.00  0.00     0.103 A 
ATOM      6  C   UNL d   1      58.977  49.179  49.965  0.00  0.00     0.023 A 
ATOM      7  C   UNL d   1      59.743  49.147  50.266  0.00  0.00     0.029 A 
BRANCH   5   8
ATOM      8  C   UNL d   1      57.591  49.488  50.135  0.00  0.00     0.022 A 
ATOM      9  C   UNL d   1      56.949  49.339  50.630  0.00  0.00     0.022 A 
ATOM     10  C   UNL d   1      56.179  49.370  50.329  0.00  0.00     0.099 A 
ATOM     11  N   UNL d   1      56.054  49.552  49.529  0.00  0.00    -0.242 NA
ATOM     12  C   UNL d   1      56.700  49.702  49.033  0.00  0.00     0.099 A 
ATOM     13  C   UNL d   1      57.466  49.670  49.335  0.00  0.00     0.022 A 
ENDBRANCH   5   8
ENDBRANCH   1   2
BRANCH   1  14
ATOM     14  C   UNL d   1      61.319  49.343  50.824  0.00  0.00     0.099 C 
BRANCH  14  15
ATOM     15  C   UNL d   1      61.700  48.628  50.670  0.00  0.00     0.286 C 
ATOM     16  N   UNL d   1      61.452  47.931  51.054  0.00  0.00    -0.206 NA
ATOM     17  O   UNL d   1      62.329  48.603  50.133  0.00  0.00    -0.265 OA
BRANCH  16  18
ATOM     18  C   UNL d   1      61.833  47.217  50.900  0.00  0.00     0.104 C 
BRANCH  18  19
ATOM     19  C   UNL d   1      61.394  46.514  50.846  0.00  0.00     0.042 A 
ATOM     20  C   UNL d   1      61.596  45.943  50.288  0.00  0.00     0.096 A 
ATOM     21  C   UNL d   1      61.159  45.244  50.234  0.00  0.00     0.024 A 
ATOM     22  C   UNL d   1      60.521  45.116  50.740  0.00  0.00     0.002 A 
ATOM     23  C   UNL d   1      60.319  45.687  51.298  0.00  0.00     0.000 A 
ATOM     24  C   UNL d   1      60.756  46.386  51.351  0.00  0.00     0.004 A 
BRANCH  20  25
ATOM     25  O   UNL d   1      62.249  46.078  49.774  0.00  0.00    -0.328 OA
ATOM     26  C   UNL d   1      62.315  45.648  49.073  0.00  0.00     0.181 C 
ENDBRANCH  20  25
ENDBRANCH  18  19
ENDBRANCH  16  18
ENDBRANCH  14  15
ENDBRANCH   1  14
TORSDOF 7
ENDMDL
