MODEL 1
REMARK VINA RESULT:      67.3      0.000      0.000
REMARK  3 active torsions:
REMARK  status: ('A' for Active; 'I' for Inactive)
REMARK    1  A    between atoms: C_6  and  C_1 
REMARK    2  A    between atoms: N_7  and  C_2 
REMARK       I    between atoms: C_8  and  N_9 
REMARK    3  A    between atoms: C_11  and  C_8 
ROOT
ATOM      1  C   UNL d   1     -55.367-102.088 -38.243  0.00  0.00     0.186 A 
ATOM      2  C   UNL d   1     -55.221-102.075 -39.560  0.00  0.00     0.197 A 
ATOM      3  C   UNL d   1     -55.969-102.358 -39.387  0.00  0.00     0.191 A 
ATOM      4  O   UNL d   1     -54.845-101.905 -38.828  0.00  0.00    -0.270 OA
ATOM      5  N   UNL d   1     -56.064-102.367 -38.546  0.00  0.00    -0.208 NA
ATOM      6  C   UNL d   1     -56.556-102.604 -39.958  0.00  0.00     0.124 C 
ATOM      7  N   UNL d   1     -57.145-102.849 -40.514  0.00  0.00    -0.190 NA
ENDROOT
BRANCH   2   8
ATOM      8  N   UNL d   1     -55.130-102.067 -40.400  0.00  0.00    -0.280 N 
ATOM      9  C   UNL d   1     -55.028-102.779 -40.819  0.00  0.00     0.101 A 
ATOM     10  C   UNL d   1     -54.940-102.784 -41.625  0.00  0.00     0.102 A 
ATOM     11  N   UNL d   1     -54.951-102.056 -42.070  0.00  0.00    -0.267 N 
ATOM     12  C   UNL d   1     -54.855-102.099 -42.922  0.00  0.00     0.288 C 
ATOM     13  C   UNL d   1     -55.058-101.308 -41.633  0.00  0.00     0.102 A 
ATOM     14  O   UNL d   1     -54.753-102.836 -43.314  0.00  0.00    -0.264 OA
ATOM     15  C   UNL d   1     -55.145-101.348 -40.795  0.00  0.00     0.101 A 
BRANCH  12  16
ATOM     16  C   UNL d   1     -54.865-101.371 -43.367  0.00  0.00     0.156 A 
ATOM     17  O   UNL d   1     -54.752-100.585 -43.175  0.00  0.00    -0.300 OA
ATOM     18  C   UNL d   1     -54.835-100.128 -43.870  0.00  0.00     0.123 A 
ATOM     19  C   UNL d   1     -54.999-100.640 -44.484  0.00  0.00     0.029 A 
ATOM     20  C   UNL d   1     -55.020-101.406 -44.186  0.00  0.00     0.032 A 
ENDBRANCH  12  16
ENDBRANCH   2   8
BRANCH   1  21
ATOM     21  C   UNL d   1     -55.467-102.099 -37.401  0.00  0.00     0.052 A 
ATOM     22  C   UNL d   1     -55.357-101.391 -36.970  0.00  0.00     0.061 A 
ATOM     23 CL   UNL d   1     -55.156-100.728 -37.416  0.00  0.00    -0.082 Cl
ATOM     24  C   UNL d   1     -55.450-101.384 -36.155  0.00  0.00     0.011 A 
ATOM     25  C   UNL d   1     -55.650-102.071 -35.762  0.00  0.00     0.001 A 
ATOM     26  C   UNL d   1     -55.761-102.774 -36.177  0.00  0.00     0.000 A 
ATOM     27  C   UNL d   1     -55.669-102.780 -36.983  0.00  0.00     0.004 A 
ENDBRANCH   1  21
TORSDOF 3
ENDMDL
