MODEL 1
REMARK VINA RESULT:      58.7      0.000      0.000
REMARK  6 active torsions:
REMARK  status: ('A' for Active; 'I' for Inactive)
REMARK    1  A    between atoms: C_10  and  C_1 
REMARK    2  A    between atoms: C_4  and  O_8 
REMARK       I    between atoms: N_12  and  C_4 
REMARK    3  A    between atoms: O_8  and  C_13 
REMARK    4  A    between atoms: C_23  and  N_12 
REMARK    5  A    between atoms: C_24  and  N_12 
REMARK    6  A    between atoms: O_22  and  C_19 
ROOT
ATOM      1  C   UNL d   1      13.774  17.591  -5.827  0.00  0.00     0.064 A 
ATOM      2  C   UNL d   1      14.003  17.186  -5.130  0.00  0.00     0.199 A 
ATOM      3  C   UNL d   1      13.758  16.413  -5.004  0.00  0.00     0.062 A 
ATOM      4  C   UNL d   1      13.297  17.210  -6.388  0.00  0.00     0.126 A 
ATOM      5  C   UNL d   1      13.276  16.027  -5.571  0.00  0.00     0.105 A 
ATOM      6  O   UNL d   1      13.044  16.420  -6.263  0.00  0.00    -0.305 OA
ATOM      7  C   UNL d   1      13.028  15.245  -5.443  0.00  0.00     0.050 A 
ATOM      8  C   UNL d   1      13.980  16.001  -4.316  0.00  0.00     0.007 A 
ATOM      9  C   UNL d   1      13.258  14.851  -4.753  0.00  0.00     0.107 A 
ATOM     10  O   UNL d   1      14.477  17.569  -4.574  0.00  0.00    -0.286 OA
ATOM     11  C   UNL d   1      13.731  15.226  -4.193  0.00  0.00     0.025 A 
ENDROOT
BRANCH   1  12
ATOM     12  C   UNL d   1      14.022  18.366  -5.950  0.00  0.00     0.005 A 
ATOM     13  C   UNL d   1      13.502  18.923  -6.266  0.00  0.00     0.002 A 
ATOM     14  C   UNL d   1      13.752  19.698  -6.388  0.00  0.00     0.024 A 
ATOM     15  C   UNL d   1      14.521  19.916  -6.194  0.00  0.00     0.094 A 
ATOM     16  C   UNL d   1      15.044  19.357  -5.877  0.00  0.00     0.024 A 
ATOM     17  C   UNL d   1      14.793  18.585  -5.756  0.00  0.00     0.002 A 
BRANCH  15  18
ATOM     18  O   UNL d   1      14.774  20.689  -6.315  0.00  0.00    -0.328 OA
ATOM     19  C   UNL d   1      15.084  21.121  -5.682  0.00  0.00     0.181 C 
ENDBRANCH  15  18
ENDBRANCH   1  12
BRANCH   9  20
ATOM     20  O   UNL d   1      13.009  14.075  -4.630  0.00  0.00    -0.259 OA
BRANCH  20  21
ATOM     21  C   UNL d   1      13.391  13.606  -4.071  0.00  0.00     0.377 C 
ATOM     22  N   UNL d   1      13.304  12.787  -4.095  0.00  0.00    -0.252 N 
ATOM     23  O   UNL d   1      13.859  13.956  -3.489  0.00  0.00    -0.237 OA
BRANCH  22  24
ATOM     24  C   UNL d   1      13.687  12.316  -3.535  0.00  0.00     0.085 C 
ATOM     25  C   UNL d   1      13.245  11.875  -2.997  0.00  0.00     0.021 C 
ENDBRANCH  22  24
BRANCH  22  26
ATOM     26  C   UNL d   1      12.836  12.438  -4.678  0.00  0.00     0.085 C 
ATOM     27  C   UNL d   1      13.136  11.820  -5.133  0.00  0.00     0.021 C 
ENDBRANCH  22  26
ENDBRANCH  20  21
ENDBRANCH   9  20
TORSDOF 6
ENDMDL
MODEL 2
REMARK VINA RESULT:      60.6      1.634      5.791
REMARK  6 active torsions:
REMARK  status: ('A' for Active; 'I' for Inactive)
REMARK    1  A    between atoms: C_10  and  C_1 
REMARK    2  A    between atoms: C_4  and  O_8 
REMARK       I    between atoms: N_12  and  C_4 
REMARK    3  A    between atoms: O_8  and  C_13 
REMARK    4  A    between atoms: C_23  and  N_12 
REMARK    5  A    between atoms: C_24  and  N_12 
REMARK    6  A    between atoms: O_22  and  C_19 
ROOT
ATOM      1  C   UNL d   1      13.848  14.169  -3.882  0.00  0.00     0.064 A 
ATOM      2  C   UNL d   1      14.246  14.888  -3.719  0.00  0.00     0.199 A 
ATOM      3  C   UNL d   1      14.259  15.488  -4.280  0.00  0.00     0.062 A 
ATOM      4  C   UNL d   1      13.467  14.063  -4.610  0.00  0.00     0.126 A 
ATOM      5  C   UNL d   1      13.873  15.382  -5.016  0.00  0.00     0.105 A 
ATOM      6  O   UNL d   1      13.477  14.673  -5.186  0.00  0.00    -0.305 OA
ATOM      7  C   UNL d   1      13.886  15.988  -5.583  0.00  0.00     0.050 A 
ATOM      8  C   UNL d   1      14.651  16.206  -4.129  0.00  0.00     0.007 A 
ATOM      9  C   UNL d   1      14.280  16.696  -5.417  0.00  0.00     0.107 A 
ATOM     10  O   UNL d   1      14.625  14.989  -2.993  0.00  0.00    -0.286 OA
ATOM     11  C   UNL d   1      14.660  16.804  -4.694  0.00  0.00     0.025 A 
ENDROOT
BRANCH   1  12
ATOM     12  C   UNL d   1      13.839  13.570  -3.316  0.00  0.00     0.005 A 
ATOM     13  C   UNL d   1      13.445  12.862  -3.470  0.00  0.00     0.002 A 
ATOM     14  C   UNL d   1      13.436  12.264  -2.904  0.00  0.00     0.024 A 
ATOM     15  C   UNL d   1      13.820  12.374  -2.185  0.00  0.00     0.094 A 
ATOM     16  C   UNL d   1      14.216  13.086  -2.030  0.00  0.00     0.024 A 
ATOM     17  C   UNL d   1      14.224  13.681  -2.596  0.00  0.00     0.002 A 
BRANCH  15  18
ATOM     18  O   UNL d   1      13.813  11.780  -1.618  0.00  0.00    -0.328 OA
ATOM     19  C   UNL d   1      14.241  11.879  -0.917  0.00  0.00     0.181 C 
ENDBRANCH  15  18
ENDBRANCH   1  12
BRANCH   9  20
ATOM     20  O   UNL d   1      14.290  17.295  -5.982  0.00  0.00    -0.259 OA
BRANCH  20  21
ATOM     21  C   UNL d   1      13.595  17.697  -6.164  0.00  0.00     0.377 C 
ATOM     22  N   UNL d   1      13.597  18.520  -6.206  0.00  0.00    -0.252 N 
ATOM     23  O   UNL d   1      12.900  17.278  -6.305  0.00  0.00    -0.237 OA
BRANCH  22  24
ATOM     24  C   UNL d   1      12.900  18.926  -6.389  0.00  0.00     0.085 C 
ATOM     25  C   UNL d   1      12.771  19.680  -6.084  0.00  0.00     0.021 C 
ENDBRANCH  22  24
BRANCH  22  26
ATOM     26  C   UNL d   1      14.293  18.940  -6.065  0.00  0.00     0.085 C 
ATOM     27  C   UNL d   1      14.384  19.702  -6.364  0.00  0.00     0.021 C 
ENDBRANCH  22  26
ENDBRANCH  20  21
ENDBRANCH   9  20
TORSDOF 6
ENDMDL
MODEL 3
REMARK VINA RESULT:      60.6      1.676      5.748
REMARK  6 active torsions:
REMARK  status: ('A' for Active; 'I' for Inactive)
REMARK    1  A    between atoms: C_10  and  C_1 
REMARK    2  A    between atoms: C_4  and  O_8 
REMARK       I    between atoms: N_12  and  C_4 
REMARK    3  A    between atoms: O_8  and  C_13 
REMARK    4  A    between atoms: C_23  and  N_12 
REMARK    5  A    between atoms: C_24  and  N_12 
REMARK    6  A    between atoms: O_22  and  C_19 
ROOT
ATOM      1  C   UNL d   1      13.472  14.643  -4.948  0.00  0.00     0.064 A 
ATOM      2  C   UNL d   1      13.871  15.302  -4.618  0.00  0.00     0.199 A 
ATOM      3  C   UNL d   1      13.946  15.996  -5.051  0.00  0.00     0.062 A 
ATOM      4  C   UNL d   1      13.152  14.693  -5.711  0.00  0.00     0.126 A 
ATOM      5  C   UNL d   1      13.623  16.047  -5.822  0.00  0.00     0.105 A 
ATOM      6  O   UNL d   1      13.227  15.400  -6.157  0.00  0.00    -0.305 OA
ATOM      7  C   UNL d   1      13.699  16.749  -6.259  0.00  0.00     0.050 A 
ATOM      8  C   UNL d   1      14.340  16.656  -4.733  0.00  0.00     0.007 A 
ATOM      9  C   UNL d   1      14.094  17.396  -5.929  0.00  0.00     0.107 A 
ATOM     10  O   UNL d   1      14.187  15.248  -3.858  0.00  0.00    -0.286 OA
ATOM     11  C   UNL d   1      14.413  17.350  -5.170  0.00  0.00     0.025 A 
ENDROOT
BRANCH   1  12
ATOM     12  C   UNL d   1      13.399  13.949  -4.511  0.00  0.00     0.005 A 
ATOM     13  C   UNL d   1      12.932  13.330  -4.791  0.00  0.00     0.002 A 
ATOM     14  C   UNL d   1      12.860  12.636  -4.353  0.00  0.00     0.024 A 
ATOM     15  C   UNL d   1      13.254  12.562  -3.635  0.00  0.00     0.094 A 
ATOM     16  C   UNL d   1      13.724  13.184  -3.353  0.00  0.00     0.024 A 
ATOM     17  C   UNL d   1      13.794  13.875  -3.792  0.00  0.00     0.002 A 
BRANCH  15  18
ATOM     18  O   UNL d   1      13.185  11.871  -3.196  0.00  0.00    -0.328 OA
ATOM     19  C   UNL d   1      13.632  11.779  -2.506  0.00  0.00     0.181 C 
ENDBRANCH  15  18
ENDBRANCH   1  12
BRANCH   9  20
ATOM     20  O   UNL d   1      14.168  18.091  -6.366  0.00  0.00    -0.259 OA
BRANCH  20  21
ATOM     21  C   UNL d   1      13.550  18.634  -6.376  0.00  0.00     0.377 C 
ATOM     22  N   UNL d   1      13.715  19.442  -6.374  0.00  0.00    -0.252 N 
ATOM     23  O   UNL d   1      12.769  18.372  -6.388  0.00  0.00    -0.237 OA
BRANCH  22  24
ATOM     24  C   UNL d   1      13.095  19.989  -6.385  0.00  0.00     0.085 C 
ATOM     25  C   UNL d   1      12.778  20.265  -5.676  0.00  0.00     0.021 C 
ENDBRANCH  22  24
BRANCH  22  26
ATOM     26  C   UNL d   1      14.497  19.704  -6.362  0.00  0.00     0.085 C 
ATOM     27  C   UNL d   1      14.692  20.403  -5.971  0.00  0.00     0.021 C 
ENDBRANCH  22  26
ENDBRANCH  20  21
ENDBRANCH   9  20
TORSDOF 6
ENDMDL
MODEL 4
REMARK VINA RESULT:      60.7      2.503      6.172
REMARK  6 active torsions:
REMARK  status: ('A' for Active; 'I' for Inactive)
REMARK    1  A    between atoms: C_10  and  C_1 
REMARK    2  A    between atoms: C_4  and  O_8 
REMARK       I    between atoms: N_12  and  C_4 
REMARK    3  A    between atoms: O_8  and  C_13 
REMARK    4  A    between atoms: C_23  and  N_12 
REMARK    5  A    between atoms: C_24  and  N_12 
REMARK    6  A    between atoms: O_22  and  C_19 
ROOT
ATOM      1  C   UNL d   1      14.849  15.291  -1.860  0.00  0.00     0.064 A 
ATOM      2  C   UNL d   1      14.740  15.237  -2.689  0.00  0.00     0.199 A 
ATOM      3  C   UNL d   1      14.787  15.912  -3.155  0.00  0.00     0.062 A 
ATOM      4  C   UNL d   1      15.004  16.027  -1.511  0.00  0.00     0.126 A 
ATOM      5  C   UNL d   1      14.944  16.656  -2.802  0.00  0.00     0.105 A 
ATOM      6  O   UNL d   1      15.053  16.719  -1.983  0.00  0.00    -0.305 OA
ATOM      7  C   UNL d   1      14.991  17.338  -3.274  0.00  0.00     0.050 A 
ATOM      8  C   UNL d   1      14.681  15.870  -3.979  0.00  0.00     0.007 A 
ATOM      9  C   UNL d   1      14.883  17.279  -4.091  0.00  0.00     0.107 A 
ATOM     10  O   UNL d   1      14.586  14.504  -3.033  0.00  0.00    -0.286 OA
ATOM     11  C   UNL d   1      14.729  16.549  -4.442  0.00  0.00     0.025 A 
ENDROOT
BRANCH   1  12
ATOM     12  C   UNL d   1      14.801  14.612  -1.397  0.00  0.00     0.005 A 
ATOM     13  C   UNL d   1      14.973  14.648  -0.591  0.00  0.00     0.002 A 
ATOM     14  C   UNL d   1      14.924  13.968  -0.129  0.00  0.00     0.024 A 
ATOM     15  C   UNL d   1      14.705  13.253  -0.472  0.00  0.00     0.094 A 
ATOM     16  C   UNL d   1      14.533  13.217  -1.282  0.00  0.00     0.024 A 
ATOM     17  C   UNL d   1      14.582  13.896  -1.741  0.00  0.00     0.002 A 
BRANCH  15  18
ATOM     18  O   UNL d   1      14.657  12.573  -0.014  0.00  0.00    -0.328 OA
ATOM     19  C   UNL d   1      14.547  11.840  -0.381  0.00  0.00     0.181 C 
ENDBRANCH  15  18
ENDBRANCH   1  12
BRANCH   9  20
ATOM     20  O   UNL d   1      14.930  17.958  -4.555  0.00  0.00    -0.259 OA
BRANCH  20  21
ATOM     21  C   UNL d   1      14.500  18.007  -5.255  0.00  0.00     0.377 C 
ATOM     22  N   UNL d   1      14.383  18.739  -5.614  0.00  0.00    -0.252 N 
ATOM     23  O   UNL d   1      14.186  17.325  -5.596  0.00  0.00    -0.237 OA
BRANCH  22  24
ATOM     24  C   UNL d   1      13.951  18.790  -6.316  0.00  0.00     0.085 C 
ATOM     25  C   UNL d   1      13.347  19.346  -6.389  0.00  0.00     0.021 C 
ENDBRANCH  22  24
BRANCH  22  26
ATOM     26  C   UNL d   1      14.697  19.422  -5.273  0.00  0.00     0.085 C 
ATOM     27  C   UNL d   1      14.848  20.085  -5.738  0.00  0.00     0.021 C 
ENDBRANCH  22  26
ENDBRANCH  20  21
ENDBRANCH   9  20
TORSDOF 6
ENDMDL
