MODEL 1
REMARK VINA RESULT:     115.1      0.000      0.000
REMARK  4 active torsions:
REMARK  status: ('A' for Active; 'I' for Inactive)
REMARK    1  A    between atoms: N_5  and  C_1 
REMARK    2  A    between atoms: C_10  and  C_2 
REMARK    3  A    between atoms: C_12  and  N_3 
REMARK       I    between atoms: C_8  and  N_5 
REMARK    4  A    between atoms: C_9  and  C_8 
ROOT
ATOM      1  C   UNL d   1      58.783  49.309  52.356  0.00  0.00     0.170 A 
ATOM      2  C   UNL d   1      59.601  49.267  52.241  0.00  0.00     0.076 A 
ATOM      3  N   UNL d   1      58.481  49.484  53.108  0.00  0.00    -0.212 N 
ATOM      4  N   UNL d   1      59.000  49.616  53.737  0.00  0.00    -0.161 NA
ATOM      5  C   UNL d   1      60.117  49.401  52.876  0.00  0.00     0.218 A 
ATOM      6  C   UNL d   1      59.818  49.575  53.622  0.00  0.00     0.140 A 
ATOM      7  O   UNL d   1      60.934  49.359  52.761  0.00  0.00    -0.285 OA
ATOM      8  C   UNL d   1      60.342  49.707  54.251  0.00  0.00     0.026 C 
ENDROOT
BRANCH   1   9
ATOM      9  N   UNL d   1      58.271  49.178  51.732  0.00  0.00    -0.188 NA
ATOM     10  C   UNL d   1      57.529  49.277  51.379  0.00  0.00     0.286 C 
ATOM     11  O   UNL d   1      56.952  49.707  51.778  0.00  0.00    -0.265 OA
BRANCH  10  12
ATOM     12  C   UNL d   1      57.377  48.949  50.644  0.00  0.00     0.087 A 
ATOM     13  S   UNL d   1      56.696  49.055  50.187  0.00  0.00    -0.082 SA
ATOM     14  C   UNL d   1      56.790  48.621  49.495  0.00  0.00     0.036 A 
ATOM     15  C   UNL d   1      57.518  48.246  49.511  0.00  0.00     0.008 A 
ATOM     16  C   UNL d   1      57.888  48.449  50.229  0.00  0.00     0.012 A 
ENDBRANCH  10  12
ENDBRANCH   1   9
BRANCH   2  17
ATOM     17  C   UNL d   1      59.904  49.094  51.497  0.00  0.00     0.006 A 
ATOM     18  C   UNL d   1      59.953  48.314  51.246  0.00  0.00     0.001 A 
ATOM     19  C   UNL d   1      60.259  48.139  50.494  0.00  0.00     0.011 A 
ATOM     20  C   UNL d   1      60.513  48.750  50.005  0.00  0.00     0.058 A 
ATOM     21  C   UNL d   1      60.465  49.539  50.258  0.00  0.00     0.011 A 
ATOM     22 CL   UNL d   1      60.818  48.572  49.259  0.00  0.00    -0.082 Cl
ATOM     23  C   UNL d   1      60.160  49.704  51.005  0.00  0.00     0.001 A 
ENDBRANCH   2  17
BRANCH   3  24
ATOM     24  C   UNL d   1      57.667  49.526  53.225  0.00  0.00     0.085 A 
ATOM     25  C   UNL d   1      57.167  49.665  52.581  0.00  0.00     0.019 A 
ATOM     26  C   UNL d   1      56.345  49.707  52.701  0.00  0.00     0.002 A 
ATOM     27  C   UNL d   1      56.034  49.611  53.452  0.00  0.00     0.000 A 
ATOM     28  C   UNL d   1      56.542  49.472  54.094  0.00  0.00     0.002 A 
ATOM     29  C   UNL d   1      57.356  49.430  53.977  0.00  0.00     0.019 A 
ENDBRANCH   3  24
TORSDOF 4
ENDMDL
