MODEL 1
REMARK VINA RESULT:      -6.6      0.000      0.000
REMARK  3 active torsions:
REMARK  status: ('A' for Active; 'I' for Inactive)
REMARK    1  A    between atoms: N_4  and  C_1 
REMARK    2  A    between atoms: C_9  and  C_3 
REMARK    3  A    between atoms: C_7  and  N_4 
ROOT
ATOM      1  C   UNL d   1     -41.222-122.706 -51.317  0.00  0.00     0.196 A 
ATOM      2  N   UNL d   1     -41.425-122.227 -51.987  0.00  0.00    -0.221 NA
ATOM      3  C   UNL d   1     -41.443-122.723 -52.611  0.00  0.00     0.090 A 
ATOM      4  S   UNL d   1     -41.123-123.470 -51.539  0.00  0.00    -0.046 SA
ATOM      5  C   UNL d   1     -41.260-123.498 -52.363  0.00  0.00     0.058 A 
ENDROOT
BRANCH   1   6
ATOM      6  N   UNL d   1     -41.125-122.456 -50.494  0.00  0.00    -0.202 NA
BRANCH   6   7
ATOM      7  C   UNL d   1     -41.657-122.732 -49.912  0.00  0.00     0.165 A 
ATOM      8  N   UNL d   1     -41.265-123.249 -49.388  0.00  0.00    -0.225 NA
ATOM      9  C   UNL d   1     -41.604-123.647 -48.724  0.00  0.00     0.101 A 
ATOM     10  C   UNL d   1     -42.362-123.628 -48.442  0.00  0.00     0.021 A 
ATOM     11  C   UNL d   1     -43.012-123.198 -48.746  0.00  0.00     0.002 A 
ATOM     12  C   UNL d   1     -43.053-122.698 -49.390  0.00  0.00     0.003 A 
ATOM     13  C   UNL d   1     -42.433-122.487 -49.922  0.00  0.00     0.039 A 
ENDBRANCH   6   7
ENDBRANCH   1   6
BRANCH   3  14
ATOM     14  C   UNL d   1     -41.612-122.538 -53.393  0.00  0.00     0.018 A 
ATOM     15  C   UNL d   1     -41.244-122.955 -53.993  0.00  0.00     0.002 A 
ATOM     16  C   UNL d   1     -41.406-122.777 -54.774  0.00  0.00     0.007 A 
ATOM     17  C   UNL d   1     -41.952-122.167 -54.971  0.00  0.00     0.035 A 
ATOM     18  C   UNL d   1     -42.325-121.746 -54.359  0.00  0.00     0.007 A 
ATOM     19 BR   UNL d   1     -42.148-121.952 -55.743  0.00  0.00    -0.049 Br
ATOM     20  C   UNL d   1     -42.156-121.931 -53.578  0.00  0.00     0.002 A 
ENDBRANCH   3  14
TORSDOF 3
ENDMDL
