MODEL 1
REMARK VINA RESULT:      -8.5      0.000      0.000
REMARK  8 active torsions:
REMARK  status: ('A' for Active; 'I' for Inactive)
REMARK    1  A    between atoms: S_10  and  C_3 
REMARK    2  A    between atoms: C_12  and  C_7 
REMARK    3  A    between atoms: C_15  and  S_10 
REMARK    4  A    between atoms: C_11  and  C_15 
REMARK       I    between atoms: N_16  and  C_11 
REMARK    5  A    between atoms: C_23  and  N_16 
REMARK    6  A    between atoms: O_24  and  C_17 
REMARK    7  A    between atoms: C_18  and  C_29 
REMARK    8  A    between atoms: C_29  and  C_23 
ROOT
ATOM      1  N   UNL d   1      52.172  33.796  53.388  0.00  0.00    -0.186 N 
ATOM      2  N   UNL d   1      52.290  32.996  53.269  0.00  0.00    -0.162 NA
ATOM      3  C   UNL d   1      51.567  34.306  53.147  0.00  0.00     0.217 A 
ATOM      4  C   UNL d   1      52.715  34.243  53.818  0.00  0.00     0.187 A 
ATOM      5  N   UNL d   1      51.745  35.054  53.430  0.00  0.00    -0.120 NA
ATOM      6  N   UNL d   1      52.456  35.015  53.846  0.00  0.00    -0.127 NA
ATOM      7  C   UNL d   1      52.963  32.632  53.585  0.00  0.00     0.102 A 
ATOM      8  C   UNL d   1      53.389  33.875  54.134  0.00  0.00     0.042 A 
ATOM      9  C   UNL d   1      53.510  33.076  54.017  0.00  0.00     0.024 A 
ENDROOT
BRANCH   3  10
ATOM     10  S   UNL d   1      50.898  34.117  52.702  0.00  0.00    -0.041 SA
BRANCH  10  11
ATOM     11  C   UNL d   1      50.248  34.607  52.706  0.00  0.00     0.101 C 
BRANCH  11  12
ATOM     12  C   UNL d   1      49.680  34.540  52.123  0.00  0.00     0.286 C 
ATOM     13  O   UNL d   1      49.814  34.085  51.447  0.00  0.00    -0.265 OA
ATOM     14  N   UNL d   1      48.957  34.930  52.201  0.00  0.00    -0.206 NA
BRANCH  14  15
ATOM     15  C   UNL d   1      48.815  35.387  52.875  0.00  0.00     0.102 C 
BRANCH  15  16
ATOM     16  C   UNL d   1      48.301  36.034  52.830  0.00  0.00     0.021 C 
BRANCH  16  17
ATOM     17  C   UNL d   1      47.791  36.201  53.463  0.00  0.00     0.002 A 
ATOM     18  C   UNL d   1      46.979  36.043  53.400  0.00  0.00     0.002 A 
ATOM     19  C   UNL d   1      46.468  36.210  54.033  0.00  0.00     0.024 A 
ATOM     20  C   UNL d   1      46.772  36.533  54.722  0.00  0.00     0.094 A 
ATOM     21  C   UNL d   1      47.578  36.694  54.793  0.00  0.00     0.024 A 
ATOM     22  C   UNL d   1      48.087  36.529  54.165  0.00  0.00     0.002 A 
BRANCH  20  23
ATOM     23  O   UNL d   1      46.277  36.709  55.370  0.00  0.00    -0.328 OA
ATOM     24  C   UNL d   1      45.490  36.485  55.357  0.00  0.00     0.181 C 
ENDBRANCH  20  23
ENDBRANCH  16  17
ENDBRANCH  15  16
ENDBRANCH  14  15
ENDBRANCH  11  12
ENDBRANCH  10  11
ENDBRANCH   3  10
BRANCH   7  25
ATOM     25  C   UNL d   1      53.086  31.825  53.468  0.00  0.00     0.022 A 
ATOM     26  C   UNL d   1      53.712  31.455  53.834  0.00  0.00     0.022 A 
ATOM     27  C   UNL d   1      53.840  30.658  53.723  0.00  0.00     0.099 A 
ATOM     28  N   UNL d   1      53.336  30.220  53.238  0.00  0.00    -0.242 NA
ATOM     29  C   UNL d   1      52.709  30.596  52.872  0.00  0.00     0.099 A 
ATOM     30  C   UNL d   1      52.584  31.404  52.988  0.00  0.00     0.022 A 
ENDBRANCH   7  25
TORSDOF 8
ENDMDL
MODEL 2
REMARK VINA RESULT:      -8.3      2.061      6.497
REMARK  8 active torsions:
REMARK  status: ('A' for Active; 'I' for Inactive)
REMARK    1  A    between atoms: S_10  and  C_3 
REMARK    2  A    between atoms: C_12  and  C_7 
REMARK    3  A    between atoms: C_15  and  S_10 
REMARK    4  A    between atoms: C_11  and  C_15 
REMARK       I    between atoms: N_16  and  C_11 
REMARK    5  A    between atoms: C_23  and  N_16 
REMARK    6  A    between atoms: O_24  and  C_17 
REMARK    7  A    between atoms: C_18  and  C_29 
REMARK    8  A    between atoms: C_29  and  C_23 
ROOT
ATOM      1  N   UNL d   1      47.709  35.919  53.138  0.00  0.00    -0.186 N 
ATOM      2  N   UNL d   1      47.049  35.738  52.692  0.00  0.00    -0.162 NA
ATOM      3  C   UNL d   1      48.504  35.703  53.061  0.00  0.00     0.217 A 
ATOM      4  C   UNL d   1      47.648  36.404  53.803  0.00  0.00     0.187 A 
ATOM      5  N   UNL d   1      48.917  36.054  53.675  0.00  0.00    -0.120 NA
ATOM      6  N   UNL d   1      48.388  36.488  54.135  0.00  0.00    -0.127 NA
ATOM      7  C   UNL d   1      46.312  36.043  52.911  0.00  0.00     0.102 A 
ATOM      8  C   UNL d   1      46.907  36.709  54.021  0.00  0.00     0.042 A 
ATOM      9  C   UNL d   1      46.246  36.529  53.577  0.00  0.00     0.024 A 
ENDROOT
BRANCH   3  10
ATOM     10  S   UNL d   1      48.840  35.222  52.480  0.00  0.00    -0.041 SA
BRANCH  10  11
ATOM     11  C   UNL d   1      49.573  34.887  52.595  0.00  0.00     0.101 C 
BRANCH  11  12
ATOM     12  C   UNL d   1      49.888  34.387  52.032  0.00  0.00     0.286 C 
ATOM     13  O   UNL d   1      49.430  34.112  51.401  0.00  0.00    -0.265 OA
ATOM     14  N   UNL d   1      50.675  34.146  52.084  0.00  0.00    -0.206 NA
BRANCH  14  15
ATOM     15  C   UNL d   1      51.140  34.416  52.712  0.00  0.00     0.102 C 
BRANCH  15  16
ATOM     16  C   UNL d   1      51.963  34.441  52.632  0.00  0.00     0.021 C 
BRANCH  16  17
ATOM     17  C   UNL d   1      52.446  34.359  53.302  0.00  0.00     0.002 A 
ATOM     18  C   UNL d   1      52.701  33.609  53.545  0.00  0.00     0.002 A 
ATOM     19  C   UNL d   1      53.185  33.528  54.216  0.00  0.00     0.024 A 
ATOM     20  C   UNL d   1      53.408  34.194  54.636  0.00  0.00     0.094 A 
ATOM     21  C   UNL d   1      53.158  34.945  54.401  0.00  0.00     0.024 A 
ATOM     22  C   UNL d   1      52.678  35.027  53.735  0.00  0.00     0.002 A 
BRANCH  20  23
ATOM     23  O   UNL d   1      53.893  34.136  55.312  0.00  0.00    -0.328 OA
ATOM     24  C   UNL d   1      54.529  33.621  55.316  0.00  0.00     0.181 C 
ENDBRANCH  20  23
ENDBRANCH  16  17
ENDBRANCH  15  16
ENDBRANCH  14  15
ENDBRANCH  11  12
ENDBRANCH  10  11
ENDBRANCH   3  10
BRANCH   7  25
ATOM     25  C   UNL d   1      45.643  35.863  52.464  0.00  0.00     0.022 A 
ATOM     26  C   UNL d   1      45.506  36.257  51.765  0.00  0.00     0.022 A 
ATOM     27  C   UNL d   1      44.847  36.083  51.318  0.00  0.00     0.099 A 
ATOM     28  N   UNL d   1      44.314  35.506  51.571  0.00  0.00    -0.242 NA
ATOM     29  C   UNL d   1      44.455  35.113  52.274  0.00  0.00     0.099 A 
ATOM     30  C   UNL d   1      45.124  35.293  52.722  0.00  0.00     0.022 A 
ENDBRANCH   7  25
TORSDOF 8
ENDMDL
MODEL 3
REMARK VINA RESULT:      -8.2      1.606      6.528
REMARK  8 active torsions:
REMARK  status: ('A' for Active; 'I' for Inactive)
REMARK    1  A    between atoms: S_10  and  C_3 
REMARK    2  A    between atoms: C_12  and  C_7 
REMARK    3  A    between atoms: C_15  and  S_10 
REMARK    4  A    between atoms: C_11  and  C_15 
REMARK       I    between atoms: N_16  and  C_11 
REMARK    5  A    between atoms: C_23  and  N_16 
REMARK    6  A    between atoms: O_24  and  C_17 
REMARK    7  A    between atoms: C_18  and  C_29 
REMARK    8  A    between atoms: C_29  and  C_23 
ROOT
ATOM      1  N   UNL d   1      49.220  34.919  52.429  0.00  0.00    -0.186 N 
ATOM      2  N   UNL d   1      48.821  35.289  53.038  0.00  0.00    -0.162 NA
ATOM      3  C   UNL d   1      49.970  34.572  52.390  0.00  0.00     0.217 A 
ATOM      4  C   UNL d   1      48.872  34.838  51.685  0.00  0.00     0.187 A 
ATOM      5  N   UNL d   1      50.072  34.286  51.630  0.00  0.00    -0.120 NA
ATOM      6  N   UNL d   1      49.393  34.451  51.192  0.00  0.00    -0.127 NA
ATOM      7  C   UNL d   1      48.060  35.586  52.906  0.00  0.00     0.102 A 
ATOM      8  C   UNL d   1      48.108  35.138  51.556  0.00  0.00     0.042 A 
ATOM      9  C   UNL d   1      47.707  35.509  52.163  0.00  0.00     0.024 A 
ENDROOT
BRANCH   3  10
ATOM     10  S   UNL d   1      50.529  34.514  52.995  0.00  0.00    -0.041 SA
BRANCH  10  11
ATOM     11  C   UNL d   1      51.254  34.172  52.856  0.00  0.00     0.101 C 
BRANCH  11  12
ATOM     12  C   UNL d   1      51.907  34.407  53.285  0.00  0.00     0.286 C 
ATOM     13  O   UNL d   1      51.981  35.182  53.560  0.00  0.00    -0.265 OA
ATOM     14  N   UNL d   1      52.510  33.869  53.451  0.00  0.00    -0.206 NA
BRANCH  14  15
ATOM     15  C   UNL d   1      52.445  33.091  53.179  0.00  0.00     0.102 C 
BRANCH  15  16
ATOM     16  C   UNL d   1      53.128  32.645  53.045  0.00  0.00     0.021 C 
BRANCH  16  17
ATOM     17  C   UNL d   1      53.125  31.828  53.195  0.00  0.00     0.002 A 
ATOM     18  C   UNL d   1      53.650  31.502  53.748  0.00  0.00     0.002 A 
ATOM     19  C   UNL d   1      53.646  30.685  53.898  0.00  0.00     0.024 A 
ATOM     20  C   UNL d   1      53.121  30.203  53.496  0.00  0.00     0.094 A 
ATOM     21  C   UNL d   1      52.595  30.519  52.944  0.00  0.00     0.024 A 
ATOM     22  C   UNL d   1      52.597  31.331  52.793  0.00  0.00     0.002 A 
BRANCH  20  23
ATOM     23  O   UNL d   1      53.100  29.381  53.631  0.00  0.00    -0.328 OA
ATOM     24  C   UNL d   1      53.273  29.083  54.373  0.00  0.00     0.181 C 
ENDBRANCH  20  23
ENDBRANCH  16  17
ENDBRANCH  15  16
ENDBRANCH  14  15
ENDBRANCH  11  12
ENDBRANCH  10  11
ENDBRANCH   3  10
BRANCH   7  25
ATOM     25  C   UNL d   1      47.654  35.961  53.519  0.00  0.00     0.022 A 
ATOM     26  C   UNL d   1      48.070  36.307  54.128  0.00  0.00     0.022 A 
ATOM     27  C   UNL d   1      47.676  36.679  54.736  0.00  0.00     0.099 A 
ATOM     28  N   UNL d   1      46.851  36.707  54.739  0.00  0.00    -0.242 NA
ATOM     29  C   UNL d   1      46.437  36.359  54.126  0.00  0.00     0.099 A 
ATOM     30  C   UNL d   1      46.842  35.984  53.513  0.00  0.00     0.022 A 
ENDBRANCH   7  25
TORSDOF 8
ENDMDL
MODEL 4
REMARK VINA RESULT:      -7.1      1.243      1.670
REMARK  8 active torsions:
REMARK  status: ('A' for Active; 'I' for Inactive)
REMARK    1  A    between atoms: S_10  and  C_3 
REMARK    2  A    between atoms: C_12  and  C_7 
REMARK    3  A    between atoms: C_15  and  S_10 
REMARK    4  A    between atoms: C_11  and  C_15 
REMARK       I    between atoms: N_16  and  C_11 
REMARK    5  A    between atoms: C_23  and  N_16 
REMARK    6  A    between atoms: O_24  and  C_17 
REMARK    7  A    between atoms: C_18  and  C_29 
REMARK    8  A    between atoms: C_29  and  C_23 
ROOT
ATOM      1  N   UNL d   1      53.066  33.516  53.856  0.00  0.00    -0.186 N 
ATOM      2  N   UNL d   1      53.127  32.739  53.613  0.00  0.00    -0.162 NA
ATOM      3  C   UNL d   1      52.760  34.189  53.484  0.00  0.00     0.217 A 
ATOM      4  C   UNL d   1      53.339  33.748  54.600  0.00  0.00     0.187 A 
ATOM      5  N   UNL d   1      52.849  34.820  53.999  0.00  0.00    -0.120 NA
ATOM      6  N   UNL d   1      53.208  34.547  54.690  0.00  0.00    -0.127 NA
ATOM      7  C   UNL d   1      53.466  32.179  54.119  0.00  0.00     0.102 A 
ATOM      8  C   UNL d   1      53.680  33.184  55.105  0.00  0.00     0.042 A 
ATOM      9  C   UNL d   1      53.742  32.406  54.864  0.00  0.00     0.024 A 
ENDROOT
BRANCH   3  10
ATOM     10  S   UNL d   1      52.423  34.238  52.732  0.00  0.00    -0.041 SA
BRANCH  10  11
ATOM     11  C   UNL d   1      51.636  34.423  52.644  0.00  0.00     0.101 C 
BRANCH  11  12
ATOM     12  C   UNL d   1      51.283  34.378  51.909  0.00  0.00     0.286 C 
ATOM     13  O   UNL d   1      51.727  34.209  51.233  0.00  0.00    -0.265 OA
ATOM     14  N   UNL d   1      50.471  34.500  51.830  0.00  0.00    -0.206 NA
BRANCH  14  15
ATOM     15  C   UNL d   1      50.020  34.669  52.501  0.00  0.00     0.102 C 
BRANCH  15  16
ATOM     16  C   UNL d   1      49.228  34.433  52.534  0.00  0.00     0.021 C 
BRANCH  16  17
ATOM     17  C   UNL d   1      48.626  35.004  52.536  0.00  0.00     0.002 A 
ATOM     18  C   UNL d   1      48.533  35.512  53.186  0.00  0.00     0.002 A 
ATOM     19  C   UNL d   1      47.930  36.084  53.188  0.00  0.00     0.024 A 
ATOM     20  C   UNL d   1      47.427  36.142  52.545  0.00  0.00     0.094 A 
ATOM     21  C   UNL d   1      47.512  35.641  51.895  0.00  0.00     0.024 A 
ATOM     22  C   UNL d   1      48.111  35.073  51.891  0.00  0.00     0.002 A 
BRANCH  20  23
ATOM     23  O   UNL d   1      46.816  36.709  52.526  0.00  0.00    -0.328 OA
ATOM     24  C   UNL d   1      46.067  36.513  52.794  0.00  0.00     0.181 C 
ENDBRANCH  20  23
ENDBRANCH  16  17
ENDBRANCH  15  16
ENDBRANCH  14  15
ENDBRANCH  11  12
ENDBRANCH  10  11
ENDBRANCH   3  10
BRANCH   7  25
ATOM     25  C   UNL d   1      53.530  31.393  53.878  0.00  0.00     0.022 A 
ATOM     26  C   UNL d   1      53.023  30.834  54.184  0.00  0.00     0.022 A 
ATOM     27  C   UNL d   1      53.079  30.055  53.950  0.00  0.00     0.099 A 
ATOM     28  N   UNL d   1      53.652  29.828  53.401  0.00  0.00    -0.242 NA
ATOM     29  C   UNL d   1      54.159  30.392  53.095  0.00  0.00     0.099 A 
ATOM     30  C   UNL d   1      54.096  31.179  53.336  0.00  0.00     0.022 A 
ENDBRANCH   7  25
TORSDOF 8
ENDMDL
MODEL 5
REMARK VINA RESULT:      -6.9      1.342      2.405
REMARK  8 active torsions:
REMARK  status: ('A' for Active; 'I' for Inactive)
REMARK    1  A    between atoms: S_10  and  C_3 
REMARK    2  A    between atoms: C_12  and  C_7 
REMARK    3  A    between atoms: C_15  and  S_10 
REMARK    4  A    between atoms: C_11  and  C_15 
REMARK       I    between atoms: N_16  and  C_11 
REMARK    5  A    between atoms: C_23  and  N_16 
REMARK    6  A    between atoms: O_24  and  C_17 
REMARK    7  A    between atoms: C_18  and  C_29 
REMARK    8  A    between atoms: C_29  and  C_23 
ROOT
ATOM      1  N   UNL d   1      52.780  32.627  53.315  0.00  0.00    -0.186 N 
ATOM      2  N   UNL d   1      53.309  33.075  53.747  0.00  0.00    -0.162 NA
ATOM      3  C   UNL d   1      52.123  32.838  52.858  0.00  0.00     0.217 A 
ATOM      4  C   UNL d   1      52.849  31.806  53.283  0.00  0.00     0.187 A 
ATOM      5  N   UNL d   1      51.801  32.149  52.553  0.00  0.00    -0.120 NA
ATOM      6  N   UNL d   1      52.250  31.510  52.816  0.00  0.00    -0.127 NA
ATOM      7  C   UNL d   1      53.922  32.698  54.156  0.00  0.00     0.102 A 
ATOM      8  C   UNL d   1      53.465  31.431  53.695  0.00  0.00     0.042 A 
ATOM      9  C   UNL d   1      53.997  31.876  54.128  0.00  0.00     0.024 A 
ENDROOT
BRANCH   3  10
ATOM     10  S   UNL d   1      51.830  33.597  52.720  0.00  0.00    -0.041 SA
BRANCH  10  11
ATOM     11  C   UNL d   1      51.112  33.701  52.350  0.00  0.00     0.101 C 
BRANCH  11  12
ATOM     12  C   UNL d   1      51.042  34.231  51.733  0.00  0.00     0.286 C 
ATOM     13  O   UNL d   1      51.654  34.335  51.188  0.00  0.00    -0.265 OA
ATOM     14  N   UNL d   1      50.353  34.676  51.645  0.00  0.00    -0.206 NA
BRANCH  14  15
ATOM     15  C   UNL d   1      49.736  34.579  52.186  0.00  0.00     0.102 C 
BRANCH  15  16
ATOM     16  C   UNL d   1      48.957  34.732  51.953  0.00  0.00     0.021 C 
BRANCH  16  17
ATOM     17  C   UNL d   1      48.477  35.227  52.415  0.00  0.00     0.002 A 
ATOM     18  C   UNL d   1      48.732  35.479  53.162  0.00  0.00     0.002 A 
ATOM     19  C   UNL d   1      48.251  35.975  53.624  0.00  0.00     0.024 A 
ATOM     20  C   UNL d   1      47.523  36.213  53.336  0.00  0.00     0.094 A 
ATOM     21  C   UNL d   1      47.261  35.966  52.594  0.00  0.00     0.024 A 
ATOM     22  C   UNL d   1      47.737  35.474  52.133  0.00  0.00     0.002 A 
BRANCH  20  23
ATOM     23  O   UNL d   1      47.024  36.709  53.783  0.00  0.00    -0.328 OA
ATOM     24  C   UNL d   1      46.984  36.625  54.597  0.00  0.00     0.181 C 
ENDBRANCH  20  23
ENDBRANCH  16  17
ENDBRANCH  15  16
ENDBRANCH  14  15
ENDBRANCH  11  12
ENDBRANCH  10  11
ENDBRANCH   3  10
BRANCH   7  25
ATOM     25  C   UNL d   1      54.459  33.146  54.594  0.00  0.00     0.022 A 
ATOM     26  C   UNL d   1      55.092  33.496  54.220  0.00  0.00     0.022 A 
ATOM     27  C   UNL d   1      55.627  33.940  54.645  0.00  0.00     0.099 A 
ATOM     28  N   UNL d   1      55.530  34.037  55.459  0.00  0.00    -0.242 NA
ATOM     29  C   UNL d   1      54.894  33.684  55.831  0.00  0.00     0.099 A 
ATOM     30  C   UNL d   1      54.355  33.236  55.394  0.00  0.00     0.022 A 
ENDBRANCH   7  25
TORSDOF 8
ENDMDL
