MODEL 1
REMARK VINA RESULT:     -10.0      0.000      0.000
REMARK  3 active torsions:
REMARK  status: ('A' for Active; 'I' for Inactive)
REMARK    1  A    between atoms: N_2  and  C_12 
REMARK    2  A    between atoms: N_10  and  C_6 
REMARK       I    between atoms: C_11  and  N_10 
REMARK    3  A    between atoms: C_12  and  C_11 
ROOT
ATOM      1  C   UNL d   1      53.803  34.298  54.716  0.00  0.00     0.283 A 
ATOM      2  N   UNL d   1      53.625  35.075  54.999  0.00  0.00    -0.169 NA
ATOM      3  C   UNL d   1      53.248  34.180  54.073  0.00  0.00     0.080 A 
ATOM      4  C   UNL d   1      53.025  35.373  54.559  0.00  0.00     0.282 A 
ATOM      5  C   UNL d   1      53.139  33.535  53.574  0.00  0.00     0.089 A 
ATOM      6  C   UNL d   1      52.791  34.862  54.010  0.00  0.00     0.064 A 
ATOM      7  O   UNL d   1      54.380  33.727  54.969  0.00  0.00    -0.265 OA
ATOM      8  O   UNL d   1      52.702  36.142  54.687  0.00  0.00    -0.265 OA
ATOM      9  C   UNL d   1      52.546  33.578  52.987  0.00  0.00     0.019 A 
ATOM     10  C   UNL d   1      52.203  34.892  53.422  0.00  0.00     0.005 A 
ATOM     11  C   UNL d   1      52.100  34.264  52.940  0.00  0.00     0.002 A 
ENDROOT
BRANCH   5  12
ATOM     12  N   UNL d   1      53.630  32.802  53.640  0.00  0.00    -0.207 NA
ATOM     13  C   UNL d   1      53.288  32.101  53.355  0.00  0.00     0.297 C 
ATOM     14  O   UNL d   1      52.551  32.071  53.031  0.00  0.00    -0.264 OA
BRANCH  13  15
ATOM     15  C   UNL d   1      53.751  31.422  53.420  0.00  0.00     0.148 C 
BRANCH  15  16
ATOM     16  N   UNL d   1      53.367  30.699  53.448  0.00  0.00    -0.236 N 
ATOM     17  C   UNL d   1      53.019  30.246  52.836  0.00  0.00     0.267 A 
ATOM     18  C   UNL d   1      52.708  29.553  53.197  0.00  0.00     0.066 A 
ATOM     19  O   UNL d   1      52.988  30.445  52.017  0.00  0.00    -0.267 OA
ATOM     20  C   UNL d   1      52.866  29.596  53.997  0.00  0.00     0.066 A 
ATOM     21  C   UNL d   1      53.280  30.314  54.156  0.00  0.00     0.267 A 
ATOM     22  O   UNL d   1      53.563  30.611  54.888  0.00  0.00    -0.267 OA
ENDBRANCH  15  16
ENDBRANCH  13  15
ENDBRANCH   5  12
TORSDOF 3
ENDMDL
MODEL 2
REMARK VINA RESULT:      -8.2      1.785      3.613
REMARK  3 active torsions:
REMARK  status: ('A' for Active; 'I' for Inactive)
REMARK    1  A    between atoms: N_2  and  C_12 
REMARK    2  A    between atoms: N_10  and  C_6 
REMARK       I    between atoms: C_11  and  N_10 
REMARK    3  A    between atoms: C_12  and  C_11 
ROOT
ATOM      1  C   UNL d   1      53.750  34.417  54.765  0.00  0.00     0.283 A 
ATOM      2  N   UNL d   1      54.246  34.192  55.412  0.00  0.00    -0.169 NA
ATOM      3  C   UNL d   1      53.632  33.688  54.331  0.00  0.00     0.080 A 
ATOM      4  C   UNL d   1      54.398  33.406  55.353  0.00  0.00     0.282 A 
ATOM      5  C   UNL d   1      53.202  33.538  53.646  0.00  0.00     0.089 A 
ATOM      6  C   UNL d   1      54.045  33.094  54.724  0.00  0.00     0.064 A 
ATOM      7  O   UNL d   1      53.418  35.170  54.548  0.00  0.00    -0.265 OA
ATOM      8  O   UNL d   1      54.878  32.990  55.908  0.00  0.00    -0.265 OA
ATOM      9  C   UNL d   1      53.186  32.759  53.344  0.00  0.00     0.019 A 
ATOM     10  C   UNL d   1      54.022  32.322  54.413  0.00  0.00     0.005 A 
ATOM     11  C   UNL d   1      53.603  32.181  53.749  0.00  0.00     0.002 A 
ENDROOT
BRANCH   5  12
ATOM     12  N   UNL d   1      52.757  34.176  53.223  0.00  0.00    -0.207 NA
ATOM     13  C   UNL d   1      52.073  33.941  52.814  0.00  0.00     0.297 C 
ATOM     14  O   UNL d   1      51.813  33.179  52.794  0.00  0.00    -0.264 OA
BRANCH  13  15
ATOM     15  C   UNL d   1      51.664  34.540  52.422  0.00  0.00     0.148 C 
BRANCH  15  16
ATOM     16  N   UNL d   1      50.858  34.443  52.312  0.00  0.00    -0.236 N 
ATOM     17  C   UNL d   1      50.225  34.500  52.857  0.00  0.00     0.267 A 
ATOM     18  C   UNL d   1      49.521  34.345  52.425  0.00  0.00     0.066 A 
ATOM     19  O   UNL d   1      50.284  34.680  53.679  0.00  0.00    -0.267 OA
ATOM     20  C   UNL d   1      49.731  34.200  51.649  0.00  0.00     0.066 A 
ATOM     21  C   UNL d   1      50.569  34.261  51.576  0.00  0.00     0.267 A 
ATOM     22  O   UNL d   1      51.050  34.161  50.896  0.00  0.00    -0.267 OA
ENDBRANCH  15  16
ENDBRANCH  13  15
ENDBRANCH   5  12
TORSDOF 3
ENDMDL
MODEL 3
REMARK VINA RESULT:      -7.7      1.044      4.333
REMARK  3 active torsions:
REMARK  status: ('A' for Active; 'I' for Inactive)
REMARK    1  A    between atoms: N_2  and  C_12 
REMARK    2  A    between atoms: N_10  and  C_6 
REMARK       I    between atoms: C_11  and  N_10 
REMARK    3  A    between atoms: C_12  and  C_11 
ROOT
ATOM      1  C   UNL d   1      52.923  30.846  52.684  0.00  0.00     0.283 A 
ATOM      2  N   UNL d   1      52.702  30.031  52.647  0.00  0.00    -0.169 NA
ATOM      3  C   UNL d   1      53.208  30.948  53.487  0.00  0.00     0.080 A 
ATOM      4  C   UNL d   1      52.846  29.697  53.362  0.00  0.00     0.282 A 
ATOM      5  C   UNL d   1      53.502  31.614  53.868  0.00  0.00     0.089 A 
ATOM      6  C   UNL d   1      53.144  30.220  53.868  0.00  0.00     0.064 A 
ATOM      7  O   UNL d   1      52.894  31.463  52.099  0.00  0.00    -0.265 OA
ATOM      8  O   UNL d   1      52.690  28.884  53.527  0.00  0.00    -0.265 OA
ATOM      9  C   UNL d   1      53.742  31.546  54.666  0.00  0.00     0.019 A 
ATOM     10  C   UNL d   1      53.385  30.166  54.662  0.00  0.00     0.005 A 
ATOM     11  C   UNL d   1      53.671  30.815  55.029  0.00  0.00     0.002 A 
ENDROOT
BRANCH   5  12
ATOM     12  N   UNL d   1      53.572  32.396  53.460  0.00  0.00    -0.207 NA
ATOM     13  C   UNL d   1      53.555  33.069  53.945  0.00  0.00     0.297 C 
ATOM     14  O   UNL d   1      53.479  33.032  54.747  0.00  0.00    -0.264 OA
BRANCH  13  15
ATOM     15  C   UNL d   1      53.620  33.795  53.559  0.00  0.00     0.148 C 
BRANCH  15  16
ATOM     16  N   UNL d   1      53.149  34.411  53.821  0.00  0.00    -0.236 N 
ATOM     17  C   UNL d   1      52.361  34.614  53.625  0.00  0.00     0.267 A 
ATOM     18  C   UNL d   1      52.171  35.302  54.068  0.00  0.00     0.066 A 
ATOM     19  O   UNL d   1      51.856  34.206  53.087  0.00  0.00    -0.267 OA
ATOM     20  C   UNL d   1      52.828  35.501  54.512  0.00  0.00     0.066 A 
ATOM     21  C   UNL d   1      53.442  34.943  54.359  0.00  0.00     0.267 A 
ATOM     22  O   UNL d   1      54.217  34.908  54.678  0.00  0.00    -0.267 OA
ENDBRANCH  15  16
ENDBRANCH  13  15
ENDBRANCH   5  12
TORSDOF 3
ENDMDL
MODEL 4
REMARK VINA RESULT:      -7.1      1.486      4.184
REMARK  3 active torsions:
REMARK  status: ('A' for Active; 'I' for Inactive)
REMARK    1  A    between atoms: N_2  and  C_12 
REMARK    2  A    between atoms: N_10  and  C_6 
REMARK       I    between atoms: C_11  and  N_10 
REMARK    3  A    between atoms: C_12  and  C_11 
ROOT
ATOM      1  C   UNL d   1      52.866  31.252  52.834  0.00  0.00     0.283 A 
ATOM      2  N   UNL d   1      53.044  30.467  53.093  0.00  0.00    -0.169 NA
ATOM      3  C   UNL d   1      53.206  31.753  53.441  0.00  0.00     0.080 A 
ATOM      4  C   UNL d   1      53.448  30.515  53.785  0.00  0.00     0.282 A 
ATOM      5  C   UNL d   1      53.221  32.573  53.511  0.00  0.00     0.089 A 
ATOM      6  C   UNL d   1      53.553  31.262  54.004  0.00  0.00     0.064 A 
ATOM      7  O   UNL d   1      52.453  31.537  52.147  0.00  0.00    -0.265 OA
ATOM      8  O   UNL d   1      53.717  29.834  54.204  0.00  0.00    -0.265 OA
ATOM      9  C   UNL d   1      53.599  32.912  54.174  0.00  0.00     0.019 A 
ATOM     10  C   UNL d   1      53.927  31.612  54.659  0.00  0.00     0.005 A 
ATOM     11  C   UNL d   1      53.939  32.408  54.724  0.00  0.00     0.002 A 
ENDROOT
BRANCH   5  12
ATOM     12  N   UNL d   1      52.848  33.101  52.907  0.00  0.00    -0.207 NA
ATOM     13  C   UNL d   1      52.539  33.820  53.185  0.00  0.00     0.297 C 
ATOM     14  O   UNL d   1      52.567  34.041  53.960  0.00  0.00    -0.264 OA
BRANCH  13  15
ATOM     15  C   UNL d   1      52.193  34.308  52.617  0.00  0.00     0.148 C 
BRANCH  15  16
ATOM     16  N   UNL d   1      51.386  34.437  52.665  0.00  0.00    -0.236 N 
ATOM     17  C   UNL d   1      50.923  34.753  53.286  0.00  0.00     0.267 A 
ATOM     18  C   UNL d   1      50.126  34.752  53.017  0.00  0.00     0.066 A 
ATOM     19  O   UNL d   1      51.201  35.019  54.036  0.00  0.00    -0.267 OA
ATOM     20  C   UNL d   1      50.119  34.445  52.260  0.00  0.00     0.066 A 
ATOM     21  C   UNL d   1      50.908  34.248  52.037  0.00  0.00     0.267 A 
ATOM     22  O   UNL d   1      51.188  33.918  51.319  0.00  0.00    -0.267 OA
ENDBRANCH  15  16
ENDBRANCH  13  15
ENDBRANCH   5  12
TORSDOF 3
ENDMDL
MODEL 5
REMARK VINA RESULT:      -7.0      3.782      4.888
REMARK  3 active torsions:
REMARK  status: ('A' for Active; 'I' for Inactive)
REMARK    1  A    between atoms: N_2  and  C_12 
REMARK    2  A    between atoms: N_10  and  C_6 
REMARK       I    between atoms: C_11  and  N_10 
REMARK    3  A    between atoms: C_12  and  C_11 
ROOT
ATOM      1  C   UNL d   1      48.081  36.050  53.024  0.00  0.00     0.283 A 
ATOM      2  N   UNL d   1      47.351  36.397  52.776  0.00  0.00    -0.169 NA
ATOM      3  C   UNL d   1      48.308  35.550  52.366  0.00  0.00     0.080 A 
ATOM      4  C   UNL d   1      47.176  36.121  52.043  0.00  0.00     0.282 A 
ATOM      5  C   UNL d   1      48.964  35.065  52.265  0.00  0.00     0.089 A 
ATOM      6  C   UNL d   1      47.727  35.622  51.786  0.00  0.00     0.064 A 
ATOM      7  O   UNL d   1      48.529  36.139  53.742  0.00  0.00    -0.265 OA
ATOM      8  O   UNL d   1      46.483  36.352  51.621  0.00  0.00    -0.265 OA
ATOM      9  C   UNL d   1      49.040  34.635  51.553  0.00  0.00     0.019 A 
ATOM     10  C   UNL d   1      47.814  35.189  51.082  0.00  0.00     0.005 A 
ATOM     11  C   UNL d   1      48.452  34.719  50.988  0.00  0.00     0.002 A 
ENDROOT
BRANCH   5  12
ATOM     12  N   UNL d   1      49.588  34.986  52.887  0.00  0.00    -0.207 NA
ATOM     13  C   UNL d   1      50.253  34.529  52.688  0.00  0.00     0.297 C 
ATOM     14  O   UNL d   1      50.341  34.169  51.973  0.00  0.00    -0.264 OA
BRANCH  13  15
ATOM     15  C   UNL d   1      50.831  34.460  53.272  0.00  0.00     0.148 C 
BRANCH  15  16
ATOM     16  N   UNL d   1      51.419  33.901  53.163  0.00  0.00    -0.236 N 
ATOM     17  C   UNL d   1      51.397  33.068  53.239  0.00  0.00     0.267 A 
ATOM     18  C   UNL d   1      52.168  32.788  53.058  0.00  0.00     0.066 A 
ATOM     19  O   UNL d   1      50.729  32.600  53.456  0.00  0.00    -0.267 OA
ATOM     20  C   UNL d   1      52.633  33.436  52.879  0.00  0.00     0.066 A 
ATOM     21  C   UNL d   1      52.165  34.135  52.945  0.00  0.00     0.267 A 
ATOM     22  O   UNL d   1      52.386  34.934  52.819  0.00  0.00    -0.267 OA
ENDBRANCH  15  16
ENDBRANCH  13  15
ENDBRANCH   5  12
TORSDOF 3
ENDMDL
