MODEL 1
REMARK VINA RESULT:      -3.8      0.000      0.000
REMARK  5 active torsions:
REMARK  status: ('A' for Active; 'I' for Inactive)
REMARK    1  A    between atoms: C_5  and  C_1 
REMARK    2  A    between atoms: O_8  and  C_2 
REMARK    3  A    between atoms: C_20  and  O_8 
REMARK    4  A    between atoms: C_11  and  O_14 
REMARK    5  A    between atoms: O_14  and  C_13 
ROOT
ATOM      1  C   UNL d   1      58.934   0.033  29.783  0.00  0.00     0.197 A 
ATOM      2  C   UNL d   1      58.606  -0.703  29.598  0.00  0.00     0.165 A 
ATOM      3  O   UNL d   1      58.667   0.437  30.430  0.00  0.00    -0.301 OA
ATOM      4  C   UNL d   1      58.010  -1.026  30.066  0.00  0.00     0.222 A 
ATOM      5  C   UNL d   1      58.073   0.123  30.904  0.00  0.00     0.105 A 
ATOM      6  C   UNL d   1      57.745  -0.613  30.717  0.00  0.00     0.064 A 
ATOM      7  C   UNL d   1      57.801   0.534  31.563  0.00  0.00     0.050 A 
ATOM      8  C   UNL d   1      57.146  -0.930  31.195  0.00  0.00     0.007 A 
ATOM      9  O   UNL d   1      57.685  -1.755  29.881  0.00  0.00    -0.284 OA
ATOM     10  C   UNL d   1      57.218   0.225  32.027  0.00  0.00     0.105 A 
ATOM     11  C   UNL d   1      56.889  -0.509  31.844  0.00  0.00     0.025 A 
ENDROOT
BRANCH   2  12
ATOM     12  O   UNL d   1      58.866  -1.138  28.934  0.00  0.00    -0.302 OA
BRANCH  12  13
ATOM     13  C   UNL d   1      59.220  -1.875  29.026  0.00  0.00     0.100 A 
ATOM     14  C   UNL d   1      59.919  -1.951  29.448  0.00  0.00     0.025 A 
ATOM     15  C   UNL d   1      60.271  -2.692  29.538  0.00  0.00     0.002 A 
ATOM     16  C   UNL d   1      59.918  -3.360  29.202  0.00  0.00     0.000 A 
ATOM     17  C   UNL d   1      59.209  -3.289  28.773  0.00  0.00     0.002 A 
ATOM     18  C   UNL d   1      58.859  -2.546  28.684  0.00  0.00     0.025 A 
ENDBRANCH  12  13
ENDBRANCH   2  12
BRANCH   1  19
ATOM     19  C   UNL d   1      59.523   0.355  29.322  0.00  0.00     0.442 C 
ATOM     20  F   UNL d   1      60.156   0.682  28.925  0.00  0.00    -0.164 F 
ATOM     21  F   UNL d   1      59.425   0.492  28.455  0.00  0.00    -0.164 F 
ATOM     22  F   UNL d   1      60.170   0.531  29.696  0.00  0.00    -0.164 F 
ENDBRANCH   1  19
BRANCH  10  23
ATOM     23  O   UNL d   1      56.942   0.663  32.712  0.00  0.00    -0.273 OA
BRANCH  23  24
ATOM     24  C   UNL d   1      56.386   0.318  33.215  0.00  0.00     0.300 C 
ATOM     25  O   UNL d   1      56.622  -0.283  33.763  0.00  0.00    -0.259 OA
ATOM     26  C   UNL d   1      55.608   0.559  33.182  0.00  0.00     0.074 C 
ENDBRANCH  23  24
ENDBRANCH  10  23
TORSDOF 5
ENDMDL
MODEL 2
REMARK VINA RESULT:      -3.6      2.478      5.289
REMARK  5 active torsions:
REMARK  status: ('A' for Active; 'I' for Inactive)
REMARK    1  A    between atoms: C_5  and  C_1 
REMARK    2  A    between atoms: O_8  and  C_2 
REMARK    3  A    between atoms: C_20  and  O_8 
REMARK    4  A    between atoms: C_11  and  O_14 
REMARK    5  A    between atoms: O_14  and  C_13 
ROOT
ATOM      1  C   UNL d   1      56.315  -1.279  32.665  0.00  0.00     0.197 A 
ATOM      2  C   UNL d   1      56.461  -0.615  33.135  0.00  0.00     0.165 A 
ATOM      3  O   UNL d   1      56.596  -1.301  31.907  0.00  0.00    -0.301 OA
ATOM      4  C   UNL d   1      56.889   0.023  32.837  0.00  0.00     0.222 A 
ATOM      5  C   UNL d   1      57.023  -0.669  31.601  0.00  0.00     0.105 A 
ATOM      6  C   UNL d   1      57.169  -0.005  32.072  0.00  0.00     0.064 A 
ATOM      7  C   UNL d   1      57.309  -0.691  30.829  0.00  0.00     0.050 A 
ATOM      8  C   UNL d   1      57.601   0.633  31.763  0.00  0.00     0.007 A 
ATOM      9  O   UNL d   1      57.033   0.681  33.304  0.00  0.00    -0.284 OA
ATOM     10  C   UNL d   1      57.729  -0.070  30.530  0.00  0.00     0.105 A 
ATOM     11  C   UNL d   1      57.876   0.594  30.997  0.00  0.00     0.025 A 
ENDROOT
BRANCH   2  12
ATOM     12  O   UNL d   1      56.181  -0.572  33.920  0.00  0.00    -0.302 OA
BRANCH  12  13
ATOM     13  C   UNL d   1      55.494  -0.155  34.100  0.00  0.00     0.100 A 
ATOM     14  C   UNL d   1      54.909  -0.054  33.534  0.00  0.00     0.025 A 
ATOM     15  C   UNL d   1      54.222   0.363  33.718  0.00  0.00     0.002 A 
ATOM     16  C   UNL d   1      54.122   0.682  34.475  0.00  0.00     0.000 A 
ATOM     17  C   UNL d   1      54.712   0.583  35.053  0.00  0.00     0.002 A 
ATOM     18  C   UNL d   1      55.400   0.164  34.866  0.00  0.00     0.025 A 
ENDBRANCH  12  13
ENDBRANCH   2  12
BRANCH   1  19
ATOM     19  C   UNL d   1      55.893  -1.912  32.955  0.00  0.00     0.442 C 
ATOM     20  F   UNL d   1      55.526  -2.554  33.299  0.00  0.00    -0.164 F 
ATOM     21  F   UNL d   1      55.124  -2.170  32.605  0.00  0.00    -0.164 F 
ATOM     22  F   UNL d   1      56.211  -2.268  33.556  0.00  0.00    -0.164 F 
ENDBRANCH   1  19
BRANCH  10  23
ATOM     23  O   UNL d   1      58.021  -0.104  29.724  0.00  0.00    -0.273 OA
BRANCH  23  24
ATOM     24  C   UNL d   1      58.742  -0.478  29.571  0.00  0.00     0.300 C 
ATOM     25  O   UNL d   1      59.466  -0.136  29.845  0.00  0.00    -0.259 OA
ATOM     26  C   UNL d   1      58.751  -1.179  29.155  0.00  0.00     0.074 C 
ENDBRANCH  23  24
ENDBRANCH  10  23
TORSDOF 5
ENDMDL
MODEL 3
REMARK VINA RESULT:      -1.9      2.194      4.758
REMARK  5 active torsions:
REMARK  status: ('A' for Active; 'I' for Inactive)
REMARK    1  A    between atoms: C_5  and  C_1 
REMARK    2  A    between atoms: O_8  and  C_2 
REMARK    3  A    between atoms: C_20  and  O_8 
REMARK    4  A    between atoms: C_11  and  O_14 
REMARK    5  A    between atoms: O_14  and  C_13 
ROOT
ATOM      1  C   UNL d   1      56.671  -1.209  31.775  0.00  0.00     0.197 A 
ATOM      2  C   UNL d   1      56.869  -0.407  31.769  0.00  0.00     0.165 A 
ATOM      3  O   UNL d   1      57.013  -1.709  31.239  0.00  0.00    -0.301 OA
ATOM      4  C   UNL d   1      57.412  -0.113  31.222  0.00  0.00     0.222 A 
ATOM      5  C   UNL d   1      57.554  -1.426  30.690  0.00  0.00     0.105 A 
ATOM      6  C   UNL d   1      57.752  -0.623  30.684  0.00  0.00     0.064 A 
ATOM      7  C   UNL d   1      57.902  -1.935  30.145  0.00  0.00     0.050 A 
ATOM      8  C   UNL d   1      58.300  -0.337  30.129  0.00  0.00     0.007 A 
ATOM      9  O   UNL d   1      57.608   0.682  31.216  0.00  0.00    -0.284 OA
ATOM     10  C   UNL d   1      58.434  -1.656  29.605  0.00  0.00     0.105 A 
ATOM     11  C   UNL d   1      58.634  -0.856  29.597  0.00  0.00     0.025 A 
ENDROOT
BRANCH   2  12
ATOM     12  O   UNL d   1      56.529   0.128  32.313  0.00  0.00    -0.302 OA
BRANCH  12  13
ATOM     13  C   UNL d   1      56.912   0.312  33.017  0.00  0.00     0.100 A 
ATOM     14  C   UNL d   1      57.723   0.426  33.032  0.00  0.00     0.025 A 
ATOM     15  C   UNL d   1      58.104   0.611  33.740  0.00  0.00     0.002 A 
ATOM     16  C   UNL d   1      57.665   0.682  34.438  0.00  0.00     0.000 A 
ATOM     17  C   UNL d   1      56.842   0.567  34.430  0.00  0.00     0.002 A 
ATOM     18  C   UNL d   1      56.463   0.382  33.718  0.00  0.00     0.025 A 
ENDBRANCH  12  13
ENDBRANCH   2  12
BRANCH   1  19
ATOM     19  C   UNL d   1      56.136  -1.502  32.314  0.00  0.00     0.442 C 
ATOM     20  F   UNL d   1      55.545  -1.760  32.814  0.00  0.00    -0.164 F 
ATOM     21  F   UNL d   1      56.379  -2.008  32.997  0.00  0.00    -0.164 F 
ATOM     22  F   UNL d   1      55.405  -1.307  32.187  0.00  0.00    -0.164 F 
ENDBRANCH   1  19
BRANCH  10  23
ATOM     23  O   UNL d   1      58.791  -2.196  29.041  0.00  0.00    -0.273 OA
BRANCH  23  24
ATOM     24  C   UNL d   1      59.567  -2.452  29.162  0.00  0.00     0.300 C 
ATOM     25  O   UNL d   1      60.201  -1.892  29.185  0.00  0.00    -0.259 OA
ATOM     26  C   UNL d   1      59.718  -3.247  29.258  0.00  0.00     0.074 C 
ENDBRANCH  23  24
ENDBRANCH  10  23
TORSDOF 5
ENDMDL
MODEL 4
REMARK VINA RESULT:      -1.2      1.452      2.098
REMARK  5 active torsions:
REMARK  status: ('A' for Active; 'I' for Inactive)
REMARK    1  A    between atoms: C_5  and  C_1 
REMARK    2  A    between atoms: O_8  and  C_2 
REMARK    3  A    between atoms: C_20  and  O_8 
REMARK    4  A    between atoms: C_11  and  O_14 
REMARK    5  A    between atoms: O_14  and  C_13 
ROOT
ATOM      1  C   UNL d   1      58.822   0.649  31.734  0.00  0.00     0.197 A 
ATOM      2  C   UNL d   1      58.378   0.660  31.037  0.00  0.00     0.165 A 
ATOM      3  O   UNL d   1      58.443   0.649  32.448  0.00  0.00    -0.301 OA
ATOM      4  C   UNL d   1      57.555   0.671  31.065  0.00  0.00     0.222 A 
ATOM      5  C   UNL d   1      57.622   0.660  32.486  0.00  0.00     0.105 A 
ATOM      6  C   UNL d   1      57.179   0.671  31.788  0.00  0.00     0.064 A 
ATOM      7  C   UNL d   1      57.236   0.660  33.213  0.00  0.00     0.050 A 
ATOM      8  C   UNL d   1      56.350   0.682  31.826  0.00  0.00     0.007 A 
ATOM      9  O   UNL d   1      57.116   0.682  30.373  0.00  0.00    -0.284 OA
ATOM     10  C   UNL d   1      56.429   0.671  33.249  0.00  0.00     0.105 A 
ATOM     11  C   UNL d   1      55.984   0.682  32.555  0.00  0.00     0.025 A 
ENDROOT
BRANCH   2  12
ATOM     12  O   UNL d   1      58.749   0.660  30.289  0.00  0.00    -0.302 OA
BRANCH  12  13
ATOM     13  C   UNL d   1      58.725  -0.007  29.808  0.00  0.00     0.100 A 
ATOM     14  C   UNL d   1      58.584  -0.748  30.129  0.00  0.00     0.025 A 
ATOM     15  C   UNL d   1      58.561  -1.414  29.644  0.00  0.00     0.002 A 
ATOM     16  C   UNL d   1      58.682  -1.336  28.830  0.00  0.00     0.000 A 
ATOM     17  C   UNL d   1      58.826  -0.587  28.497  0.00  0.00     0.002 A 
ATOM     18  C   UNL d   1      58.848   0.079  28.986  0.00  0.00     0.025 A 
ENDBRANCH  12  13
ENDBRANCH   2  12
BRANCH   1  19
ATOM     19  C   UNL d   1      59.636   0.638  31.711  0.00  0.00     0.442 C 
ATOM     20  F   UNL d   1      60.449   0.632  31.765  0.00  0.00    -0.164 F 
ATOM     21  F   UNL d   1      60.088   0.585  30.954  0.00  0.00    -0.164 F 
ATOM     22  F   UNL d   1      59.982   0.678  32.394  0.00  0.00    -0.164 F 
ENDBRANCH   1  19
BRANCH  10  23
ATOM     23  O   UNL d   1      56.038   0.671  34.013  0.00  0.00    -0.273 OA
BRANCH  23  24
ATOM     24  C   UNL d   1      55.404   0.158  34.142  0.00  0.00     0.300 C 
ATOM     25  O   UNL d   1      55.544  -0.634  34.404  0.00  0.00    -0.259 OA
ATOM     26  C   UNL d   1      54.642   0.419  34.015  0.00  0.00     0.074 C 
ENDBRANCH  23  24
ENDBRANCH  10  23
TORSDOF 5
ENDMDL
