MODEL 1
REMARK VINA RESULT:      -4.8      0.000      0.000
REMARK  4 active torsions:
REMARK  status: ('A' for Active; 'I' for Inactive)
REMARK    1  A    between atoms: C_11  and  N_2 
REMARK    2  A    between atoms: C_9  and  C_3 
REMARK    3  A    between atoms: C_12  and  C_11 
REMARK    4  A    between atoms: O_19  and  C_16 
ROOT
ATOM      1  N   UNL d   1     -41.746-123.817 -51.538  0.00  0.00    -0.206 NA
ATOM      2  N   UNL d   1     -41.609-122.501 -51.387  0.00  0.00    -0.273 N 
ATOM      3  C   UNL d   1     -41.738-123.209 -50.983  0.00  0.00     0.151 A 
ATOM      4  C   UNL d   1     -41.538-122.671 -52.186  0.00  0.00     0.185 A 
ATOM      5  C   UNL d   1     -41.622-123.489 -52.285  0.00  0.00     0.199 A 
ATOM      6  N   UNL d   1     -41.404-122.188 -52.859  0.00  0.00    -0.224 NA
ATOM      7  N   UNL d   1     -41.576-123.817 -53.031  0.00  0.00    -0.223 NA
ATOM      8  C   UNL d   1     -41.359-122.532 -53.608  0.00  0.00     0.101 A 
ATOM      9  C   UNL d   1     -41.445-123.349 -53.692  0.00  0.00     0.101 A 
ATOM     10  C   UNL d   1     -41.228-122.055 -54.269  0.00  0.00     0.021 A 
ATOM     11  C   UNL d   1     -41.399-123.684 -54.440  0.00  0.00     0.021 A 
ATOM     12  C   UNL d   1     -41.269-123.219 -55.100  0.00  0.00     0.002 A 
ATOM     13  C   UNL d   1     -41.183-122.399 -55.017  0.00  0.00     0.002 A 
ENDROOT
BRANCH   3  14
ATOM     14  C   UNL d   1     -41.839-123.286 -50.175  0.00  0.00     0.035 A 
ATOM     15  C   UNL d   1     -41.201-123.386 -49.689  0.00  0.00     0.005 A 
ATOM     16  C   UNL d   1     -41.316-123.459 -48.903  0.00  0.00     0.024 A 
ATOM     17  C   UNL d   1     -42.082-123.434 -48.585  0.00  0.00     0.094 A 
ATOM     18  C   UNL d   1     -42.712-123.337 -49.061  0.00  0.00     0.024 A 
ATOM     19  C   UNL d   1     -42.604-123.261 -49.857  0.00  0.00     0.005 A 
BRANCH  17  20
ATOM     20  O   UNL d   1     -42.165-123.510 -47.798  0.00  0.00    -0.328 OA
ATOM     21  C   UNL d   1     -41.716-122.869 -47.148  0.00  0.00     0.181 C 
ENDBRANCH  17  20
ENDBRANCH   3  14
BRANCH   2  22
ATOM     22  C   UNL d   1     -41.560-121.748 -51.045  0.00  0.00     0.083 C 
BRANCH  22  23
ATOM     23  C   UNL d   1     -41.127-121.154 -51.413  0.00  0.00     0.019 C 
ATOM     24  C   UNL d   1     -41.123-120.388 -51.105  0.00  0.00     0.002 C 
ENDBRANCH  22  23
ENDBRANCH   2  22
TORSDOF 4
ENDMDL
MODEL 2
REMARK VINA RESULT:      -2.4      1.791      4.792
REMARK  4 active torsions:
REMARK  status: ('A' for Active; 'I' for Inactive)
REMARK    1  A    between atoms: C_11  and  N_2 
REMARK    2  A    between atoms: C_9  and  C_3 
REMARK    3  A    between atoms: C_12  and  C_11 
REMARK    4  A    between atoms: O_19  and  C_16 
ROOT
ATOM      1  N   UNL d   1     -41.125-123.293 -50.254  0.00  0.00    -0.206 NA
ATOM      2  N   UNL d   1     -42.299-122.663 -50.293  0.00  0.00    -0.273 N 
ATOM      3  C   UNL d   1     -41.656-122.905 -50.751  0.00  0.00     0.151 A 
ATOM      4  C   UNL d   1     -42.166-122.899 -49.518  0.00  0.00     0.185 A 
ATOM      5  C   UNL d   1     -41.437-123.292 -49.490  0.00  0.00     0.199 A 
ATOM      6  N   UNL d   1     -42.613-122.814 -48.814  0.00  0.00    -0.224 NA
ATOM      7  N   UNL d   1     -41.161-123.590 -48.782  0.00  0.00    -0.223 NA
ATOM      8  C   UNL d   1     -42.324-123.119 -48.105  0.00  0.00     0.101 A 
ATOM      9  C   UNL d   1     -41.596-123.508 -48.090  0.00  0.00     0.101 A 
ATOM     10  C   UNL d   1     -42.766-123.033 -47.413  0.00  0.00     0.021 A 
ATOM     11  C   UNL d   1     -41.314-123.810 -47.380  0.00  0.00     0.021 A 
ATOM     12  C   UNL d   1     -41.746-123.729 -46.690  0.00  0.00     0.002 A 
ATOM     13  C   UNL d   1     -42.477-123.339 -46.703  0.00  0.00     0.002 A 
ENDROOT
BRANCH   3  14
ATOM     14  C   UNL d   1     -41.568-122.779 -51.554  0.00  0.00     0.035 A 
ATOM     15  C   UNL d   1     -41.350-122.053 -51.834  0.00  0.00     0.005 A 
ATOM     16  C   UNL d   1     -41.268-121.947 -52.621  0.00  0.00     0.024 A 
ATOM     17  C   UNL d   1     -41.405-122.572 -53.148  0.00  0.00     0.094 A 
ATOM     18  C   UNL d   1     -41.619-123.288 -52.874  0.00  0.00     0.024 A 
ATOM     19  C   UNL d   1     -41.704-123.405 -52.081  0.00  0.00     0.005 A 
BRANCH  17  20
ATOM     20  O   UNL d   1     -41.315-122.435 -53.925  0.00  0.00    -0.328 OA
ATOM     21  C   UNL d   1     -41.977-122.792 -54.611  0.00  0.00     0.181 C 
ENDBRANCH  17  20
ENDBRANCH   3  14
BRANCH   2  22
ATOM     22  C   UNL d   1     -42.964-122.252 -50.567  0.00  0.00     0.083 C 
BRANCH  22  23
ATOM     23  C   UNL d   1     -43.702-122.391 -50.234  0.00  0.00     0.019 C 
ATOM     24  C   UNL d   1     -44.373-122.013 -50.533  0.00  0.00     0.002 C 
ENDBRANCH  22  23
ENDBRANCH   2  22
TORSDOF 4
ENDMDL
