MODEL 1
REMARK VINA RESULT:      74.7      0.000      0.000
REMARK  4 active torsions:
REMARK  status: ('A' for Active; 'I' for Inactive)
REMARK       I    between atoms: N_3  and  C_1 
REMARK    1  A    between atoms: O_5  and  C_1 
REMARK    2  A    between atoms: C_2  and  O_8 
REMARK       I    between atoms: N_4  and  C_2 
REMARK    3  A    between atoms: C_6  and  O_5 
REMARK    4  A    between atoms: O_8  and  C_12 
ROOT
ATOM      1  C   UNL d   1     -47.698  30.175  35.107  0.00  0.00     0.105 A 
ATOM      2  C   UNL d   1     -48.075  29.443  35.144  0.00  0.00     0.025 A 
ATOM      3  C   UNL d   1     -48.479  29.156  34.487  0.00  0.00     0.027 A 
ATOM      4  C   UNL d   1     -48.866  28.411  34.516  0.00  0.00     0.105 A 
ATOM      5  C   UNL d   1     -48.047  29.006  35.828  0.00  0.00     0.002 A 
ATOM      6  C   UNL d   1     -48.422  28.270  35.873  0.00  0.00     0.002 A 
ATOM      7  C   UNL d   1     -48.838  27.973  35.200  0.00  0.00     0.025 A 
ATOM      8  C   UNL d   1     -47.294  30.462  35.763  0.00  0.00     0.025 A 
ATOM      9  C   UNL d   1     -47.266  30.024  36.448  0.00  0.00     0.002 A 
ATOM     10  C   UNL d   1     -47.642  29.289  36.493  0.00  0.00     0.000 A 
ENDROOT
BRANCH   1  11
ATOM     11  O   UNL d   1     -47.726  30.619  34.412  0.00  0.00    -0.259 OA
BRANCH  11  12
ATOM     12  C   UNL d   1     -47.308  31.330  34.359  0.00  0.00     0.378 C 
ATOM     13  N   UNL d   1     -47.673  32.017  34.051  0.00  0.00    -0.247 N 
ATOM     14  C   UNL d   1     -47.243  32.726  34.002  0.00  0.00     0.112 A 
ATOM     15  C   UNL d   1     -48.457  31.981  33.798  0.00  0.00     0.112 A 
ATOM     16  C   UNL d   1     -47.614  33.405  33.694  0.00  0.00     0.142 A 
ATOM     17  O   UNL d   1     -48.410  33.367  33.438  0.00  0.00    -0.300 OA
ATOM     18  C   UNL d   1     -48.824  32.654  33.493  0.00  0.00     0.142 A 
ATOM     19  O   UNL d   1     -46.520  31.374  34.611  0.00  0.00    -0.237 OA
ENDBRANCH  11  12
ENDBRANCH   1  11
BRANCH   4  20
ATOM     20  O   UNL d   1     -49.271  28.125  33.855  0.00  0.00    -0.259 OA
BRANCH  20  21
ATOM     21  C   UNL d   1     -49.427  27.325  33.783  0.00  0.00     0.378 C 
ATOM     22  N   UNL d   1     -50.194  27.059  33.623  0.00  0.00    -0.247 N 
ATOM     23  C   UNL d   1     -50.331  26.247  33.553  0.00  0.00     0.112 A 
ATOM     24  C   UNL d   1     -50.800  27.600  33.538  0.00  0.00     0.112 A 
ATOM     25  C   UNL d   1     -51.095  25.984  33.395  0.00  0.00     0.142 A 
ATOM     26  O   UNL d   1     -51.712  26.524  33.308  0.00  0.00    -0.300 OA
ATOM     27  C   UNL d   1     -51.563  27.331  33.380  0.00  0.00     0.142 A 
ATOM     28  O   UNL d   1     -48.807  26.787  33.870  0.00  0.00    -0.237 OA
ENDBRANCH  20  21
ENDBRANCH   4  20
TORSDOF 4
ENDMDL
