MODEL 1
REMARK VINA RESULT:       2.2      0.000      0.000
REMARK  6 active torsions:
REMARK  status: ('A' for Active; 'I' for Inactive)
REMARK    1  A    between atoms: C_11  and  N_4 
REMARK    2  A    between atoms: C_19  and  C_7 
REMARK    3  A    between atoms: C_17  and  C_11 
REMARK    4  A    between atoms: O_21  and  C_16 
REMARK    5  A    between atoms: C_20  and  C_17 
REMARK    6  A    between atoms: C_25  and  C_19 
ROOT
ATOM      1  C   UNL d   1     -41.827-122.078 -51.784  0.00  0.00     0.137 A 
ATOM      2  C   UNL d   1     -42.254-122.749 -52.010  0.00  0.00     0.192 A 
ATOM      3  C   UNL d   1     -41.678-121.928 -50.987  0.00  0.00     0.272 A 
ATOM      4  N   UNL d   1     -41.957-122.449 -50.414  0.00  0.00    -0.258 N 
ATOM      5  N   UNL d   1     -42.531-123.269 -51.441  0.00  0.00    -0.204 NA
ATOM      6  C   UNL d   1     -41.548-121.555 -52.360  0.00  0.00     0.205 A 
ATOM      7  C   UNL d   1     -42.384-123.122 -50.636  0.00  0.00     0.152 A 
ATOM      8  C   UNL d   1     -41.694-121.702 -53.148  0.00  0.00     0.062 A 
ATOM      9  O   UNL d   1     -42.398-122.892 -52.804  0.00  0.00    -0.289 OA
ATOM     10  C   UNL d   1     -42.117-122.368 -53.376  0.00  0.00     0.107 A 
ATOM     11  C   UNL d   1     -42.265-122.516 -54.181  0.00  0.00     0.049 A 
ATOM     12  C   UNL d   1     -41.413-121.176 -53.722  0.00  0.00     0.007 A 
ATOM     13  O   UNL d   1     -41.253-121.259 -50.766  0.00  0.00    -0.266 OA
ATOM     14  O   UNL d   1     -41.124-120.889 -52.132  0.00  0.00    -0.286 OA
ATOM     15  C   UNL d   1     -41.985-121.992 -54.748  0.00  0.00     0.096 A 
ATOM     16  C   UNL d   1     -41.561-121.326 -54.520  0.00  0.00     0.024 A 
ENDROOT
BRANCH   4  17
ATOM     17  C   UNL d   1     -41.808-122.299 -49.617  0.00  0.00     0.084 C 
BRANCH  17  18
ATOM     18  C   UNL d   1     -41.170-122.673 -49.229  0.00  0.00     0.019 C 
BRANCH  18  19
ATOM     19  C   UNL d   1     -41.173-122.742 -48.405  0.00  0.00     0.002 A 
ATOM     20  C   UNL d   1     -41.225-123.498 -48.062  0.00  0.00     0.000 A 
ATOM     21  C   UNL d   1     -41.229-123.574 -47.231  0.00  0.00     0.000 A 
ATOM     22  C   UNL d   1     -41.180-122.899 -46.751  0.00  0.00     0.000 A 
ATOM     23  C   UNL d   1     -41.128-122.144 -47.104  0.00  0.00     0.000 A 
ATOM     24  C   UNL d   1     -41.125-122.073 -47.928  0.00  0.00     0.000 A 
ENDBRANCH  18  19
ENDBRANCH  17  18
ENDBRANCH   4  17
BRANCH   7  25
ATOM     25  C   UNL d   1     -42.664-123.646 -50.065  0.00  0.00     0.038 C 
BRANCH  25  26
ATOM     26  C   UNL d   1     -43.467-123.816 -50.013  0.00  0.00     0.003 C 
ATOM     27  C   UNL d   1     -43.964-123.311 -49.604  0.00  0.00     0.000 C 
ENDBRANCH  25  26
ENDBRANCH   7  25
BRANCH  15  28
ATOM     28  O   UNL d   1     -42.125-122.129 -55.541  0.00  0.00    -0.328 OA
ATOM     29  C   UNL d   1     -42.215-121.491 -56.053  0.00  0.00     0.181 C 
ENDBRANCH  15  28
TORSDOF 6
ENDMDL
