MODEL 1
REMARK VINA RESULT:      -6.9      0.000      0.000
REMARK  1 active torsions:
REMARK  status: ('A' for Active; 'I' for Inactive)
REMARK    1  A    between atoms: N_14  and  C_8 
ROOT
ATOM      1  C   UNL d   1      56.258  -0.036  32.477  0.00  0.00     0.056 A 
ATOM      2  C   UNL d   1      57.775  -0.038  30.516  0.00  0.00     0.074 A 
ATOM      3  C   UNL d   1      56.003  -0.750  32.804  0.00  0.00    -0.012 A 
ATOM      4  C   UNL d   1      56.761  -0.037  31.826  0.00  0.00    -0.016 A 
ATOM      5  C   UNL d   1      57.519  -0.756  30.844  0.00  0.00    -0.014 A 
ATOM      6  C   UNL d   1      57.015  -0.756  31.495  0.00  0.00    -0.007 A 
ATOM      7  C   UNL d   1      56.254  -1.462  32.477  0.00  0.00    -0.004 A 
ATOM      8  C   UNL d   1      58.268  -0.217  29.878  0.00  0.00     0.089 A 
ATOM      9  C   UNL d   1      57.521   0.680  30.847  0.00  0.00    -0.017 A 
ATOM     10  C   UNL d   1      56.761  -1.469  31.821  0.00  0.00    -0.001 A 
ATOM     11  C   UNL d   1      57.018   0.681  31.498  0.00  0.00    -0.008 A 
ATOM     12  C   UNL d   1      56.009   0.677  32.802  0.00  0.00    -0.015 A 
ATOM     13  C   UNL d   1      57.855  -1.375  30.406  0.00  0.00    -0.002 A 
ATOM     14  C   UNL d   1      55.501  -0.747  33.453  0.00  0.00     0.038 A 
ATOM     15  C   UNL d   1      58.317  -1.031  29.811  0.00  0.00     0.017 A 
ATOM     16  C   UNL d   1      55.503   0.680  33.457  0.00  0.00     0.038 A 
ATOM     17  C   UNL d   1      55.248  -0.033  33.783  0.00  0.00     0.195 A 
ATOM     18  C   UNL d   1      56.513   0.681  32.150  0.00  0.00     0.013 C 
ATOM     19  C   UNL d   1      58.029   0.675  30.190  0.00  0.00     0.015 C 
ATOM     20  O   UNL d   1      54.746  -0.030  34.432  0.00  0.00    -0.287 OA
ENDROOT
BRANCH   8  21
ATOM     21  N   UNL d   1      58.643   0.339  29.395  0.00  0.00    -0.131 NA
ATOM     22  N   UNL d   1      59.134   0.129  28.761  0.00  0.00    -0.023 N 
ENDBRANCH   8  21
TORSDOF 1
ENDMDL
MODEL 2
REMARK VINA RESULT:      -6.7      2.381      3.801
REMARK  1 active torsions:
REMARK  status: ('A' for Active; 'I' for Inactive)
REMARK    1  A    between atoms: N_14  and  C_8 
ROOT
ATOM      1  C   UNL d   1      57.832  -0.036  30.454  0.00  0.00     0.056 A 
ATOM      2  C   UNL d   1      56.293  -0.036  32.398  0.00  0.00     0.074 A 
ATOM      3  C   UNL d   1      58.083  -0.750  30.126  0.00  0.00    -0.012 A 
ATOM      4  C   UNL d   1      57.321  -0.037  31.100  0.00  0.00    -0.016 A 
ATOM      5  C   UNL d   1      56.546  -0.755  32.068  0.00  0.00    -0.014 A 
ATOM      6  C   UNL d   1      57.056  -0.754  31.423  0.00  0.00    -0.007 A 
ATOM      7  C   UNL d   1      57.822  -1.461  30.445  0.00  0.00    -0.004 A 
ATOM      8  C   UNL d   1      55.790  -0.215  33.030  0.00  0.00     0.089 A 
ATOM      9  C   UNL d   1      56.557   0.681  32.075  0.00  0.00    -0.017 A 
ATOM     10  C   UNL d   1      57.308  -1.468  31.095  0.00  0.00    -0.001 A 
ATOM     11  C   UNL d   1      57.068   0.682  31.430  0.00  0.00    -0.008 A 
ATOM     12  C   UNL d   1      58.091   0.677  30.137  0.00  0.00    -0.015 A 
ATOM     13  C   UNL d   1      56.198  -1.373  32.498  0.00  0.00    -0.002 A 
ATOM     14  C   UNL d   1      58.593  -0.747  29.482  0.00  0.00     0.038 A 
ATOM     15  C   UNL d   1      55.733  -1.029  33.090  0.00  0.00     0.017 A 
ATOM     16  C   UNL d   1      58.605   0.680  29.489  0.00  0.00     0.038 A 
ATOM     17  C   UNL d   1      58.856  -0.034  29.160  0.00  0.00     0.195 A 
ATOM     18  C   UNL d   1      57.579   0.682  30.784  0.00  0.00     0.013 C 
ATOM     19  C   UNL d   1      56.042   0.677  32.726  0.00  0.00     0.015 C 
ATOM     20  O   UNL d   1      59.366  -0.031  28.517  0.00  0.00    -0.287 OA
ENDROOT
BRANCH   8  21
ATOM     21  N   UNL d   1      55.415   0.341  33.512  0.00  0.00    -0.131 NA
ATOM     22  N   UNL d   1      54.901   0.132  34.127  0.00  0.00    -0.023 N 
ENDBRANCH   8  21
TORSDOF 1
ENDMDL
MODEL 3
REMARK VINA RESULT:      -5.2      1.219      1.594
REMARK  1 active torsions:
REMARK  status: ('A' for Active; 'I' for Inactive)
REMARK    1  A    between atoms: N_14  and  C_8 
ROOT
ATOM      1  C   UNL d   1      56.243   0.670  33.252  0.00  0.00     0.056 A 
ATOM      2  C   UNL d   1      57.713   0.667  31.256  0.00  0.00     0.074 A 
ATOM      3  C   UNL d   1      56.573   0.676  34.008  0.00  0.00    -0.012 A 
ATOM      4  C   UNL d   1      56.732   0.669  32.589  0.00  0.00    -0.016 A 
ATOM      5  C   UNL d   1      58.045   0.673  32.016  0.00  0.00    -0.014 A 
ATOM      6  C   UNL d   1      57.557   0.674  32.679  0.00  0.00    -0.007 A 
ATOM      7  C   UNL d   1      57.390   0.682  34.098  0.00  0.00    -0.004 A 
ATOM      8  C   UNL d   1      58.335   0.667  30.711  0.00  0.00     0.089 A 
ATOM      9  C   UNL d   1      56.888   0.661  31.166  0.00  0.00    -0.017 A 
ATOM     10  C   UNL d   1      57.887   0.681  33.435  0.00  0.00    -0.001 A 
ATOM     11  C   UNL d   1      56.400   0.662  31.829  0.00  0.00    -0.008 A 
ATOM     12  C   UNL d   1      55.426   0.664  33.159  0.00  0.00    -0.015 A 
ATOM     13  C   UNL d   1      58.871   0.678  31.938  0.00  0.00    -0.002 A 
ATOM     14  C   UNL d   1      56.084   0.677  34.668  0.00  0.00     0.038 A 
ATOM     15  C   UNL d   1      59.040   0.674  31.127  0.00  0.00     0.017 A 
ATOM     16  C   UNL d   1      54.933   0.665  33.824  0.00  0.00     0.038 A 
ATOM     17  C   UNL d   1      55.263   0.671  34.580  0.00  0.00     0.195 A 
ATOM     18  C   UNL d   1      55.911   0.663  32.492  0.00  0.00     0.013 C 
ATOM     19  C   UNL d   1      57.384   0.660  30.500  0.00  0.00     0.015 C 
ATOM     20  O   UNL d   1      54.774   0.672  35.239  0.00  0.00    -0.287 OA
ENDROOT
BRANCH   8  21
ATOM     21  N   UNL d   1      58.250   0.662  29.890  0.00  0.00    -0.131 NA
ATOM     22  N   UNL d   1      58.893   0.627  29.368  0.00  0.00    -0.023 N 
ENDBRANCH   8  21
TORSDOF 1
ENDMDL
