MODEL 1
REMARK VINA RESULT:      30.2      0.000      0.000
REMARK  4 active torsions:
REMARK  status: ('A' for Active; 'I' for Inactive)
REMARK    1  A    between atoms: N_2  and  S_1 
REMARK    2  A    between atoms: C_7  and  S_1 
REMARK    3  A    between atoms: C_11  and  C_4 
REMARK    4  A    between atoms: C_18  and  C_11 
ROOT
ATOM      1  N   UNL d   1      14.891  13.121  -1.205  0.00  0.00    -0.202 N 
ATOM      2  C   UNL d   1      15.190  12.600  -0.645  0.00  0.00     0.218 A 
ATOM      3  C   UNL d   1      15.188  13.881  -1.034  0.00  0.00     0.135 A 
ATOM      4  N   UNL d   1      15.670  13.032  -0.128  0.00  0.00    -0.178 NA
ATOM      5  C   UNL d   1      15.662  13.816  -0.375  0.00  0.00     0.298 A 
ATOM      6  S   UNL d   1      15.043  11.781  -0.596  0.00  0.00    -0.037 SA
ATOM      7  O   UNL d   1      16.070  14.449  -0.015  0.00  0.00    -0.264 OA
ENDROOT
BRANCH   1   8
ATOM      8  S   UNL d   1      14.390  12.846  -1.798  0.00  0.00     0.273 S 
ATOM      9  O   UNL d   1      13.949  12.426  -1.231  0.00  0.00    -0.200 OA
ATOM     10  O   UNL d   1      14.826  13.261  -2.360  0.00  0.00    -0.200 OA
BRANCH   8  11
ATOM     11  C   UNL d   1      13.888  12.570  -2.391  0.00  0.00     0.104 A 
ATOM     12  C   UNL d   1      13.274  12.056  -2.205  0.00  0.00     0.012 A 
ATOM     13  C   UNL d   1      12.770  11.779  -2.801  0.00  0.00     0.001 A 
ATOM     14  C   UNL d   1      13.165  11.816  -1.413  0.00  0.00     0.001 C 
ATOM     15  C   UNL d   1      12.883  12.019  -3.580  0.00  0.00     0.000 A 
ATOM     16  C   UNL d   1      13.499  12.535  -3.768  0.00  0.00     0.001 A 
ATOM     17  C   UNL d   1      14.003  12.812  -3.172  0.00  0.00     0.013 A 
ATOM     18  C   UNL d   1      13.611  12.777  -4.558  0.00  0.00     0.000 C 
ENDBRANCH   8  11
ENDBRANCH   1   8
BRANCH   3  19
ATOM     19  C   UNL d   1      15.041  14.582  -1.443  0.00  0.00     0.023 C 
BRANCH  19  20
ATOM     20  C   UNL d   1      14.960  15.291  -1.034  0.00  0.00     0.002 C 
ATOM     21  C   UNL d   1      14.967  16.002  -1.445  0.00  0.00     0.000 C 
ATOM     22  C   UNL d   1      14.873  15.289  -0.222  0.00  0.00     0.000 C 
ENDBRANCH  19  20
ENDBRANCH   3  19
TORSDOF 4
ENDMDL
MODEL 2
REMARK VINA RESULT:      32.9      1.144      3.489
REMARK  4 active torsions:
REMARK  status: ('A' for Active; 'I' for Inactive)
REMARK    1  A    between atoms: N_2  and  S_1 
REMARK    2  A    between atoms: C_7  and  S_1 
REMARK    3  A    between atoms: C_11  and  C_4 
REMARK    4  A    between atoms: C_18  and  C_11 
ROOT
ATOM      1  N   UNL d   1      13.750  12.575  -2.251  0.00  0.00    -0.202 N 
ATOM      2  C   UNL d   1      13.180  12.034  -2.010  0.00  0.00     0.218 A 
ATOM      3  C   UNL d   1      13.694  12.657  -3.078  0.00  0.00     0.135 A 
ATOM      4  N   UNL d   1      12.772  11.781  -2.683  0.00  0.00    -0.178 NA
ATOM      5  C   UNL d   1      13.095  12.169  -3.333  0.00  0.00     0.298 A 
ATOM      6  S   UNL d   1      13.032  11.779  -1.231  0.00  0.00    -0.037 SA
ATOM      7  O   UNL d   1      12.853  12.082  -4.127  0.00  0.00    -0.264 OA
ENDROOT
BRANCH   1   8
ATOM      8  S   UNL d   1      14.247  12.925  -1.694  0.00  0.00     0.273 S 
ATOM      9  O   UNL d   1      14.663  13.306  -2.306  0.00  0.00    -0.200 OA
ATOM     10  O   UNL d   1      13.835  12.548  -1.089  0.00  0.00    -0.200 OA
BRANCH   8  11
ATOM     11  C   UNL d   1      14.744  13.275  -1.138  0.00  0.00     0.104 A 
ATOM     12  C   UNL d   1      15.176  12.806  -0.619  0.00  0.00     0.012 A 
ATOM     13  C   UNL d   1      15.675  13.158  -0.060  0.00  0.00     0.001 A 
ATOM     14  C   UNL d   1      15.105  11.975  -0.661  0.00  0.00     0.001 C 
ATOM     15  C   UNL d   1      15.741  13.977  -0.023  0.00  0.00     0.000 A 
ATOM     16  C   UNL d   1      15.308  14.449  -0.544  0.00  0.00     0.001 A 
ATOM     17  C   UNL d   1      14.808  14.097  -1.103  0.00  0.00     0.013 A 
ATOM     18  C   UNL d   1      15.376  15.279  -0.505  0.00  0.00     0.000 C 
ENDBRANCH   8  11
ENDBRANCH   1   8
BRANCH   3  19
ATOM     19  C   UNL d   1      14.151  13.139  -3.568  0.00  0.00     0.023 C 
BRANCH  19  20
ATOM     20  C   UNL d   1      13.881  13.343  -4.318  0.00  0.00     0.002 C 
ATOM     21  C   UNL d   1      13.283  13.901  -4.398  0.00  0.00     0.000 C 
ATOM     22  C   UNL d   1      14.205  12.993  -4.980  0.00  0.00     0.000 C 
ENDBRANCH  19  20
ENDBRANCH   3  19
TORSDOF 4
ENDMDL
