MODEL 1
REMARK VINA RESULT:      46.4      0.000      0.000
REMARK  6 active torsions:
REMARK  status: ('A' for Active; 'I' for Inactive)
REMARK    1  A    between atoms: C_5  and  N_1 
REMARK    2  A    between atoms: C_7  and  C_5 
REMARK    3  A    between atoms: O_14  and  C_10 
REMARK    4  A    between atoms: C_18  and  O_14 
REMARK    5  A    between atoms: C_19  and  C_18 
REMARK    6  A    between atoms: C_20  and  C_19 
ROOT
ATOM      1  C   UNL d   1     -55.324-100.076 -43.497  0.00  0.00     0.087 C 
ENDROOT
BRANCH   1   2
ATOM      2  N   UNL d   1     -55.128-100.878 -43.476  0.00  0.00    -0.251 N 
ATOM      3  C   UNL d   1     -54.993-101.392 -44.110  0.00  0.00     0.378 A 
ATOM      4  O   UNL d   1     -54.815-102.137 -43.799  0.00  0.00    -0.258 OA
ATOM      5  O   UNL d   1     -55.029-101.200 -44.910  0.00  0.00    -0.237 OA
ATOM      6  C   UNL d   1     -54.840-102.082 -42.974  0.00  0.00     0.121 A 
ATOM      7  C   UNL d   1     -55.033-101.304 -42.774  0.00  0.00     0.092 A 
ATOM      8  C   UNL d   1     -54.713-102.635 -42.370  0.00  0.00     0.026 A 
ATOM      9  C   UNL d   1     -55.099-101.078 -41.987  0.00  0.00     0.020 A 
ATOM     10  C   UNL d   1     -54.973-101.629 -41.392  0.00  0.00     0.002 A 
ATOM     11  C   UNL d   1     -54.779-102.409 -41.584  0.00  0.00     0.002 A 
ATOM     12  C   UNL d   1     -55.039-101.404 -40.602  0.00  0.00     0.000 C 
ENDBRANCH   1   2
BRANCH   1  13
ATOM     13  C   UNL d   1     -55.331 -99.667 -44.215  0.00  0.00     0.041 A 
ATOM     14  C   UNL d   1     -55.941 -99.161 -44.392  0.00  0.00     0.102 A 
ATOM     15  C   UNL d   1     -55.947 -98.757 -45.103  0.00  0.00     0.025 A 
ATOM     16  C   UNL d   1     -55.334 -98.862 -45.642  0.00  0.00     0.002 A 
ATOM     17  C   UNL d   1     -54.714 -99.376 -45.462  0.00  0.00     0.000 A 
ATOM     18  C   UNL d   1     -54.714 -99.781 -44.743  0.00  0.00     0.004 A 
BRANCH  14  19
ATOM     19  O   UNL d   1     -56.560 -99.052 -43.854  0.00  0.00    -0.305 OA
BRANCH  19  20
ATOM     20  C   UNL d   1     -57.306 -98.822 -44.120  0.00  0.00     0.123 C 
BRANCH  20  21
ATOM     21  C   UNL d   1     -57.930 -98.764 -43.594  0.00  0.00     0.027 C 
BRANCH  21  22
ATOM     22  C   UNL d   1     -58.707 -98.763 -43.871  0.00  0.00     0.002 C 
ATOM     23  C   UNL d   1     -59.311 -99.106 -43.420  0.00  0.00     0.000 C 
ENDBRANCH  21  22
ENDBRANCH  20  21
ENDBRANCH  19  20
ENDBRANCH  14  19
ENDBRANCH   1  13
TORSDOF 6
ENDMDL
