MODEL 1
REMARK VINA RESULT:      -3.6      0.000      0.000
REMARK  7 active torsions:
REMARK  status: ('A' for Active; 'I' for Inactive)
REMARK    1  A    between atoms: C_6  and  N_1 
REMARK    2  A    between atoms: C_9  and  C_5 
REMARK    3  A    between atoms: C_7  and  C_6 
REMARK       I    between atoms: N_10  and  C_7 
REMARK    4  A    between atoms: C_12  and  C_9 
REMARK    5  A    between atoms: C_15  and  N_10 
REMARK    6  A    between atoms: C_14  and  C_12 
REMARK    7  A    between atoms: C_17  and  C_14 
ROOT
ATOM      1  N   UNL d   1      33.047  18.640 -23.658  0.00  0.00    -0.230 N 
ATOM      2  C   UNL d   1      33.159  19.152 -24.284  0.00  0.00     0.299 A 
ATOM      3  C   UNL d   1      33.057  19.085 -22.961  0.00  0.00     0.274 A 
ATOM      4  S   UNL d   1      33.237  19.906 -23.978  0.00  0.00    -0.022 SA
ATOM      5  C   UNL d   1      33.175  19.867 -23.164  0.00  0.00     0.090 A 
ATOM      6  O   UNL d   1      33.186  18.936 -25.084  0.00  0.00    -0.259 OA
ATOM      7  O   UNL d   1      32.966  18.794 -22.203  0.00  0.00    -0.266 OA
ENDROOT
BRANCH   1   8
ATOM      8  C   UNL d   1      32.943  17.824 -23.716  0.00  0.00     0.149 C 
BRANCH   8   9
ATOM      9  C   UNL d   1      32.175  17.512 -23.803  0.00  0.00     0.297 C 
ATOM     10  N   UNL d   1      32.055  16.696 -23.774  0.00  0.00    -0.207 NA
ATOM     11  O   UNL d   1      31.535  18.028 -23.919  0.00  0.00    -0.264 OA
BRANCH  10  12
ATOM     12  C   UNL d   1      31.294  16.389 -23.860  0.00  0.00     0.085 A 
ATOM     13  C   UNL d   1      30.989  15.863 -23.298  0.00  0.00     0.022 A 
ATOM     14  C   UNL d   1      30.228  15.556 -23.384  0.00  0.00     0.044 A 
ATOM     15  C   UNL d   1      29.766  15.776 -24.039  0.00  0.00     0.196 A 
ATOM     16  C   UNL d   1      30.072  16.304 -24.604  0.00  0.00     0.044 A 
ATOM     17  O   UNL d   1      29.002  15.468 -24.127  0.00  0.00    -0.287 OA
ATOM     18  C   UNL d   1      30.839  16.610 -24.512  0.00  0.00     0.022 A 
ENDBRANCH  10  12
ENDBRANCH   8   9
ENDBRANCH   1   8
BRANCH   5  19
ATOM     19  C   UNL d   1      33.154  20.116 -22.381  0.00  0.00     0.011 C 
BRANCH  19  20
ATOM     20  C   UNL d   1      33.025  20.919 -22.208  0.00  0.00     0.001 C 
BRANCH  20  21
ATOM     21  C   UNL d   1      32.880  21.150 -21.431  0.00  0.00     0.000 C 
BRANCH  21  22
ATOM     22  C   UNL d   1      32.641  21.922 -21.267  0.00  0.00     0.000 A 
ATOM     23  C   UNL d   1      32.194  22.071 -20.584  0.00  0.00     0.000 A 
ATOM     24  C   UNL d   1      31.951  22.847 -20.414  0.00  0.00     0.000 A 
ATOM     25  C   UNL d   1      32.155  23.459 -20.923  0.00  0.00     0.000 A 
ATOM     26  C   UNL d   1      32.602  23.300 -21.604  0.00  0.00     0.000 A 
ATOM     27  C   UNL d   1      32.839  22.534 -21.767  0.00  0.00     0.000 A 
ENDBRANCH  21  22
ENDBRANCH  20  21
ENDBRANCH  19  20
ENDBRANCH   5  19
TORSDOF 7
ENDMDL
MODEL 2
REMARK VINA RESULT:      -3.4      1.049      1.335
REMARK  7 active torsions:
REMARK  status: ('A' for Active; 'I' for Inactive)
REMARK    1  A    between atoms: C_6  and  N_1 
REMARK    2  A    between atoms: C_9  and  C_5 
REMARK    3  A    between atoms: C_7  and  C_6 
REMARK       I    between atoms: N_10  and  C_7 
REMARK    4  A    between atoms: C_12  and  C_9 
REMARK    5  A    between atoms: C_15  and  N_10 
REMARK    6  A    between atoms: C_14  and  C_12 
REMARK    7  A    between atoms: C_17  and  C_14 
ROOT
ATOM      1  N   UNL d   1      32.966  18.540 -23.328  0.00  0.00    -0.230 N 
ATOM      2  C   UNL d   1      33.133  18.238 -22.588  0.00  0.00     0.299 A 
ATOM      3  C   UNL d   1      32.972  19.365 -23.273  0.00  0.00     0.274 A 
ATOM      4  S   UNL d   1      33.241  18.870 -22.079  0.00  0.00    -0.022 SA
ATOM      5  C   UNL d   1      33.142  19.564 -22.500  0.00  0.00     0.090 A 
ATOM      6  O   UNL d   1      33.182  17.433 -22.396  0.00  0.00    -0.259 OA
ATOM      7  O   UNL d   1      32.832  19.888 -23.884  0.00  0.00    -0.266 OA
ENDROOT
BRANCH   1   8
ATOM      8  C   UNL d   1      32.818  18.096 -24.007  0.00  0.00     0.149 C 
BRANCH   8   9
ATOM      9  C   UNL d   1      32.086  17.708 -24.094  0.00  0.00     0.297 C 
ATOM     10  N   UNL d   1      31.609  17.870 -24.748  0.00  0.00    -0.207 NA
ATOM     11  O   UNL d   1      31.843  17.159 -23.520  0.00  0.00    -0.264 OA
BRANCH  10  12
ATOM     12  C   UNL d   1      30.884  17.484 -24.833  0.00  0.00     0.085 A 
ATOM     13  C   UNL d   1      30.859  16.676 -25.012  0.00  0.00     0.022 A 
ATOM     14  C   UNL d   1      30.135  16.291 -25.097  0.00  0.00     0.044 A 
ATOM     15  C   UNL d   1      29.427  16.716 -25.001  0.00  0.00     0.196 A 
ATOM     16  C   UNL d   1      29.451  17.528 -24.821  0.00  0.00     0.044 A 
ATOM     17  O   UNL d   1      28.699  16.329 -25.086  0.00  0.00    -0.287 OA
ATOM     18  C   UNL d   1      30.184  17.911 -24.737  0.00  0.00     0.022 A 
ENDBRANCH  10  12
ENDBRANCH   8   9
ENDBRANCH   1   8
BRANCH   5  19
ATOM     19  C   UNL d   1      33.101  20.370 -22.654  0.00  0.00     0.011 C 
BRANCH  19  20
ATOM     20  C   UNL d   1      33.105  20.911 -22.024  0.00  0.00     0.001 C 
BRANCH  20  21
ATOM     21  C   UNL d   1      33.051  21.718 -22.179  0.00  0.00     0.000 C 
BRANCH  21  22
ATOM     22  C   UNL d   1      32.795  22.236 -21.591  0.00  0.00     0.000 A 
ATOM     23  C   UNL d   1      33.084  22.148 -20.819  0.00  0.00     0.000 A 
ATOM     24  C   UNL d   1      32.830  22.667 -20.223  0.00  0.00     0.000 A 
ATOM     25  C   UNL d   1      32.293  23.263 -20.402  0.00  0.00     0.000 A 
ATOM     26  C   UNL d   1      32.009  23.344 -21.179  0.00  0.00     0.000 A 
ATOM     27  C   UNL d   1      32.263  22.830 -21.762  0.00  0.00     0.000 A 
ENDBRANCH  21  22
ENDBRANCH  20  21
ENDBRANCH  19  20
ENDBRANCH   5  19
TORSDOF 7
ENDMDL
MODEL 3
REMARK VINA RESULT:      -3.1      1.122      1.650
REMARK  7 active torsions:
REMARK  status: ('A' for Active; 'I' for Inactive)
REMARK    1  A    between atoms: C_6  and  N_1 
REMARK    2  A    between atoms: C_9  and  C_5 
REMARK    3  A    between atoms: C_7  and  C_6 
REMARK       I    between atoms: N_10  and  C_7 
REMARK    4  A    between atoms: C_12  and  C_9 
REMARK    5  A    between atoms: C_15  and  N_10 
REMARK    6  A    between atoms: C_14  and  C_12 
REMARK    7  A    between atoms: C_17  and  C_14 
ROOT
ATOM      1  N   UNL d   1      32.470  17.520 -23.826  0.00  0.00    -0.230 N 
ATOM      2  C   UNL d   1      32.911  17.147 -23.250  0.00  0.00     0.299 A 
ATOM      3  C   UNL d   1      32.530  18.336 -23.703  0.00  0.00     0.274 A 
ATOM      4  S   UNL d   1      33.241  17.725 -22.773  0.00  0.00    -0.022 SA
ATOM      5  C   UNL d   1      33.007  18.457 -23.051  0.00  0.00     0.090 A 
ATOM      6  O   UNL d   1      33.003  16.327 -23.169  0.00  0.00    -0.259 OA
ATOM      7  O   UNL d   1      32.174  18.917 -24.153  0.00  0.00    -0.266 OA
ENDROOT
BRANCH   1   8
ATOM      8  C   UNL d   1      32.043  17.146 -24.424  0.00  0.00     0.149 C 
BRANCH   8   9
ATOM      9  C   UNL d   1      31.325  16.765 -24.240  0.00  0.00     0.297 C 
ATOM     10  N   UNL d   1      30.631  16.983 -24.629  0.00  0.00    -0.207 NA
ATOM     11  O   UNL d   1      31.316  16.166 -23.664  0.00  0.00    -0.264 OA
BRANCH  10  12
ATOM     12  C   UNL d   1      29.921  16.604 -24.445  0.00  0.00     0.085 A 
ATOM     13  C   UNL d   1      29.539  16.759 -23.727  0.00  0.00     0.022 A 
ATOM     14  C   UNL d   1      28.829  16.380 -23.543  0.00  0.00     0.044 A 
ATOM     15  C   UNL d   1      28.497  15.841 -24.082  0.00  0.00     0.196 A 
ATOM     16  C   UNL d   1      28.880  15.686 -24.803  0.00  0.00     0.044 A 
ATOM     17  O   UNL d   1      27.784  15.461 -23.898  0.00  0.00    -0.287 OA
ATOM     18  C   UNL d   1      29.595  16.070 -24.983  0.00  0.00     0.022 A 
ENDBRANCH  10  12
ENDBRANCH   8   9
ENDBRANCH   1   8
BRANCH   5  19
ATOM     19  C   UNL d   1      32.938  19.275 -23.102  0.00  0.00     0.011 C 
BRANCH  19  20
ATOM     20  C   UNL d   1      32.966  19.734 -22.410  0.00  0.00     0.001 C 
BRANCH  20  21
ATOM     21  C   UNL d   1      33.084  20.547 -22.464  0.00  0.00     0.000 C 
BRANCH  21  22
ATOM     22  C   UNL d   1      33.044  21.017 -21.788  0.00  0.00     0.000 A 
ATOM     23  C   UNL d   1      33.012  20.655 -21.043  0.00  0.00     0.000 A 
ATOM     24  C   UNL d   1      32.971  21.123 -20.359  0.00  0.00     0.000 A 
ATOM     25  C   UNL d   1      32.962  21.943 -20.426  0.00  0.00     0.000 A 
ATOM     26  C   UNL d   1      32.994  22.297 -21.176  0.00  0.00     0.000 A 
ATOM     27  C   UNL d   1      33.034  21.830 -21.847  0.00  0.00     0.000 A 
ENDBRANCH  21  22
ENDBRANCH  20  21
ENDBRANCH  19  20
ENDBRANCH   5  19
TORSDOF 7
ENDMDL
MODEL 4
REMARK VINA RESULT:      -1.4      1.538      5.712
REMARK  7 active torsions:
REMARK  status: ('A' for Active; 'I' for Inactive)
REMARK    1  A    between atoms: C_6  and  N_1 
REMARK    2  A    between atoms: C_9  and  C_5 
REMARK    3  A    between atoms: C_7  and  C_6 
REMARK       I    between atoms: N_10  and  C_7 
REMARK    4  A    between atoms: C_12  and  C_9 
REMARK    5  A    between atoms: C_15  and  N_10 
REMARK    6  A    between atoms: C_14  and  C_12 
REMARK    7  A    between atoms: C_17  and  C_14 
ROOT
ATOM      1  N   UNL d   1      32.594  18.160 -23.568  0.00  0.00    -0.230 N 
ATOM      2  C   UNL d   1      32.623  17.404 -23.263  0.00  0.00     0.299 A 
ATOM      3  C   UNL d   1      31.884  18.239 -23.985  0.00  0.00     0.274 A 
ATOM      4  S   UNL d   1      31.937  17.017 -23.488  0.00  0.00    -0.022 SA
ATOM      5  C   UNL d   1      31.482  17.531 -23.932  0.00  0.00     0.090 A 
ATOM      6  O   UNL d   1      33.241  17.091 -22.807  0.00  0.00    -0.259 OA
ATOM      7  O   UNL d   1      31.629  18.908 -24.379  0.00  0.00    -0.266 OA
ENDROOT
BRANCH   1   8
ATOM      8  C   UNL d   1      33.173  18.740 -23.475  0.00  0.00     0.149 C 
BRANCH   8   9
ATOM      9  C   UNL d   1      33.164  19.226 -22.798  0.00  0.00     0.297 C 
ATOM     10  N   UNL d   1      33.184  20.047 -22.880  0.00  0.00    -0.207 NA
ATOM     11  O   UNL d   1      33.136  18.877 -22.045  0.00  0.00    -0.264 OA
BRANCH  10  12
ATOM     12  C   UNL d   1      33.175  20.526 -22.208  0.00  0.00     0.085 A 
ATOM     13  C   UNL d   1      33.235  20.189 -21.453  0.00  0.00     0.022 A 
ATOM     14  C   UNL d   1      33.227  20.668 -20.782  0.00  0.00     0.044 A 
ATOM     15  C   UNL d   1      33.156  21.493 -20.863  0.00  0.00     0.196 A 
ATOM     16  C   UNL d   1      33.096  21.831 -21.621  0.00  0.00     0.044 A 
ATOM     17  O   UNL d   1      33.148  21.974 -20.189  0.00  0.00    -0.287 OA
ATOM     18  C   UNL d   1      33.105  21.344 -22.294  0.00  0.00     0.022 A 
ENDBRANCH  10  12
ENDBRANCH   8   9
ENDBRANCH   1   8
BRANCH   5  19
ATOM     19  C   UNL d   1      30.851  17.808 -24.381  0.00  0.00     0.011 C 
BRANCH  19  20
ATOM     20  C   UNL d   1      30.304  17.269 -24.700  0.00  0.00     0.001 C 
BRANCH  20  21
ATOM     21  C   UNL d   1      29.498  17.392 -24.586  0.00  0.00     0.000 C 
BRANCH  21  22
ATOM     22  C   UNL d   1      28.988  16.748 -24.509  0.00  0.00     0.000 A 
ATOM     23  C   UNL d   1      29.031  16.129 -25.059  0.00  0.00     0.000 A 
ATOM     24  C   UNL d   1      28.520  15.479 -24.986  0.00  0.00     0.000 A 
ATOM     25  C   UNL d   1      27.977  15.454 -24.369  0.00  0.00     0.000 A 
ATOM     26  C   UNL d   1      27.942  16.078 -23.823  0.00  0.00     0.000 A 
ATOM     27  C   UNL d   1      28.448  16.717 -23.900  0.00  0.00     0.000 A 
ENDBRANCH  21  22
ENDBRANCH  20  21
ENDBRANCH  19  20
ENDBRANCH   5  19
TORSDOF 7
ENDMDL
