MODEL 1
REMARK VINA RESULT:      37.1      0.000      0.000
REMARK  6 active torsions:
REMARK  status: ('A' for Active; 'I' for Inactive)
REMARK    1  A    between atoms: N_2  and  S_1 
REMARK    2  A    between atoms: C_3  and  S_1 
REMARK    3  A    between atoms: C_9  and  N_2 
REMARK    4  A    between atoms: C_13  and  C_9 
REMARK    5  A    between atoms: O_14  and  C_10 
REMARK    6  A    between atoms: C_17  and  O_14 
ROOT
ATOM      1  S   UNL d   1      58.269  49.707  50.669  0.00  0.00     0.285 S 
ATOM      2  O   UNL d   1      57.998  49.707  51.447  0.00  0.00    -0.198 OA
ATOM      3  O   UNL d   1      58.540  49.707  49.890  0.00  0.00    -0.198 OA
ENDROOT
BRANCH   1   4
ATOM      4  N   UNL d   1      57.490  49.707  50.397  0.00  0.00    -0.157 NA
BRANCH   4   5
ATOM      5  C   UNL d   1      56.964  49.120  50.646  0.00  0.00     0.112 C 
BRANCH   5   6
ATOM      6  C   UNL d   1      56.672  48.571  50.104  0.00  0.00     0.023 A 
ATOM      7  C   UNL d   1      56.652  47.762  50.297  0.00  0.00     0.022 A 
ATOM      8  C   UNL d   1      56.360  47.213  49.756  0.00  0.00     0.099 A 
ATOM      9  N   UNL d   1      56.089  47.462  49.025  0.00  0.00    -0.242 NA
ATOM     10  C   UNL d   1      56.107  48.264  48.829  0.00  0.00     0.099 A 
ATOM     11  C   UNL d   1      56.401  48.820  49.374  0.00  0.00     0.022 A 
ENDBRANCH   5   6
ENDBRANCH   4   5
ENDBRANCH   1   4
BRANCH   1  12
ATOM     12  C   UNL d   1      59.048  49.707  50.940  0.00  0.00     0.105 A 
ATOM     13  C   UNL d   1      59.202  49.708  51.750  0.00  0.00     0.015 A 
ATOM     14  C   UNL d   1      59.981  49.708  52.021  0.00  0.00     0.025 A 
ATOM     15  C   UNL d   1      60.607  49.707  51.481  0.00  0.00     0.100 A 
ATOM     16  C   UNL d   1      60.454  49.706  50.670  0.00  0.00     0.025 A 
ATOM     17  C   UNL d   1      59.674  49.706  50.399  0.00  0.00     0.015 A 
BRANCH  15  18
ATOM     18  O   UNL d   1      61.386  49.707  51.751  0.00  0.00    -0.305 OA
BRANCH  18  19
ATOM     19  C   UNL d   1      61.587  49.277  52.426  0.00  0.00     0.123 C 
ATOM     20  C   UNL d   1      62.217  49.525  52.904  0.00  0.00     0.029 C 
ENDBRANCH  18  19
ENDBRANCH  15  18
ENDBRANCH   1  12
TORSDOF 6
ENDMDL
