MODEL 1
REMARK VINA RESULT:      27.1      0.000      0.000
REMARK  3 active torsions:
REMARK  status: ('A' for Active; 'I' for Inactive)
REMARK    1  A    between atoms: S_10  and  C_7 
REMARK    2  A    between atoms: C_13  and  S_10 
REMARK    3  A    between atoms: C_12  and  C_13 
ROOT
ATOM      1  N   UNL d   1      13.259  13.299  -4.035  0.00  0.00    -0.167 N 
ATOM      2  C   UNL d   1      13.074  12.629  -4.471  0.00  0.00     0.220 A 
ATOM      3  C   UNL d   1      13.227  14.055  -4.380  0.00  0.00     0.301 A 
ATOM      4  S   UNL d   1      13.157  11.976  -3.979  0.00  0.00    -0.019 SA
ATOM      5  N   UNL d   1      13.455  13.061  -3.278  0.00  0.00    -0.147 NA
ATOM      6  N   UNL d   1      12.853  12.711  -5.266  0.00  0.00    -0.121 NA
ATOM      7  C   UNL d   1      13.393  12.250  -3.242  0.00  0.00     0.163 A 
ATOM      8  N   UNL d   1      12.819  13.449  -5.614  0.00  0.00    -0.141 NA
ATOM      9  C   UNL d   1      13.005  14.119  -5.172  0.00  0.00     0.161 A 
ATOM     10  O   UNL d   1      13.413  14.722  -3.940  0.00  0.00    -0.263 OA
ATOM     11  C   UNL d   1      12.973  14.870  -5.516  0.00  0.00     0.028 C 
ENDROOT
BRANCH   7  12
ATOM     12  S   UNL d   1      13.543  11.780  -2.577  0.00  0.00    -0.059 SA
BRANCH  12  13
ATOM     13  C   UNL d   1      13.462  12.102  -1.825  0.00  0.00     0.038 C 
BRANCH  13  14
ATOM     14  C   UNL d   1      14.116  12.033  -1.331  0.00  0.00     0.017 A 
ATOM     15  C   UNL d   1      14.025  12.097  -0.511  0.00  0.00     0.058 A 
ATOM     16 CL   UNL d   1      13.279  12.230  -0.189  0.00  0.00    -0.082 Cl
ATOM     17  C   UNL d   1      14.668  12.030  -0.015  0.00  0.00     0.011 A 
ATOM     18  C   UNL d   1      15.425  11.896  -0.332  0.00  0.00     0.001 A 
ATOM     19  C   UNL d   1      15.524  11.831  -1.141  0.00  0.00     0.000 A 
ATOM     20  C   UNL d   1      14.874  11.899  -1.648  0.00  0.00     0.001 A 
ENDBRANCH  13  14
ENDBRANCH  12  13
ENDBRANCH   7  12
TORSDOF 3
ENDMDL
