MODEL 1
REMARK VINA RESULT:      -8.4      0.000      0.000
REMARK  3 active torsions:
REMARK  status: ('A' for Active; 'I' for Inactive)
REMARK    1  A    between atoms: C_5  and  N_1 
REMARK    2  A    between atoms: C_8  and  C_2 
REMARK    3  A    between atoms: C_7  and  C_5 
ROOT
ATOM      1  N   UNL d   1     -49.032  13.335  22.755  0.00  0.00    -0.287 N 
ATOM      2  C   UNL d   1     -49.304  13.165  21.992  0.00  0.00     0.187 A 
ATOM      3  N   UNL d   1     -49.757  13.813  21.720  0.00  0.00    -0.224 NA
ATOM      4  C   UNL d   1     -49.313  14.092  22.968  0.00  0.00     0.083 A 
ATOM      5  C   UNL d   1     -49.757  14.381  22.329  0.00  0.00     0.099 A 
ATOM      6  C   UNL d   1     -49.226  14.559  23.654  0.00  0.00     0.019 A 
ATOM      7  C   UNL d   1     -50.117  15.136  22.372  0.00  0.00     0.021 A 
ATOM      8  C   UNL d   1     -49.579  15.303  23.698  0.00  0.00     0.002 A 
ATOM      9  C   UNL d   1     -50.024  15.591  23.059  0.00  0.00     0.002 A 
ENDROOT
BRANCH   1  10
ATOM     10  C   UNL d   1     -48.574  12.741  23.096  0.00  0.00     0.082 C 
BRANCH  10  11
ATOM     11  C   UNL d   1     -47.759  12.820  23.134  0.00  0.00     0.018 A 
ATOM     12  C   UNL d   1     -47.299  12.214  23.435  0.00  0.00     0.001 A 
ATOM     13  C   UNL d   1     -46.483  12.292  23.473  0.00  0.00     0.000 A 
ATOM     14  C   UNL d   1     -47.665  11.522  23.698  0.00  0.00     0.000 C 
ATOM     15  C   UNL d   1     -46.121  12.985  23.209  0.00  0.00     0.000 A 
ATOM     16  C   UNL d   1     -46.583  13.598  22.906  0.00  0.00     0.000 A 
ATOM     17  C   UNL d   1     -47.401  13.515  22.869  0.00  0.00     0.002 A 
ATOM     18  C   UNL d   1     -46.224  14.293  22.640  0.00  0.00     0.000 C 
ENDBRANCH  10  11
ENDBRANCH   1  10
BRANCH   2  19
ATOM     19  C   UNL d   1     -49.394  12.712  21.315  0.00  0.00     0.230 C 
ATOM     20  O   UNL d   1     -48.864  12.795  20.688  0.00  0.00    -0.283 OA
ATOM     21  C   UNL d   1     -50.011  12.174  21.257  0.00  0.00     0.049 C 
ENDBRANCH   2  19
TORSDOF 3
ENDMDL
MODEL 2
REMARK VINA RESULT:      -6.9      1.181      2.368
REMARK  3 active torsions:
REMARK  status: ('A' for Active; 'I' for Inactive)
REMARK    1  A    between atoms: C_5  and  N_1 
REMARK    2  A    between atoms: C_8  and  C_2 
REMARK    3  A    between atoms: C_7  and  C_5 
ROOT
ATOM      1  N   UNL d   1     -48.571  13.975  23.171  0.00  0.00    -0.287 N 
ATOM      2  C   UNL d   1     -47.985  14.483  22.880  0.00  0.00     0.187 A 
ATOM      3  N   UNL d   1     -48.297  15.258  22.845  0.00  0.00    -0.224 NA
ATOM      4  C   UNL d   1     -49.256  14.429  23.320  0.00  0.00     0.083 A 
ATOM      5  C   UNL d   1     -49.082  15.215  23.118  0.00  0.00     0.099 A 
ATOM      6  C   UNL d   1     -50.014  14.236  23.611  0.00  0.00     0.019 A 
ATOM      7  C   UNL d   1     -49.663  15.812  23.206  0.00  0.00     0.021 A 
ATOM      8  C   UNL d   1     -50.587  14.822  23.698  0.00  0.00     0.002 A 
ATOM      9  C   UNL d   1     -50.413  15.608  23.496  0.00  0.00     0.002 A 
ENDROOT
BRANCH   1  10
ATOM     10  C   UNL d   1     -48.340  13.187  23.236  0.00  0.00     0.082 C 
BRANCH  10  11
ATOM     11  C   UNL d   1     -48.687  12.615  22.762  0.00  0.00     0.018 A 
ATOM     12  C   UNL d   1     -48.675  11.829  22.988  0.00  0.00     0.001 A 
ATOM     13  C   UNL d   1     -49.023  11.256  22.514  0.00  0.00     0.000 A 
ATOM     14  C   UNL d   1     -48.311  11.618  23.698  0.00  0.00     0.000 C 
ATOM     15  C   UNL d   1     -49.387  11.471  21.805  0.00  0.00     0.000 A 
ATOM     16  C   UNL d   1     -49.399  12.263  21.575  0.00  0.00     0.000 A 
ATOM     17  C   UNL d   1     -49.050  12.834  22.054  0.00  0.00     0.002 A 
ATOM     18  C   UNL d   1     -49.762  12.482  20.866  0.00  0.00     0.000 C 
ENDBRANCH  10  11
ENDBRANCH   1  10
BRANCH   2  19
ATOM     19  C   UNL d   1     -47.243  14.680  22.594  0.00  0.00     0.230 C 
ATOM     20  O   UNL d   1     -47.169  15.092  21.883  0.00  0.00    -0.283 OA
ATOM     21  C   UNL d   1     -46.569  14.469  23.013  0.00  0.00     0.049 C 
ENDBRANCH   2  19
TORSDOF 3
ENDMDL
MODEL 3
REMARK VINA RESULT:      -6.5      7.921      9.918
REMARK  3 active torsions:
REMARK  status: ('A' for Active; 'I' for Inactive)
REMARK    1  A    between atoms: C_5  and  N_1 
REMARK    2  A    between atoms: C_8  and  C_2 
REMARK    3  A    between atoms: C_7  and  C_5 
ROOT
ATOM      1  N   UNL d   1     -40.018  15.197  19.642  0.00  0.00    -0.287 N 
ATOM      2  C   UNL d   1     -40.463  14.839  20.242  0.00  0.00     0.187 A 
ATOM      3  N   UNL d   1     -40.007  14.827  20.941  0.00  0.00    -0.224 NA
ATOM      4  C   UNL d   1     -39.277  15.411  19.962  0.00  0.00     0.083 A 
ATOM      5  C   UNL d   1     -39.276  15.182  20.760  0.00  0.00     0.099 A 
ATOM      6  C   UNL d   1     -38.603  15.782  19.639  0.00  0.00     0.019 A 
ATOM      7  C   UNL d   1     -38.603  15.322  21.238  0.00  0.00     0.021 A 
ATOM      8  C   UNL d   1     -37.940  15.922  20.109  0.00  0.00     0.002 A 
ATOM      9  C   UNL d   1     -37.940  15.692  20.906  0.00  0.00     0.002 A 
ENDROOT
BRANCH   1  10
ATOM     10  C   UNL d   1     -40.401  15.248  18.914  0.00  0.00     0.082 C 
BRANCH  10  11
ATOM     11  C   UNL d   1     -40.098  14.856  18.261  0.00  0.00     0.018 A 
ATOM     12  C   UNL d   1     -40.162  15.187  17.515  0.00  0.00     0.001 A 
ATOM     13  C   UNL d   1     -39.858  14.795  16.860  0.00  0.00     0.000 A 
ATOM     14  C   UNL d   1     -40.533  15.919  17.428  0.00  0.00     0.000 C 
ATOM     15  C   UNL d   1     -39.488  14.063  16.951  0.00  0.00     0.000 A 
ATOM     16  C   UNL d   1     -39.423  13.728  17.702  0.00  0.00     0.000 A 
ATOM     17  C   UNL d   1     -39.728  14.124  18.356  0.00  0.00     0.002 A 
ATOM     18  C   UNL d   1     -39.053  12.996  17.797  0.00  0.00     0.000 C 
ENDBRANCH  10  11
ENDBRANCH   1  10
BRANCH   2  19
ATOM     19  C   UNL d   1     -41.121  14.474  20.566  0.00  0.00     0.230 C 
ATOM     20  O   UNL d   1     -41.150  13.652  20.627  0.00  0.00    -0.283 OA
ATOM     21  C   UNL d   1     -41.755  14.924  20.830  0.00  0.00     0.049 C 
ENDBRANCH   2  19
TORSDOF 3
ENDMDL
MODEL 4
REMARK VINA RESULT:      -5.9      7.857      9.802
REMARK  3 active torsions:
REMARK  status: ('A' for Active; 'I' for Inactive)
REMARK    1  A    between atoms: C_5  and  N_1 
REMARK    2  A    between atoms: C_8  and  C_2 
REMARK    3  A    between atoms: C_7  and  C_5 
ROOT
ATOM      1  N   UNL d   1     -39.845  14.962  19.867  0.00  0.00    -0.287 N 
ATOM      2  C   UNL d   1     -39.230  14.968  20.422  0.00  0.00     0.187 A 
ATOM      3  N   UNL d   1     -39.492  14.581  21.115  0.00  0.00    -0.224 NA
ATOM      4  C   UNL d   1     -40.499  14.571  20.210  0.00  0.00     0.083 A 
ATOM      5  C   UNL d   1     -40.277  14.339  20.975  0.00  0.00     0.099 A 
ATOM      6  C   UNL d   1     -41.265  14.394  19.931  0.00  0.00     0.019 A 
ATOM      7  C   UNL d   1     -40.818  13.930  21.465  0.00  0.00     0.021 A 
ATOM      8  C   UNL d   1     -41.800  13.990  20.413  0.00  0.00     0.002 A 
ATOM      9  C   UNL d   1     -41.577  13.759  21.178  0.00  0.00     0.002 A 
ENDROOT
BRANCH   1  10
ATOM     10  C   UNL d   1     -39.665  15.328  19.151  0.00  0.00     0.082 C 
BRANCH  10  11
ATOM     11  C   UNL d   1     -39.632  14.887  18.461  0.00  0.00     0.018 A 
ATOM     12  C   UNL d   1     -39.958  15.180  17.769  0.00  0.00     0.001 A 
ATOM     13  C   UNL d   1     -39.925  14.739  17.077  0.00  0.00     0.000 A 
ATOM     14  C   UNL d   1     -40.319  15.921  17.775  0.00  0.00     0.000 C 
ATOM     15  C   UNL d   1     -39.563  13.997  17.076  0.00  0.00     0.000 A 
ATOM     16  C   UNL d   1     -39.234  13.701  17.772  0.00  0.00     0.000 A 
ATOM     17  C   UNL d   1     -39.269  14.146  18.463  0.00  0.00     0.002 A 
ATOM     18  C   UNL d   1     -38.871  12.959  17.774  0.00  0.00     0.000 C 
ENDBRANCH  10  11
ENDBRANCH   1  10
BRANCH   2  19
ATOM     19  C   UNL d   1     -38.479  15.139  20.702  0.00  0.00     0.230 C 
ATOM     20  O   UNL d   1     -37.947  14.529  20.858  0.00  0.00    -0.283 OA
ATOM     21  C   UNL d   1     -38.253  15.918  20.828  0.00  0.00     0.049 C 
ENDBRANCH   2  19
TORSDOF 3
ENDMDL
MODEL 5
REMARK VINA RESULT:      -5.5      9.798     11.654
REMARK  3 active torsions:
REMARK  status: ('A' for Active; 'I' for Inactive)
REMARK    1  A    between atoms: C_5  and  N_1 
REMARK    2  A    between atoms: C_8  and  C_2 
REMARK    3  A    between atoms: C_7  and  C_5 
ROOT
ATOM      1  N   UNL d   1     -38.210  14.023  17.165  0.00  0.00    -0.287 N 
ATOM      2  C   UNL d   1     -38.272  13.197  17.176  0.00  0.00     0.187 A 
ATOM      3  N   UNL d   1     -38.216  12.916  16.391  0.00  0.00    -0.224 NA
ATOM      4  C   UNL d   1     -38.115  14.265  16.371  0.00  0.00     0.083 A 
ATOM      5  C   UNL d   1     -38.119  13.581  15.901  0.00  0.00     0.099 A 
ATOM      6  C   UNL d   1     -38.024  15.013  16.012  0.00  0.00     0.019 A 
ATOM      7  C   UNL d   1     -38.033  13.641  15.070  0.00  0.00     0.021 A 
ATOM      8  C   UNL d   1     -37.940  15.073  15.193  0.00  0.00     0.002 A 
ATOM      9  C   UNL d   1     -37.944  14.388  14.724  0.00  0.00     0.002 A 
ENDROOT
BRANCH   1  10
ATOM     10  C   UNL d   1     -38.256  14.381  17.906  0.00  0.00     0.082 C 
BRANCH  10  11
ATOM     11  C   UNL d   1     -38.907  14.839  18.103  0.00  0.00     0.018 A 
ATOM     12  C   UNL d   1     -38.828  15.462  18.627  0.00  0.00     0.001 A 
ATOM     13  C   UNL d   1     -39.480  15.922  18.825  0.00  0.00     0.000 A 
ATOM     14  C   UNL d   1     -38.089  15.624  18.956  0.00  0.00     0.000 C 
ATOM     15  C   UNL d   1     -40.217  15.757  18.494  0.00  0.00     0.000 A 
ATOM     16  C   UNL d   1     -40.298  15.129  17.965  0.00  0.00     0.000 A 
ATOM     17  C   UNL d   1     -39.643  14.671  17.770  0.00  0.00     0.002 A 
ATOM     18  C   UNL d   1     -41.035  14.961  17.632  0.00  0.00     0.000 C 
ENDBRANCH  10  11
ENDBRANCH   1  10
BRANCH   2  19
ATOM     19  C   UNL d   1     -38.360  12.460  17.522  0.00  0.00     0.230 C 
ATOM     20  O   UNL d   1     -38.872  11.905  17.191  0.00  0.00    -0.283 OA
ATOM     21  C   UNL d   1     -37.940  12.270  18.201  0.00  0.00     0.049 C 
ENDBRANCH   2  19
TORSDOF 3
ENDMDL
