MODEL 1
REMARK VINA RESULT:      -8.7      0.000      0.000
REMARK  4 active torsions:
REMARK  status: ('A' for Active; 'I' for Inactive)
REMARK    1  A    between atoms: C_7  and  N_1 
REMARK    2  A    between atoms: C_9  and  C_7 
REMARK       I    between atoms: N_16  and  C_9 
REMARK    3  A    between atoms: C_21  and  N_16 
REMARK    4  A    between atoms: C_20  and  C_21 
ROOT
ATOM      1  C   UNL d   1     -48.403  13.631  22.310  0.00  0.00     0.146 C 
ENDROOT
BRANCH   1   2
ATOM      2  N   UNL d   1     -49.086  13.982  22.595  0.00  0.00    -0.269 N 
ATOM      3  C   UNL d   1     -49.116  14.801  22.611  0.00  0.00     0.265 A 
ATOM      4  C   UNL d   1     -49.782  15.276  22.890  0.00  0.00     0.068 A 
ATOM      5  O   UNL d   1     -48.438  15.208  22.333  0.00  0.00    -0.267 OA
ATOM      6  C   UNL d   1     -50.527  15.002  23.196  0.00  0.00     0.034 A 
ATOM      7  C   UNL d   1     -51.062  15.572  23.421  0.00  0.00     0.007 C 
ATOM      8  S   UNL d   1     -50.764  14.223  23.290  0.00  0.00    -0.085 SA
ATOM      9  C   UNL d   1     -50.381  13.660  23.128  0.00  0.00     0.046 A 
ATOM     10  C   UNL d   1     -49.613  13.530  22.810  0.00  0.00     0.073 A 
ATOM     11  C   UNL d   1     -50.861  13.000  23.323  0.00  0.00     0.008 A 
ATOM     12  C   UNL d   1     -49.329  12.757  22.688  0.00  0.00     0.018 A 
ATOM     13  C   UNL d   1     -49.808  12.105  22.883  0.00  0.00     0.002 A 
ATOM     14  C   UNL d   1     -50.578  12.227  23.202  0.00  0.00     0.001 A 
ENDBRANCH   1   2
BRANCH   1  15
ATOM     15  C   UNL d   1     -47.699  13.731  22.723  0.00  0.00     0.297 C 
ATOM     16  N   UNL d   1     -47.036  13.295  22.539  0.00  0.00    -0.205 NA
ATOM     17  O   UNL d   1     -47.666  14.281  23.329  0.00  0.00    -0.264 OA
BRANCH  16  18
ATOM     18  C   UNL d   1     -46.345  13.397  22.949  0.00  0.00     0.102 C 
BRANCH  18  19
ATOM     19  C   UNL d   1     -45.665  13.013  22.712  0.00  0.00     0.021 A 
ATOM     20  C   UNL d   1     -45.132  13.401  22.219  0.00  0.00     0.028 A 
ATOM     21  C   UNL d   1     -44.441  13.008  21.978  0.00  0.00     0.119 A 
ATOM     22  O   UNL d   1     -43.825  13.231  21.509  0.00  0.00    -0.300 OA
ATOM     23  C   UNL d   1     -44.303  12.247  22.235  0.00  0.00     0.119 A 
ATOM     24  C   UNL d   1     -43.297  12.612  21.468  0.00  0.00     0.304 A 
ATOM     25  O   UNL d   1     -43.588  11.998  21.916  0.00  0.00    -0.300 OA
ATOM     26  C   UNL d   1     -44.846  11.870  22.729  0.00  0.00     0.026 A 
ATOM     27  C   UNL d   1     -45.525  12.263  22.963  0.00  0.00     0.004 A 
ENDBRANCH  18  19
ENDBRANCH  16  18
ENDBRANCH   1  15
TORSDOF 4
ENDMDL
MODEL 2
REMARK VINA RESULT:      -8.1      1.767      2.533
REMARK  4 active torsions:
REMARK  status: ('A' for Active; 'I' for Inactive)
REMARK    1  A    between atoms: C_7  and  N_1 
REMARK    2  A    between atoms: C_9  and  C_7 
REMARK       I    between atoms: N_16  and  C_9 
REMARK    3  A    between atoms: C_21  and  N_16 
REMARK    4  A    between atoms: C_20  and  C_21 
ROOT
ATOM      1  C   UNL d   1     -48.520  12.614  23.677  0.00  0.00     0.146 C 
ENDROOT
BRANCH   1   2
ATOM      2  N   UNL d   1     -49.039  12.792  23.069  0.00  0.00    -0.269 N 
ATOM      3  C   UNL d   1     -49.590  12.223  22.859  0.00  0.00     0.265 A 
ATOM      4  C   UNL d   1     -50.184  12.300  22.236  0.00  0.00     0.068 A 
ATOM      5  O   UNL d   1     -49.572  11.504  23.291  0.00  0.00    -0.267 OA
ATOM      6  C   UNL d   1     -50.318  12.966  21.722  0.00  0.00     0.034 A 
ATOM      7  C   UNL d   1     -50.919  12.893  21.180  0.00  0.00     0.007 C 
ATOM      8  S   UNL d   1     -49.906  13.674  21.717  0.00  0.00    -0.085 SA
ATOM      9  C   UNL d   1     -49.373  13.838  22.141  0.00  0.00     0.046 A 
ATOM     10  C   UNL d   1     -48.963  13.448  22.765  0.00  0.00     0.073 A 
ATOM     11  C   UNL d   1     -49.142  14.613  21.920  0.00  0.00     0.008 A 
ATOM     12  C   UNL d   1     -48.335  13.824  23.160  0.00  0.00     0.018 A 
ATOM     13  C   UNL d   1     -48.109  14.593  22.938  0.00  0.00     0.002 A 
ATOM     14  C   UNL d   1     -48.514  14.990  22.315  0.00  0.00     0.001 A 
ENDBRANCH   1   2
BRANCH   1  15
ATOM     15  C   UNL d   1     -48.117  11.897  23.663  0.00  0.00     0.297 C 
ATOM     16  N   UNL d   1     -47.304  11.870  23.619  0.00  0.00    -0.205 NA
ATOM     17  O   UNL d   1     -48.543  11.199  23.695  0.00  0.00    -0.264 OA
BRANCH  16  18
ATOM     18  C   UNL d   1     -46.912  11.162  23.607  0.00  0.00     0.102 C 
BRANCH  18  19
ATOM     19  C   UNL d   1     -46.105  11.139  23.481  0.00  0.00     0.021 A 
ATOM     20  C   UNL d   1     -45.685  10.459  23.675  0.00  0.00     0.028 A 
ATOM     21  C   UNL d   1     -44.865  10.438  23.547  0.00  0.00     0.119 A 
ATOM     22  O   UNL d   1     -44.309   9.869  23.675  0.00  0.00    -0.300 OA
ATOM     23  C   UNL d   1     -44.492  11.090  23.231  0.00  0.00     0.119 A 
ATOM     24  C   UNL d   1     -43.585  10.159  23.441  0.00  0.00     0.304 A 
ATOM     25  O   UNL d   1     -43.692  10.918  23.164  0.00  0.00    -0.300 OA
ATOM     26  C   UNL d   1     -44.927  11.766  23.041  0.00  0.00     0.026 A 
ATOM     27  C   UNL d   1     -45.735  11.780  23.170  0.00  0.00     0.004 A 
ENDBRANCH  18  19
ENDBRANCH  16  18
ENDBRANCH   1  15
TORSDOF 4
ENDMDL
MODEL 3
REMARK VINA RESULT:      -7.1      8.483      9.950
REMARK  4 active torsions:
REMARK  status: ('A' for Active; 'I' for Inactive)
REMARK    1  A    between atoms: C_7  and  N_1 
REMARK    2  A    between atoms: C_9  and  C_7 
REMARK       I    between atoms: N_16  and  C_9 
REMARK    3  A    between atoms: C_21  and  N_16 
REMARK    4  A    between atoms: C_20  and  C_21 
ROOT
ATOM      1  C   UNL d   1     -40.310  14.060  18.048  0.00  0.00     0.146 C 
ENDROOT
BRANCH   1   2
ATOM      2  N   UNL d   1     -39.796  14.404  17.512  0.00  0.00    -0.269 N 
ATOM      3  C   UNL d   1     -39.988  15.147  17.223  0.00  0.00     0.265 A 
ATOM      4  C   UNL d   1     -39.522  15.603  16.656  0.00  0.00     0.068 A 
ATOM      5  O   UNL d   1     -40.699  15.488  17.504  0.00  0.00    -0.267 OA
ATOM      6  C   UNL d   1     -38.785  15.385  16.288  0.00  0.00     0.034 A 
ATOM      7  C   UNL d   1     -38.461  15.922  15.771  0.00  0.00     0.007 C 
ATOM      8  S   UNL d   1     -38.367  14.689  16.401  0.00  0.00    -0.085 SA
ATOM      9  C   UNL d   1     -38.558  14.164  16.823  0.00  0.00     0.046 A 
ATOM     10  C   UNL d   1     -39.207  14.016  17.339  0.00  0.00     0.073 A 
ATOM     11  C   UNL d   1     -37.955  13.585  16.747  0.00  0.00     0.008 A 
ATOM     12  C   UNL d   1     -39.253  13.305  17.769  0.00  0.00     0.018 A 
ATOM     13  C   UNL d   1     -38.653  12.734  17.690  0.00  0.00     0.002 A 
ATOM     14  C   UNL d   1     -38.001  12.875  17.177  0.00  0.00     0.001 A 
ENDBRANCH   1   2
BRANCH   1  15
ATOM     15  C   UNL d   1     -40.552  14.490  18.706  0.00  0.00     0.297 C 
ATOM     16  N   UNL d   1     -40.186  14.399  19.428  0.00  0.00    -0.205 NA
ATOM     17  O   UNL d   1     -41.172  15.020  18.631  0.00  0.00    -0.264 OA
BRANCH  16  18
ATOM     18  C   UNL d   1     -40.428  14.825  20.073  0.00  0.00     0.102 C 
BRANCH  18  19
ATOM     19  C   UNL d   1     -39.999  14.800  20.768  0.00  0.00     0.021 A 
ATOM     20  C   UNL d   1     -39.922  14.086  21.169  0.00  0.00     0.028 A 
ATOM     21  C   UNL d   1     -39.486  14.062  21.875  0.00  0.00     0.119 A 
ATOM     22  O   UNL d   1     -39.312  13.464  22.386  0.00  0.00    -0.300 OA
ATOM     23  C   UNL d   1     -39.143  14.745  22.158  0.00  0.00     0.119 A 
ATOM     24  C   UNL d   1     -38.859  13.767  22.992  0.00  0.00     0.304 A 
ATOM     25  O   UNL d   1     -38.750  14.562  22.856  0.00  0.00    -0.300 OA
ATOM     26  C   UNL d   1     -39.228  15.455  21.744  0.00  0.00     0.026 A 
ATOM     27  C   UNL d   1     -39.659  15.471  21.049  0.00  0.00     0.004 A 
ENDBRANCH  18  19
ENDBRANCH  16  18
ENDBRANCH   1  15
TORSDOF 4
ENDMDL
MODEL 4
REMARK VINA RESULT:      -6.4      9.001     10.199
REMARK  4 active torsions:
REMARK  status: ('A' for Active; 'I' for Inactive)
REMARK    1  A    between atoms: C_7  and  N_1 
REMARK    2  A    between atoms: C_9  and  C_7 
REMARK       I    between atoms: N_16  and  C_9 
REMARK    3  A    between atoms: C_21  and  N_16 
REMARK    4  A    between atoms: C_20  and  C_21 
ROOT
ATOM      1  C   UNL d   1     -39.317  13.753  18.235  0.00  0.00     0.146 C 
ENDROOT
BRANCH   1   2
ATOM      2  N   UNL d   1     -39.145  14.281  17.633  0.00  0.00    -0.269 N 
ATOM      3  C   UNL d   1     -38.432  14.192  17.240  0.00  0.00     0.265 A 
ATOM      4  C   UNL d   1     -38.148  14.688  16.592  0.00  0.00     0.068 A 
ATOM      5  O   UNL d   1     -37.940  13.562  17.491  0.00  0.00    -0.267 OA
ATOM      6  C   UNL d   1     -38.537  15.356  16.235  0.00  0.00     0.034 A 
ATOM      7  C   UNL d   1     -38.143  15.728  15.629  0.00  0.00     0.007 C 
ATOM      8  S   UNL d   1     -39.269  15.665  16.439  0.00  0.00    -0.085 SA
ATOM      9  C   UNL d   1     -39.687  15.420  16.944  0.00  0.00     0.046 A 
ATOM     10  C   UNL d   1     -39.647  14.789  17.500  0.00  0.00     0.073 A 
ATOM     11  C   UNL d   1     -40.362  15.918  16.936  0.00  0.00     0.008 A 
ATOM     12  C   UNL d   1     -40.270  14.658  18.037  0.00  0.00     0.018 A 
ATOM     13  C   UNL d   1     -40.938  15.154  18.026  0.00  0.00     0.002 A 
ATOM     14  C   UNL d   1     -40.984  15.787  17.473  0.00  0.00     0.001 A 
ENDBRANCH   1   2
BRANCH   1  15
ATOM     15  C   UNL d   1     -38.770  13.642  18.840  0.00  0.00     0.297 C 
ATOM     16  N   UNL d   1     -38.884  13.969  19.577  0.00  0.00    -0.205 NA
ATOM     17  O   UNL d   1     -38.100  13.195  18.695  0.00  0.00    -0.264 OA
BRANCH  16  18
ATOM     18  C   UNL d   1     -38.343  13.856  20.169  0.00  0.00     0.102 C 
BRANCH  18  19
ATOM     19  C   UNL d   1     -38.497  14.124  20.925  0.00  0.00     0.021 A 
ATOM     20  C   UNL d   1     -38.396  14.922  21.100  0.00  0.00     0.028 A 
ATOM     21  C   UNL d   1     -38.553  15.192  21.869  0.00  0.00     0.119 A 
ATOM     22  O   UNL d   1     -38.509  15.922  22.208  0.00  0.00    -0.300 OA
ATOM     23  C   UNL d   1     -38.805  14.664  22.436  0.00  0.00     0.119 A 
ATOM     24  C   UNL d   1     -38.732  15.857  22.989  0.00  0.00     0.304 A 
ATOM     25  O   UNL d   1     -38.917  15.078  23.136  0.00  0.00    -0.300 OA
ATOM     26  C   UNL d   1     -38.903  13.866  22.246  0.00  0.00     0.026 A 
ATOM     27  C   UNL d   1     -38.746  13.606  21.486  0.00  0.00     0.004 A 
ENDBRANCH  18  19
ENDBRANCH  16  18
ENDBRANCH   1  15
TORSDOF 4
ENDMDL
