MODEL 1
REMARK VINA RESULT:       3.4      0.000      0.000
REMARK  0 active torsions:
REMARK  status: ('A' for Active; 'I' for Inactive)
ROOT
ATOM      1  C   UNL d   1     -51.867  24.891  33.311  0.00  0.00     0.020 A 
ATOM      2  N   UNL d   1     -51.188  26.153  33.310  0.00  0.00    -0.242 NA
ATOM      3  C   UNL d   1     -51.140  24.507  33.309  0.00  0.00     0.003 A 
ATOM      4  C   UNL d   1     -52.571  24.464  33.314  0.00  0.00     0.013 A 
ATOM      5  C   UNL d   1     -51.121  23.679  33.308  0.00  0.00     0.001 A 
ATOM      6  C   UNL d   1     -52.547  23.644  33.313  0.00  0.00     0.058 A 
ATOM      7  C   UNL d   1     -51.820  23.250  33.311  0.00  0.00     0.011 A 
ATOM      8  C   UNL d   1     -51.890  25.720  33.312  0.00  0.00     0.099 A 
ATOM      9 CL   UNL d   1     -53.247  23.214  33.315  0.00  0.00    -0.082 Cl
ATOM     10  C   UNL d   1     -50.461  25.760  33.307  0.00  0.00     0.099 A 
ATOM     11  C   UNL d   1     -50.433  24.931  33.307  0.00  0.00     0.021 A 
ENDROOT
TORSDOF 0
ENDMDL
MODEL 2
REMARK VINA RESULT:       3.7      1.599      2.319
REMARK  0 active torsions:
REMARK  status: ('A' for Active; 'I' for Inactive)
ROOT
ATOM      1  C   UNL d   1     -52.256  24.825  33.306  0.00  0.00     0.020 A 
ATOM      2  N   UNL d   1     -53.264  23.807  33.306  0.00  0.00    -0.242 NA
ATOM      3  C   UNL d   1     -51.675  24.242  33.306  0.00  0.00     0.003 A 
ATOM      4  C   UNL d   1     -52.053  25.623  33.306  0.00  0.00     0.013 A 
ATOM      5  C   UNL d   1     -50.877  24.467  33.306  0.00  0.00     0.001 A 
ATOM      6  C   UNL d   1     -51.262  25.841  33.306  0.00  0.00     0.058 A 
ATOM      7  C   UNL d   1     -50.672  25.261  33.306  0.00  0.00     0.011 A 
ATOM      8  C   UNL d   1     -53.055  24.605  33.306  0.00  0.00     0.099 A 
ATOM      9 CL   UNL d   1     -51.056  26.636  33.306  0.00  0.00    -0.082 Cl
ATOM     10  C   UNL d   1     -52.674  23.227  33.306  0.00  0.00     0.099 A 
ATOM     11  C   UNL d   1     -51.874  23.443  33.306  0.00  0.00     0.021 A 
ENDROOT
TORSDOF 0
ENDMDL
