MODEL 1
REMARK VINA RESULT:      58.6      0.000      0.000
REMARK  5 active torsions:
REMARK  status: ('A' for Active; 'I' for Inactive)
REMARK    1  A    between atoms: C_6  and  C_1 
REMARK    2  A    between atoms: C_3  and  C_5 
REMARK    3  A    between atoms: C_5  and  C_6 
REMARK    4  A    between atoms: C_17  and  C_13 
REMARK    5  A    between atoms: C_20  and  C_17 
ROOT
ATOM      1  C   UNL d   1     -48.579  28.996  34.787  0.00  0.00     0.201 C 
ATOM      2  O   UNL d   1     -48.616  28.384  35.344  0.00  0.00    -0.286 OA
ENDROOT
BRANCH   1   3
ATOM      3  C   UNL d   1     -48.184  29.692  34.987  0.00  0.00     0.078 A 
ATOM      4  C   UNL d   1     -47.569  29.672  35.549  0.00  0.00     0.202 A 
ATOM      5  C   UNL d   1     -47.174  30.368  35.748  0.00  0.00     0.084 A 
ATOM      6  O   UNL d   1     -47.359  28.957  35.901  0.00  0.00    -0.286 OA
ATOM      7  C   UNL d   1     -47.385  31.075  35.397  0.00  0.00     0.199 A 
ATOM      8  C   UNL d   1     -48.000  31.095  34.835  0.00  0.00     0.039 A 
ATOM      9  O   UNL d   1     -46.979  31.771  35.606  0.00  0.00    -0.286 OA
ATOM     10  C   UNL d   1     -48.382  30.412  34.644  0.00  0.00     0.010 A 
BRANCH   8  11
ATOM     11  C   UNL d   1     -48.198  31.820  34.491  0.00  0.00     0.003 C 
BRANCH  11  12
ATOM     12  C   UNL d   1     -47.689  32.205  33.969  0.00  0.00     0.000 C 
ATOM     13  C   UNL d   1     -47.956  32.799  33.468  0.00  0.00     0.000 C 
ENDBRANCH  11  12
ENDBRANCH   8  11
ENDBRANCH   1   3
BRANCH   1  14
ATOM     14  C   UNL d   1     -48.936  28.901  34.046  0.00  0.00     0.068 C 
BRANCH  14  15
ATOM     15  C   UNL d   1     -49.385  28.240  33.875  0.00  0.00     0.114 A 
ATOM     16  N   UNL d   1     -49.100  27.469  33.788  0.00  0.00    -0.238 NA
ATOM     17  C   UNL d   1     -49.746  26.984  33.619  0.00  0.00     0.088 A 
ATOM     18  C   UNL d   1     -49.798  26.179  33.479  0.00  0.00     0.020 A 
ATOM     19  C   UNL d   1     -50.424  27.446  33.602  0.00  0.00     0.049 A 
ATOM     20  C   UNL d   1     -50.527  25.822  33.321  0.00  0.00     0.002 A 
ATOM     21  C   UNL d   1     -51.210  26.299  33.306  0.00  0.00     0.001 A 
ATOM     22  C   UNL d   1     -51.159  27.104  33.445  0.00  0.00     0.008 A 
ATOM     23  S   UNL d   1     -50.214  28.238  33.761  0.00  0.00    -0.066 SA
ENDBRANCH  14  15
ENDBRANCH   1  14
TORSDOF 5
ENDMDL
