MODEL 1
REMARK VINA RESULT:      77.4      0.000      0.000
REMARK  5 active torsions:
REMARK  status: ('A' for Active; 'I' for Inactive)
REMARK    1  A    between atoms: S_14  and  C_7 
REMARK       I    between atoms: N_10  and  C_13 
REMARK    2  A    between atoms: C_26  and  C_11 
REMARK    3  A    between atoms: C_22  and  N_12 
REMARK    4  A    between atoms: C_13  and  C_17 
REMARK    5  A    between atoms: C_17  and  S_14 
ROOT
ATOM      1  N   UNL d   1      14.359  12.815  -2.001  0.00  0.00    -0.224 N 
ATOM      2  N   UNL d   1      14.935  13.284  -0.770  0.00  0.00    -0.241 N 
ATOM      3  C   UNL d   1      14.662  12.663  -1.238  0.00  0.00     0.343 A 
ATOM      4  C   UNL d   1      14.906  14.059  -1.064  0.00  0.00     0.160 A 
ATOM      5  C   UNL d   1      14.333  13.588  -2.289  0.00  0.00     0.273 A 
ATOM      6  C   UNL d   1      14.606  14.210  -1.820  0.00  0.00     0.115 A 
ATOM      7  C   UNL d   1      14.580  14.983  -2.108  0.00  0.00     0.120 A 
ATOM      8  N   UNL d   1      15.181  14.688  -0.595  0.00  0.00    -0.209 NA
ATOM      9  N   UNL d   1      14.852  15.606  -1.643  0.00  0.00    -0.220 NA
ATOM     10  C   UNL d   1      15.155  15.461  -0.882  0.00  0.00     0.165 A 
ATOM     11  O   UNL d   1      14.687  11.886  -0.952  0.00  0.00    -0.245 OA
ATOM     12  O   UNL d   1      14.033  13.736  -3.045  0.00  0.00    -0.266 OA
ATOM     13  C   UNL d   1      14.089  12.192  -2.462  0.00  0.00     0.107 C 
ATOM     14  C   UNL d   1      15.234  13.133  -0.014  0.00  0.00     0.105 C 
ENDROOT
BRANCH   7  15
ATOM     15  S   UNL d   1      14.280  15.130  -2.863  0.00  0.00    -0.062 SA
BRANCH  15  16
ATOM     16  C   UNL d   1      14.608  15.729  -3.330  0.00  0.00     0.098 C 
BRANCH  16  17
ATOM     17  C   UNL d   1      14.378  15.815  -4.117  0.00  0.00     0.272 C 
ATOM     18  N   UNL d   1      14.380  16.552  -4.480  0.00  0.00    -0.269 N 
ATOM     19  C   UNL d   1      14.618  17.219  -4.045  0.00  0.00     0.102 A 
ATOM     20  C   UNL d   1      14.151  16.633  -5.261  0.00  0.00     0.102 A 
ATOM     21  C   UNL d   1      14.618  17.954  -4.414  0.00  0.00     0.100 A 
ATOM     22  N   UNL d   1      14.389  18.038  -5.198  0.00  0.00    -0.301 N 
ATOM     23  C   UNL d   1      14.153  17.369  -5.624  0.00  0.00     0.100 A 
ATOM     24  O   UNL d   1      14.142  15.149  -4.546  0.00  0.00    -0.266 OA
BRANCH  22  25
ATOM     25  C   UNL d   1      14.391  18.774  -5.561  0.00  0.00     0.064 A 
ATOM     26  C   UNL d   1      13.757  19.018  -6.021  0.00  0.00     0.018 A 
ATOM     27  C   UNL d   1      13.755  19.760  -6.389  0.00  0.00     0.002 A 
ATOM     28  C   UNL d   1      14.402  20.265  -6.293  0.00  0.00     0.000 A 
ATOM     29  C   UNL d   1      15.049  20.017  -5.824  0.00  0.00     0.002 A 
ATOM     30  C   UNL d   1      15.034  19.284  -5.469  0.00  0.00     0.018 A 
ENDBRANCH  22  25
ENDBRANCH  16  17
ENDBRANCH  15  16
ENDBRANCH   7  15
BRANCH  10  31
ATOM     31  C   UNL d   1      15.427  16.089  -0.417  0.00  0.00     0.039 C 
ATOM     32  C   UNL d   1      15.882  16.690  -0.754  0.00  0.00     0.003 C 
ENDBRANCH  10  31
TORSDOF 5
ENDMDL
MODEL 2
REMARK VINA RESULT:      78.9      1.211      1.784
REMARK  5 active torsions:
REMARK  status: ('A' for Active; 'I' for Inactive)
REMARK    1  A    between atoms: S_14  and  C_7 
REMARK       I    between atoms: N_10  and  C_13 
REMARK    2  A    between atoms: C_26  and  C_11 
REMARK    3  A    between atoms: C_22  and  N_12 
REMARK    4  A    between atoms: C_13  and  C_17 
REMARK    5  A    between atoms: C_17  and  S_14 
ROOT
ATOM      1  N   UNL d   1      13.162  13.156  -4.199  0.00  0.00    -0.224 N 
ATOM      2  N   UNL d   1      13.583  12.511  -2.986  0.00  0.00    -0.241 N 
ATOM      3  C   UNL d   1      13.189  12.480  -3.710  0.00  0.00     0.343 A 
ATOM      4  C   UNL d   1      13.948  13.216  -2.750  0.00  0.00     0.160 A 
ATOM      5  C   UNL d   1      13.527  13.856  -3.959  0.00  0.00     0.273 A 
ATOM      6  C   UNL d   1      13.920  13.886  -3.234  0.00  0.00     0.115 A 
ATOM      7  C   UNL d   1      14.286  14.586  -2.994  0.00  0.00     0.120 A 
ATOM      8  N   UNL d   1      14.346  13.251  -2.020  0.00  0.00    -0.209 NA
ATOM      9  N   UNL d   1      14.679  14.619  -2.272  0.00  0.00    -0.220 NA
ATOM     10  C   UNL d   1      14.711  13.950  -1.780  0.00  0.00     0.165 A 
ATOM     11  O   UNL d   1      12.822  11.779  -3.953  0.00  0.00    -0.245 OA
ATOM     12  O   UNL d   1      13.497  14.523  -4.446  0.00  0.00    -0.266 OA
ATOM     13  C   UNL d   1      12.769  13.120  -4.919  0.00  0.00     0.107 C 
ATOM     14  C   UNL d   1      13.610  11.841  -2.501  0.00  0.00     0.105 C 
ENDROOT
BRANCH   7  15
ATOM     15  S   UNL d   1      14.256  15.253  -3.481  0.00  0.00    -0.062 SA
BRANCH  15  16
ATOM     16  C   UNL d   1      14.667  15.939  -3.269  0.00  0.00     0.098 C 
BRANCH  16  17
ATOM     17  C   UNL d   1      15.216  16.270  -3.787  0.00  0.00     0.272 C 
ATOM     18  N   UNL d   1      15.040  16.948  -4.214  0.00  0.00    -0.269 N 
ATOM     19  C   UNL d   1      14.295  17.305  -4.122  0.00  0.00     0.102 A 
ATOM     20  C   UNL d   1      15.587  17.274  -4.727  0.00  0.00     0.102 A 
ATOM     21  C   UNL d   1      14.123  17.984  -4.552  0.00  0.00     0.100 A 
ATOM     22  N   UNL d   1      14.671  18.312  -5.067  0.00  0.00    -0.301 N 
ATOM     23  C   UNL d   1      15.411  17.952  -5.154  0.00  0.00     0.100 A 
ATOM     24  O   UNL d   1      15.957  15.913  -3.876  0.00  0.00    -0.266 OA
BRANCH  22  25
ATOM     25  C   UNL d   1      14.495  18.990  -5.495  0.00  0.00     0.064 A 
ATOM     26  C   UNL d   1      13.732  19.132  -5.763  0.00  0.00     0.018 A 
ATOM     27  C   UNL d   1      13.550  19.815  -6.195  0.00  0.00     0.002 A 
ATOM     28  C   UNL d   1      14.144  20.365  -6.359  0.00  0.00     0.000 A 
ATOM     29  C   UNL d   1      14.922  20.221  -6.086  0.00  0.00     0.002 A 
ATOM     30  C   UNL d   1      15.084  19.544  -5.662  0.00  0.00     0.018 A 
ENDBRANCH  22  25
ENDBRANCH  16  17
ENDBRANCH  15  16
ENDBRANCH   7  15
BRANCH  10  31
ATOM     31  C   UNL d   1      15.107  13.986  -1.054  0.00  0.00     0.039 C 
ATOM     32  C   UNL d   1      14.750  14.345  -0.403  0.00  0.00     0.003 C 
ENDBRANCH  10  31
TORSDOF 5
ENDMDL
MODEL 3
REMARK VINA RESULT:      79.5      1.049      1.430
REMARK  5 active torsions:
REMARK  status: ('A' for Active; 'I' for Inactive)
REMARK    1  A    between atoms: S_14  and  C_7 
REMARK       I    between atoms: N_10  and  C_13 
REMARK    2  A    between atoms: C_26  and  C_11 
REMARK    3  A    between atoms: C_22  and  N_12 
REMARK    4  A    between atoms: C_13  and  C_17 
REMARK    5  A    between atoms: C_17  and  S_14 
ROOT
ATOM      1  N   UNL d   1      13.509  12.775  -3.435  0.00  0.00    -0.224 N 
ATOM      2  N   UNL d   1      14.232  13.122  -2.242  0.00  0.00    -0.241 N 
ATOM      3  C   UNL d   1      13.834  12.561  -2.696  0.00  0.00     0.343 A 
ATOM      4  C   UNL d   1      14.307  13.897  -2.526  0.00  0.00     0.160 A 
ATOM      5  C   UNL d   1      13.587  13.548  -3.713  0.00  0.00     0.273 A 
ATOM      6  C   UNL d   1      13.986  14.109  -3.257  0.00  0.00     0.115 A 
ATOM      7  C   UNL d   1      14.064  14.883  -3.535  0.00  0.00     0.120 A 
ATOM      8  N   UNL d   1      14.709  14.465  -2.070  0.00  0.00    -0.209 NA
ATOM      9  N   UNL d   1      14.461  15.445  -3.084  0.00  0.00    -0.220 NA
ATOM     10  C   UNL d   1      14.787  15.239  -2.347  0.00  0.00     0.165 A 
ATOM     11  O   UNL d   1      13.754  11.784  -2.420  0.00  0.00    -0.245 OA
ATOM     12  O   UNL d   1      13.265  13.757  -4.444  0.00  0.00    -0.266 OA
ATOM     13  C   UNL d   1      13.114  12.212  -3.883  0.00  0.00     0.107 C 
ATOM     14  C   UNL d   1      14.554  12.909  -1.510  0.00  0.00     0.105 C 
ENDROOT
BRANCH   7  15
ATOM     15  S   UNL d   1      13.742  15.091  -4.267  0.00  0.00    -0.062 SA
BRANCH  15  16
ATOM     16  C   UNL d   1      14.203  15.494  -4.823  0.00  0.00     0.098 C 
BRANCH  16  17
ATOM     17  C   UNL d   1      13.845  15.871  -5.463  0.00  0.00     0.272 C 
ATOM     18  N   UNL d   1      13.948  16.675  -5.591  0.00  0.00    -0.269 N 
ATOM     19  C   UNL d   1      14.420  17.114  -5.066  0.00  0.00     0.102 A 
ATOM     20  C   UNL d   1      13.592  17.046  -6.227  0.00  0.00     0.102 A 
ATOM     21  C   UNL d   1      14.520  17.919  -5.199  0.00  0.00     0.100 A 
ATOM     22  N   UNL d   1      14.163  18.293  -5.837  0.00  0.00    -0.301 N 
ATOM     23  C   UNL d   1      13.695  17.850  -6.355  0.00  0.00     0.100 A 
ATOM     24  O   UNL d   1      13.376  15.432  -5.983  0.00  0.00    -0.266 OA
BRANCH  22  25
ATOM     25  C   UNL d   1      14.266  19.097  -5.966  0.00  0.00     0.064 A 
ATOM     26  C   UNL d   1      14.993  19.455  -5.838  0.00  0.00     0.018 A 
ATOM     27  C   UNL d   1      15.101  20.265  -5.966  0.00  0.00     0.002 A 
ATOM     28  C   UNL d   1      14.466  20.725  -6.228  0.00  0.00     0.000 A 
ATOM     29  C   UNL d   1      13.724  20.362  -6.359  0.00  0.00     0.002 A 
ATOM     30  C   UNL d   1      13.635  19.563  -6.227  0.00  0.00     0.018 A 
ENDBRANCH  22  25
ENDBRANCH  16  17
ENDBRANCH  15  16
ENDBRANCH   7  15
BRANCH  10  31
ATOM     31  C   UNL d   1      15.186  15.805  -1.895  0.00  0.00     0.039 C 
ATOM     32  C   UNL d   1      14.776  16.260  -1.342  0.00  0.00     0.003 C 
ENDBRANCH  10  31
TORSDOF 5
ENDMDL
