MODEL 1
REMARK VINA RESULT:      -7.9      0.000      0.000
REMARK  6 active torsions:
REMARK  status: ('A' for Active; 'I' for Inactive)
REMARK       I    between atoms: C_2  and  N_1 
REMARK    1  A    between atoms: C_5  and  N_1 
REMARK    2  A    between atoms: C_4  and  C_2 
REMARK    3  A    between atoms: C_3  and  C_6 
REMARK    4  A    between atoms: C_6  and  C_4 
REMARK    5  A    between atoms: O_11  and  C_7 
REMARK    6  A    between atoms: C_14  and  O_11 
ROOT
ATOM      1  C   UNL d   1      52.524  33.285  53.515  0.00  0.00     0.107 A 
ATOM      2  C   UNL d   1      53.079  33.749  53.921  0.00  0.00     0.118 A 
ATOM      3  C   UNL d   1      52.054  33.606  52.954  0.00  0.00     0.021 A 
ATOM      4  C   UNL d   1      53.143  34.552  53.742  0.00  0.00     0.026 A 
ATOM      5  C   UNL d   1      52.105  34.412  52.761  0.00  0.00     0.002 A 
ATOM      6  C   UNL d   1      52.638  34.883  53.145  0.00  0.00     0.002 A 
ENDROOT
BRANCH   1   7
ATOM      7  N   UNL d   1      52.458  32.476  53.694  0.00  0.00    -0.206 NA
ATOM      8  C   UNL d   1      52.475  31.911  53.097  0.00  0.00     0.280 C 
ATOM      9  O   UNL d   1      52.555  32.137  52.329  0.00  0.00    -0.265 OA
BRANCH   8  10
ATOM     10  C   UNL d   1      52.407  31.091  53.282  0.00  0.00     0.068 C 
BRANCH  10  11
ATOM     11  C   UNL d   1      52.986  30.564  53.033  0.00  0.00     0.069 C 
BRANCH  11  12
ATOM     12  C   UNL d   1      53.012  29.819  53.358  0.00  0.00     0.297 C 
ATOM     13  O   UNL d   1      52.444  29.262  53.139  0.00  0.00    -0.264 OA
ATOM     14  N   UNL d   1      53.589  29.603  53.901  0.00  0.00    -0.102 N 
ENDBRANCH  11  12
ENDBRANCH  10  11
ENDBRANCH   8  10
ENDBRANCH   1   7
BRANCH   2  15
ATOM     15  O   UNL d   1      53.572  33.419  54.508  0.00  0.00    -0.304 OA
BRANCH  15  16
ATOM     16  C   UNL d   1      54.146  33.891  54.889  0.00  0.00     0.123 C 
ATOM     17  C   UNL d   1      54.727  33.508  55.344  0.00  0.00     0.029 C 
ENDBRANCH  15  16
ENDBRANCH   2  15
TORSDOF 6
ENDMDL
MODEL 2
REMARK VINA RESULT:      -7.6      1.694      3.486
REMARK  6 active torsions:
REMARK  status: ('A' for Active; 'I' for Inactive)
REMARK       I    between atoms: C_2  and  N_1 
REMARK    1  A    between atoms: C_5  and  N_1 
REMARK    2  A    between atoms: C_4  and  C_2 
REMARK    3  A    between atoms: C_3  and  C_6 
REMARK    4  A    between atoms: C_6  and  C_4 
REMARK    5  A    between atoms: O_11  and  C_7 
REMARK    6  A    between atoms: C_14  and  O_11 
ROOT
ATOM      1  C   UNL d   1      53.111  33.232  54.144  0.00  0.00     0.107 A 
ATOM      2  C   UNL d   1      53.578  32.557  54.025  0.00  0.00     0.118 A 
ATOM      3  C   UNL d   1      53.410  33.876  54.513  0.00  0.00     0.021 A 
ATOM      4  C   UNL d   1      54.360  32.552  54.290  0.00  0.00     0.026 A 
ATOM      5  C   UNL d   1      54.193  33.888  54.787  0.00  0.00     0.002 A 
ATOM      6  C   UNL d   1      54.666  33.241  54.681  0.00  0.00     0.002 A 
ENDROOT
BRANCH   1   7
ATOM      7  N   UNL d   1      52.325  33.239  53.877  0.00  0.00    -0.206 NA
ATOM      8  C   UNL d   1      52.011  33.905  53.510  0.00  0.00     0.280 C 
ATOM      9  O   UNL d   1      52.466  34.560  53.406  0.00  0.00    -0.265 OA
BRANCH   8  10
ATOM     10  C   UNL d   1      51.213  33.908  53.240  0.00  0.00     0.068 C 
BRANCH  10  11
ATOM     11  C   UNL d   1      50.976  34.440  52.660  0.00  0.00     0.069 C 
BRANCH  11  12
ATOM     12  C   UNL d   1      50.193  34.471  52.446  0.00  0.00     0.297 C 
ATOM     13  O   UNL d   1      49.639  34.771  52.978  0.00  0.00    -0.264 OA
ATOM     14  N   UNL d   1      49.935  34.211  51.710  0.00  0.00    -0.102 N 
ENDBRANCH  11  12
ENDBRANCH  10  11
ENDBRANCH   8  10
ENDBRANCH   1   7
BRANCH   2  15
ATOM     15  O   UNL d   1      53.272  31.882  53.640  0.00  0.00    -0.304 OA
BRANCH  15  16
ATOM     16  C   UNL d   1      53.677  31.153  53.684  0.00  0.00     0.123 C 
ATOM     17  C   UNL d   1      53.326  30.491  53.323  0.00  0.00     0.029 C 
ENDBRANCH  15  16
ENDBRANCH   2  15
TORSDOF 6
ENDMDL
MODEL 3
REMARK VINA RESULT:      -7.4      1.692      3.389
REMARK  6 active torsions:
REMARK  status: ('A' for Active; 'I' for Inactive)
REMARK       I    between atoms: C_2  and  N_1 
REMARK    1  A    between atoms: C_5  and  N_1 
REMARK    2  A    between atoms: C_4  and  C_2 
REMARK    3  A    between atoms: C_3  and  C_6 
REMARK    4  A    between atoms: C_6  and  C_4 
REMARK    5  A    between atoms: O_11  and  C_7 
REMARK    6  A    between atoms: C_14  and  O_11 
ROOT
ATOM      1  C   UNL d   1      52.889  32.286  53.243  0.00  0.00     0.107 A 
ATOM      2  C   UNL d   1      53.532  32.274  53.768  0.00  0.00     0.118 A 
ATOM      3  C   UNL d   1      52.634  31.613  52.894  0.00  0.00     0.021 A 
ATOM      4  C   UNL d   1      53.911  31.559  53.929  0.00  0.00     0.026 A 
ATOM      5  C   UNL d   1      53.004  30.885  53.044  0.00  0.00     0.002 A 
ATOM      6  C   UNL d   1      53.632  30.852  53.552  0.00  0.00     0.002 A 
ENDROOT
BRANCH   1   7
ATOM      7  N   UNL d   1      52.507  33.005  53.080  0.00  0.00    -0.206 NA
ATOM      8  C   UNL d   1      51.685  33.052  53.072  0.00  0.00     0.280 C 
ATOM      9  O   UNL d   1      51.243  32.398  53.223  0.00  0.00    -0.265 OA
BRANCH   8  10
ATOM     10  C   UNL d   1      51.301  33.783  52.907  0.00  0.00     0.068 C 
BRANCH  10  11
ATOM     11  C   UNL d   1      50.484  33.842  52.971  0.00  0.00     0.069 C 
BRANCH  11  12
ATOM     12  C   UNL d   1      50.116  34.528  52.738  0.00  0.00     0.297 C 
ATOM     13  O   UNL d   1      50.098  35.174  53.251  0.00  0.00    -0.264 OA
ATOM     14  N   UNL d   1      49.758  34.599  52.001  0.00  0.00    -0.102 N 
ENDBRANCH  11  12
ENDBRANCH  10  11
ENDBRANCH   8  10
ENDBRANCH   1   7
BRANCH   2  15
ATOM     15  O   UNL d   1      53.802  32.973  54.135  0.00  0.00    -0.304 OA
BRANCH  15  16
ATOM     16  C   UNL d   1      54.454  32.949  54.657  0.00  0.00     0.123 C 
ATOM     17  C   UNL d   1      54.705  33.663  55.000  0.00  0.00     0.029 C 
ENDBRANCH  15  16
ENDBRANCH   2  15
TORSDOF 6
ENDMDL
MODEL 4
REMARK VINA RESULT:      -6.7      1.710      3.953
REMARK  6 active torsions:
REMARK  status: ('A' for Active; 'I' for Inactive)
REMARK       I    between atoms: C_2  and  N_1 
REMARK    1  A    between atoms: C_5  and  N_1 
REMARK    2  A    between atoms: C_4  and  C_2 
REMARK    3  A    between atoms: C_3  and  C_6 
REMARK    4  A    between atoms: C_6  and  C_4 
REMARK    5  A    between atoms: O_11  and  C_7 
REMARK    6  A    between atoms: C_14  and  O_11 
ROOT
ATOM      1  C   UNL d   1      53.305  30.855  53.688  0.00  0.00     0.107 A 
ATOM      2  C   UNL d   1      53.213  30.048  53.857  0.00  0.00     0.118 A 
ATOM      3  C   UNL d   1      53.119  31.145  52.966  0.00  0.00     0.021 A 
ATOM      4  C   UNL d   1      52.927  29.541  53.273  0.00  0.00     0.026 A 
ATOM      5  C   UNL d   1      52.830  30.650  52.366  0.00  0.00     0.002 A 
ATOM      6  C   UNL d   1      52.733  29.860  52.510  0.00  0.00     0.002 A 
ENDROOT
BRANCH   1   7
ATOM      7  N   UNL d   1      53.593  31.367  54.275  0.00  0.00    -0.206 NA
ATOM      8  C   UNL d   1      53.806  32.140  54.092  0.00  0.00     0.280 C 
ATOM      9  O   UNL d   1      53.737  32.409  53.337  0.00  0.00    -0.265 OA
BRANCH   8  10
ATOM     10  C   UNL d   1      54.099  32.656  54.690  0.00  0.00     0.068 C 
BRANCH  10  11
ATOM     11  C   UNL d   1      54.472  33.358  54.483  0.00  0.00     0.069 C 
BRANCH  11  12
ATOM     12  C   UNL d   1      54.697  33.876  55.067  0.00  0.00     0.297 C 
ATOM     13  O   UNL d   1      54.156  34.433  55.345  0.00  0.00    -0.264 OA
ATOM     14  N   UNL d   1      55.453  33.862  55.391  0.00  0.00    -0.102 N 
ENDBRANCH  11  12
ENDBRANCH  10  11
ENDBRANCH   8  10
ENDBRANCH   1   7
BRANCH   2  15
ATOM     15  O   UNL d   1      53.405  29.740  54.609  0.00  0.00    -0.304 OA
BRANCH  15  16
ATOM     16  C   UNL d   1      53.344  28.920  54.755  0.00  0.00     0.123 C 
ATOM     17  C   UNL d   1      53.428  28.657  55.540  0.00  0.00     0.029 C 
ENDBRANCH  15  16
ENDBRANCH   2  15
TORSDOF 6
ENDMDL
MODEL 5
REMARK VINA RESULT:      -6.2      1.572      3.810
REMARK  6 active torsions:
REMARK  status: ('A' for Active; 'I' for Inactive)
REMARK       I    between atoms: C_2  and  N_1 
REMARK    1  A    between atoms: C_5  and  N_1 
REMARK    2  A    between atoms: C_4  and  C_2 
REMARK    3  A    between atoms: C_3  and  C_6 
REMARK    4  A    between atoms: C_6  and  C_4 
REMARK    5  A    between atoms: O_11  and  C_7 
REMARK    6  A    between atoms: C_14  and  O_11 
ROOT
ATOM      1  C   UNL d   1      53.372  31.614  53.365  0.00  0.00     0.107 A 
ATOM      2  C   UNL d   1      52.611  31.730  53.055  0.00  0.00     0.118 A 
ATOM      3  C   UNL d   1      53.656  30.877  53.489  0.00  0.00     0.021 A 
ATOM      4  C   UNL d   1      52.144  31.074  52.873  0.00  0.00     0.026 A 
ATOM      5  C   UNL d   1      53.200  30.207  53.311  0.00  0.00     0.002 A 
ATOM      6  C   UNL d   1      52.456  30.296  53.009  0.00  0.00     0.002 A 
ENDROOT
BRANCH   1   7
ATOM      7  N   UNL d   1      53.843  32.273  53.549  0.00  0.00    -0.206 NA
ATOM      8  C   UNL d   1      54.172  32.359  54.298  0.00  0.00     0.280 C 
ATOM      9  O   UNL d   1      54.040  31.801  54.862  0.00  0.00    -0.265 OA
BRANCH   8  10
ATOM     10  C   UNL d   1      54.650  33.028  54.481  0.00  0.00     0.068 C 
BRANCH  10  11
ATOM     11  C   UNL d   1      54.571  33.404  55.207  0.00  0.00     0.069 C 
BRANCH  11  12
ATOM     12  C   UNL d   1      54.823  34.173  55.286  0.00  0.00     0.297 C 
ATOM     13  O   UNL d   1      55.624  34.325  55.415  0.00  0.00    -0.264 OA
ATOM     14  N   UNL d   1      54.302  34.807  55.242  0.00  0.00    -0.102 N 
ENDBRANCH  11  12
ENDBRANCH  10  11
ENDBRANCH   8  10
ENDBRANCH   1   7
BRANCH   2  15
ATOM     15  O   UNL d   1      52.310  32.497  52.924  0.00  0.00    -0.304 OA
BRANCH  15  16
ATOM     16  C   UNL d   1      51.489  32.615  52.824  0.00  0.00     0.123 C 
ATOM     17  C   UNL d   1      51.208  33.397  52.798  0.00  0.00     0.029 C 
ENDBRANCH  15  16
ENDBRANCH   2  15
TORSDOF 6
ENDMDL
MODEL 6
REMARK VINA RESULT:      -6.1      1.445      3.342
REMARK  6 active torsions:
REMARK  status: ('A' for Active; 'I' for Inactive)
REMARK       I    between atoms: C_2  and  N_1 
REMARK    1  A    between atoms: C_5  and  N_1 
REMARK    2  A    between atoms: C_4  and  C_2 
REMARK    3  A    between atoms: C_3  and  C_6 
REMARK    4  A    between atoms: C_6  and  C_4 
REMARK    5  A    between atoms: O_11  and  C_7 
REMARK    6  A    between atoms: C_14  and  O_11 
ROOT
ATOM      1  C   UNL d   1      52.345  33.660  53.263  0.00  0.00     0.107 A 
ATOM      2  C   UNL d   1      52.057  32.915  53.038  0.00  0.00     0.118 A 
ATOM      3  C   UNL d   1      51.871  34.303  53.252  0.00  0.00     0.021 A 
ATOM      4  C   UNL d   1      51.270  32.840  52.800  0.00  0.00     0.026 A 
ATOM      5  C   UNL d   1      51.078  34.246  53.015  0.00  0.00     0.002 A 
ATOM      6  C   UNL d   1      50.776  33.531  52.791  0.00  0.00     0.002 A 
ENDROOT
BRANCH   1   7
ATOM      7  N   UNL d   1      53.137  33.736  53.504  0.00  0.00    -0.206 NA
ATOM      8  C   UNL d   1      53.330  34.151  54.187  0.00  0.00     0.280 C 
ATOM      9  O   UNL d   1      52.751  34.489  54.631  0.00  0.00    -0.265 OA
BRANCH   8  10
ATOM     10  C   UNL d   1      54.135  34.227  54.428  0.00  0.00     0.068 C 
BRANCH  10  11
ATOM     11  C   UNL d   1      54.428  33.759  55.036  0.00  0.00     0.069 C 
BRANCH  11  12
ATOM     12  C   UNL d   1      55.203  33.845  55.265  0.00  0.00     0.297 C 
ATOM     13  O   UNL d   1      55.377  34.000  56.057  0.00  0.00    -0.264 OA
ATOM     14  N   UNL d   1      55.823  33.781  54.729  0.00  0.00    -0.102 N 
ENDBRANCH  11  12
ENDBRANCH  10  11
ENDBRANCH   8  10
ENDBRANCH   1   7
BRANCH   2  15
ATOM     15  O   UNL d   1      52.548  32.240  53.049  0.00  0.00    -0.304 OA
BRANCH  15  16
ATOM     16  C   UNL d   1      52.229  31.486  52.883  0.00  0.00     0.123 C 
ATOM     17  C   UNL d   1      52.736  30.829  52.934  0.00  0.00     0.029 C 
ENDBRANCH  15  16
ENDBRANCH   2  15
TORSDOF 6
ENDMDL
MODEL 7
REMARK VINA RESULT:      -5.0      9.778     10.690
REMARK  6 active torsions:
REMARK  status: ('A' for Active; 'I' for Inactive)
REMARK       I    between atoms: C_2  and  N_1 
REMARK    1  A    between atoms: C_5  and  N_1 
REMARK    2  A    between atoms: C_4  and  C_2 
REMARK    3  A    between atoms: C_3  and  C_6 
REMARK    4  A    between atoms: C_6  and  C_4 
REMARK    5  A    between atoms: O_11  and  C_7 
REMARK    6  A    between atoms: C_14  and  O_11 
ROOT
ATOM      1  C   UNL d   1      44.659  29.364  58.072  0.00  0.00     0.107 A 
ATOM      2  C   UNL d   1      44.932  28.625  57.813  0.00  0.00     0.118 A 
ATOM      3  C   UNL d   1      44.578  29.973  57.560  0.00  0.00     0.021 A 
ATOM      4  C   UNL d   1      45.123  28.519  57.017  0.00  0.00     0.026 A 
ATOM      5  C   UNL d   1      44.765  29.885  56.756  0.00  0.00     0.002 A 
ATOM      6  C   UNL d   1      45.033  29.173  56.483  0.00  0.00     0.002 A 
ENDROOT
BRANCH   1   7
ATOM      7  N   UNL d   1      44.467  29.472  58.873  0.00  0.00    -0.206 NA
ATOM      8  C   UNL d   1      44.689  30.157  59.270  0.00  0.00     0.280 C 
ATOM      9  O   UNL d   1      45.097  30.733  58.884  0.00  0.00    -0.265 OA
BRANCH   8  10
ATOM     10  C   UNL d   1      44.492  30.263  60.083  0.00  0.00     0.068 C 
BRANCH  10  11
ATOM     11  C   UNL d   1      45.006  30.665  60.582  0.00  0.00     0.069 C 
BRANCH  11  12
ATOM     12  C   UNL d   1      44.793  30.788  61.357  0.00  0.00     0.297 C 
ATOM     13  O   UNL d   1      44.657  31.557  61.622  0.00  0.00    -0.264 OA
ATOM     14  N   UNL d   1      44.709  30.166  61.887  0.00  0.00    -0.102 N 
ENDBRANCH  11  12
ENDBRANCH  10  11
ENDBRANCH   8  10
ENDBRANCH   1   7
BRANCH   2  15
ATOM     15  O   UNL d   1      45.018  27.986  58.343  0.00  0.00    -0.304 OA
BRANCH  15  16
ATOM     16  C   UNL d   1      45.278  27.242  58.067  0.00  0.00     0.123 C 
ATOM     17  C   UNL d   1      45.289  26.609  58.605  0.00  0.00     0.029 C 
ENDBRANCH  15  16
ENDBRANCH   2  15
TORSDOF 6
ENDMDL
