MODEL 1
REMARK VINA RESULT:       2.6      0.000      0.000
REMARK  6 active torsions:
REMARK  status: ('A' for Active; 'I' for Inactive)
REMARK    1  A    between atoms: S_6  and  N_1 
REMARK    2  A    between atoms: C_2  and  C_4 
REMARK    3  A    between atoms: C_12  and  C_3 
REMARK    4  A    between atoms: C_17  and  N_8 
REMARK    5  A    between atoms: C_16  and  C_10 
REMARK    6  A    between atoms: O_27  and  C_24 
ROOT
ATOM      1  N   UNL d   1      56.314  -1.026  32.541  0.00  0.00    -0.155 N 
ATOM      2  C   UNL d   1      56.316  -0.226  32.748  0.00  0.00     0.099 A 
ATOM      3  N   UNL d   1      56.822  -1.103  31.902  0.00  0.00    -0.156 NA
ATOM      4  C   UNL d   1      57.136  -0.358  31.713  0.00  0.00     0.103 A 
ATOM      5  C   UNL d   1      56.806   0.171  32.255  0.00  0.00     0.041 A 
ENDROOT
BRANCH   2   6
ATOM      6  C   UNL d   1      55.848   0.076  33.399  0.00  0.00     0.058 A 
ATOM      7  C   UNL d   1      56.135   0.414  34.069  0.00  0.00     0.110 A 
ATOM      8  N   UNL d   1      55.452   0.611  34.519  0.00  0.00    -0.165 NA
ATOM      9  N   UNL d   1      54.774   0.383  34.100  0.00  0.00    -0.228 N 
ATOM     10  C   UNL d   1      55.022   0.046  33.395  0.00  0.00     0.103 A 
BRANCH   7  11
ATOM     11  C   UNL d   1      56.917   0.545  34.281  0.00  0.00     0.049 A 
ATOM     12  S   UNL d   1      57.564   0.663  34.229  0.00  0.00    -0.085 SA
ATOM     13  C   UNL d   1      57.855   0.681  35.015  0.00  0.00     0.035 A 
ATOM     14  C   UNL d   1      57.329   0.562  35.601  0.00  0.00     0.007 A 
ATOM     15  C   UNL d   1      56.687   0.465  35.184  0.00  0.00     0.009 A 
ENDBRANCH   7  11
BRANCH   9  16
ATOM     16  C   UNL d   1      54.000   0.482  34.356  0.00  0.00     0.083 A 
ATOM     17  C   UNL d   1      53.832   0.569  35.150  0.00  0.00     0.019 A 
ATOM     18  C   UNL d   1      53.073   0.659  35.321  0.00  0.00     0.002 A 
ATOM     19  C   UNL d   1      52.402   0.682  34.834  0.00  0.00     0.000 A 
ATOM     20  C   UNL d   1      52.614   0.589  34.027  0.00  0.00     0.002 A 
ATOM     21  C   UNL d   1      53.390   0.489  33.772  0.00  0.00     0.019 A 
ENDBRANCH   9  16
ENDBRANCH   2   6
BRANCH   1  22
ATOM     22  S   UNL d   1      55.894  -1.647  32.891  0.00  0.00     0.266 S 
ATOM     23  O   UNL d   1      55.197  -1.375  32.538  0.00  0.00    -0.203 OA
ATOM     24  O   UNL d   1      56.588  -1.919  33.242  0.00  0.00    -0.203 OA
ATOM     25  C   UNL d   1      55.471  -2.270  33.241  0.00  0.00     0.165 C 
ENDBRANCH   1  22
BRANCH   4  26
ATOM     26  C   UNL d   1      57.668  -0.167  31.115  0.00  0.00     0.020 A 
ATOM     27  C   UNL d   1      58.247   0.415  31.203  0.00  0.00     0.004 A 
ATOM     28  C   UNL d   1      58.763   0.583  30.590  0.00  0.00     0.024 A 
ATOM     29  C   UNL d   1      58.700   0.166  29.880  0.00  0.00     0.094 A 
ATOM     30  C   UNL d   1      58.121  -0.416  29.791  0.00  0.00     0.024 A 
ATOM     31  C   UNL d   1      57.632  -0.568  30.388  0.00  0.00     0.004 A 
BRANCH  29  32
ATOM     32  O   UNL d   1      59.238   0.352  29.260  0.00  0.00    -0.328 OA
ATOM     33  C   UNL d   1      59.837  -0.172  29.067  0.00  0.00     0.181 C 
ENDBRANCH  29  32
ENDBRANCH   4  26
TORSDOF 6
ENDMDL
