MODEL 1
REMARK VINA RESULT:      36.5      0.000      0.000
REMARK  6 active torsions:
REMARK  status: ('A' for Active; 'I' for Inactive)
REMARK    1  A    between atoms: N_2  and  S_1 
REMARK    2  A    between atoms: C_3  and  S_1 
REMARK    3  A    between atoms: C_9  and  N_2 
REMARK    4  A    between atoms: C_13  and  C_9 
REMARK    5  A    between atoms: O_14  and  C_10 
REMARK    6  A    between atoms: C_17  and  O_14 
ROOT
ATOM      1  S   UNL d   1      14.947  15.253  -0.749  0.00  0.00     0.285 S 
ATOM      2  O   UNL d   1      15.757  15.112  -0.806  0.00  0.00    -0.198 OA
ATOM      3  O   UNL d   1      14.137  15.395  -0.691  0.00  0.00    -0.198 OA
ENDROOT
BRANCH   1   4
ATOM      4  N   UNL d   1      14.904  14.745  -0.100  0.00  0.00    -0.157 NA
BRANCH   4   5
ATOM      5  C   UNL d   1      15.336  14.039  -0.096  0.00  0.00     0.112 C 
BRANCH   5   6
ATOM      6  C   UNL d   1      14.942  13.315  -0.071  0.00  0.00     0.023 A 
ATOM      7  C   UNL d   1      15.374  12.605  -0.041  0.00  0.00     0.022 A 
ATOM      8  C   UNL d   1      14.980  11.881  -0.016  0.00  0.00     0.099 A 
ATOM      9  N   UNL d   1      14.163  11.858  -0.020  0.00  0.00    -0.242 NA
ATOM     10  C   UNL d   1      13.730  12.560  -0.050  0.00  0.00     0.099 A 
ATOM     11  C   UNL d   1      14.124  13.293  -0.075  0.00  0.00     0.022 A 
ENDBRANCH   5   6
ENDBRANCH   4   5
ENDBRANCH   1   4
BRANCH   1  12
ATOM     12  C   UNL d   1      14.990  15.761  -1.398  0.00  0.00     0.105 A 
ATOM     13  C   UNL d   1      15.258  16.534  -1.298  0.00  0.00     0.015 A 
ATOM     14  C   UNL d   1      15.301  17.042  -1.946  0.00  0.00     0.025 A 
ATOM     15  C   UNL d   1      15.074  16.776  -2.696  0.00  0.00     0.100 A 
ATOM     16  C   UNL d   1      14.805  16.003  -2.796  0.00  0.00     0.025 A 
ATOM     17  C   UNL d   1      14.763  15.495  -2.147  0.00  0.00     0.015 A 
BRANCH  15  18
ATOM     18  O   UNL d   1      15.116  17.284  -3.344  0.00  0.00    -0.305 OA
BRANCH  18  19
ATOM     19  C   UNL d   1      15.583  17.084  -3.994  0.00  0.00     0.123 C 
ATOM     20  C   UNL d   1      15.636  17.598  -4.641  0.00  0.00     0.029 C 
ENDBRANCH  18  19
ENDBRANCH  15  18
ENDBRANCH   1  12
TORSDOF 6
ENDMDL
MODEL 2
REMARK VINA RESULT:      38.4      3.142      4.310
REMARK  6 active torsions:
REMARK  status: ('A' for Active; 'I' for Inactive)
REMARK    1  A    between atoms: N_2  and  S_1 
REMARK    2  A    between atoms: C_3  and  S_1 
REMARK    3  A    between atoms: C_9  and  N_2 
REMARK    4  A    between atoms: C_13  and  C_9 
REMARK    5  A    between atoms: O_14  and  C_10 
REMARK    6  A    between atoms: C_17  and  O_14 
ROOT
ATOM      1  S   UNL d   1      13.682  14.290  -2.990  0.00  0.00     0.285 S 
ATOM      2  O   UNL d   1      14.411  13.927  -2.858  0.00  0.00    -0.198 OA
ATOM      3  O   UNL d   1      12.953  14.653  -3.121  0.00  0.00    -0.198 OA
ENDROOT
BRANCH   1   4
ATOM      4  N   UNL d   1      13.906  14.917  -2.502  0.00  0.00    -0.157 NA
BRANCH   4   5
ATOM      5  C   UNL d   1      14.639  15.285  -2.610  0.00  0.00     0.112 C 
BRANCH   5   6
ATOM      6  C   UNL d   1      14.941  15.782  -2.025  0.00  0.00     0.023 A 
ATOM      7  C   UNL d   1      15.177  16.557  -2.215  0.00  0.00     0.022 A 
ATOM      8  C   UNL d   1      15.479  17.054  -1.631  0.00  0.00     0.099 A 
ATOM      9  N   UNL d   1      15.548  16.786  -0.861  0.00  0.00    -0.242 NA
ATOM     10  C   UNL d   1      15.314  16.018  -0.667  0.00  0.00     0.099 A 
ATOM     11  C   UNL d   1      15.009  15.515  -1.255  0.00  0.00     0.022 A 
ENDBRANCH   5   6
ENDBRANCH   4   5
ENDBRANCH   1   4
BRANCH   1  12
ATOM     12  C   UNL d   1      13.458  13.663  -3.477  0.00  0.00     0.105 A 
ATOM     13  C   UNL d   1      13.229  13.810  -4.256  0.00  0.00     0.015 A 
ATOM     14  C   UNL d   1      13.005  13.184  -4.744  0.00  0.00     0.025 A 
ATOM     15  C   UNL d   1      13.009  12.410  -4.452  0.00  0.00     0.100 A 
ATOM     16  C   UNL d   1      13.238  12.263  -3.674  0.00  0.00     0.025 A 
ATOM     17  C   UNL d   1      13.462  12.890  -3.186  0.00  0.00     0.015 A 
BRANCH  15  18
ATOM     18  O   UNL d   1      12.785  11.784  -4.940  0.00  0.00    -0.305 OA
BRANCH  18  19
ATOM     19  C   UNL d   1      13.002  11.784  -5.736  0.00  0.00     0.123 C 
ATOM     20  C   UNL d   1      13.759  12.035  -5.959  0.00  0.00     0.029 C 
ENDBRANCH  18  19
ENDBRANCH  15  18
ENDBRANCH   1  12
TORSDOF 6
ENDMDL
MODEL 3
REMARK VINA RESULT:      39.2      3.274      5.409
REMARK  6 active torsions:
REMARK  status: ('A' for Active; 'I' for Inactive)
REMARK    1  A    between atoms: N_2  and  S_1 
REMARK    2  A    between atoms: C_3  and  S_1 
REMARK    3  A    between atoms: C_9  and  N_2 
REMARK    4  A    between atoms: C_13  and  C_9 
REMARK    5  A    between atoms: O_14  and  C_10 
REMARK    6  A    between atoms: C_17  and  O_14 
ROOT
ATOM      1  S   UNL d   1      13.398  13.614  -3.836  0.00  0.00     0.285 S 
ATOM      2  O   UNL d   1      13.758  14.275  -3.501  0.00  0.00    -0.198 OA
ATOM      3  O   UNL d   1      13.038  12.952  -4.171  0.00  0.00    -0.198 OA
ENDROOT
BRANCH   1   4
ATOM      4  N   UNL d   1      13.155  14.070  -4.479  0.00  0.00    -0.157 NA
BRANCH   4   5
ATOM      5  C   UNL d   1      13.708  14.327  -5.038  0.00  0.00     0.112 C 
BRANCH   5   6
ATOM      6  C   UNL d   1      13.601  15.048  -5.423  0.00  0.00     0.023 A 
ATOM      7  C   UNL d   1      14.229  15.393  -5.846  0.00  0.00     0.022 A 
ATOM      8  C   UNL d   1      14.122  16.115  -6.231  0.00  0.00     0.099 A 
ATOM      9  N   UNL d   1      13.398  16.494  -6.198  0.00  0.00    -0.242 NA
ATOM     10  C   UNL d   1      12.772  16.155  -5.780  0.00  0.00     0.099 A 
ATOM     11  C   UNL d   1      12.877  15.427  -5.390  0.00  0.00     0.022 A 
ENDBRANCH   5   6
ENDBRANCH   4   5
ENDBRANCH   1   4
BRANCH   1  12
ATOM     12  C   UNL d   1      13.640  13.157  -3.193  0.00  0.00     0.105 A 
ATOM     13  C   UNL d   1      14.061  13.506  -2.575  0.00  0.00     0.015 A 
ATOM     14  C   UNL d   1      14.303  13.049  -1.933  0.00  0.00     0.025 A 
ATOM     15  C   UNL d   1      14.125  12.241  -1.908  0.00  0.00     0.100 A 
ATOM     16  C   UNL d   1      13.704  11.892  -2.526  0.00  0.00     0.025 A 
ATOM     17  C   UNL d   1      13.462  12.349  -3.169  0.00  0.00     0.015 A 
BRANCH  15  18
ATOM     18  O   UNL d   1      14.367  11.784  -1.266  0.00  0.00    -0.305 OA
BRANCH  18  19
ATOM     19  C   UNL d   1      14.408  12.121  -0.514  0.00  0.00     0.123 C 
ATOM     20  C   UNL d   1      15.139  12.358  -0.205  0.00  0.00     0.029 C 
ENDBRANCH  18  19
ENDBRANCH  15  18
ENDBRANCH   1  12
TORSDOF 6
ENDMDL
