MODEL 1
REMARK VINA RESULT:      53.3      0.000      0.000
REMARK  4 active torsions:
REMARK  status: ('A' for Active; 'I' for Inactive)
REMARK    1  A    between atoms: C_10  and  N_4 
REMARK    2  A    between atoms: C_11  and  C_10 
REMARK       I    between atoms: N_15  and  C_11 
REMARK    3  A    between atoms: C_12  and  C_20 
REMARK    4  A    between atoms: C_20  and  N_15 
ROOT
ATOM      1  C   UNL d   1     -55.006-100.998 -38.670  0.00  0.00     0.174 A 
ATOM      2  C   UNL d   1     -54.958-101.812 -38.577  0.00  0.00     0.112 A 
ATOM      3  C   UNL d   1     -54.927-100.656 -39.414  0.00  0.00     0.290 A 
ATOM      4  N   UNL d   1     -54.798-101.135 -40.071  0.00  0.00    -0.249 N 
ATOM      5  O   UNL d   1     -55.136-100.666 -37.922  0.00  0.00    -0.301 OA
ATOM      6  N   UNL d   1     -54.829-102.291 -39.234  0.00  0.00    -0.223 NA
ATOM      7  C   UNL d   1     -55.057-101.988 -37.777  0.00  0.00     0.043 A 
ATOM      8  C   UNL d   1     -54.749-101.956 -39.984  0.00  0.00     0.185 A 
ATOM      9  C   UNL d   1     -55.168-101.275 -37.372  0.00  0.00     0.102 A 
ATOM     10  O   UNL d   1     -54.975 -99.839 -39.506  0.00  0.00    -0.264 OA
ATOM     11  C   UNL d   1     -55.061-102.702 -37.369  0.00  0.00     0.004 A 
ATOM     12  C   UNL d   1     -55.283-101.285 -36.555  0.00  0.00     0.025 A 
ATOM     13  C   UNL d   1     -55.176-102.713 -36.547  0.00  0.00     0.000 A 
ATOM     14  C   UNL d   1     -55.286-102.000 -36.146  0.00  0.00     0.002 A 
ENDROOT
BRANCH   4  15
ATOM     15  C   UNL d   1     -54.717-100.803 -40.825  0.00  0.00     0.147 C 
BRANCH  15  16
ATOM     16  C   UNL d   1     -54.865-101.253 -41.499  0.00  0.00     0.297 C 
ATOM     17  N   UNL d   1     -54.719-100.927 -42.232  0.00  0.00    -0.203 NA
ATOM     18  O   UNL d   1     -55.156-102.022 -41.433  0.00  0.00    -0.264 OA
BRANCH  17  19
ATOM     19  C   UNL d   1     -54.863-101.369 -42.912  0.00  0.00     0.127 C 
BRANCH  19  20
ATOM     20  C   UNL d   1     -54.950-100.982 -43.637  0.00  0.00     0.119 A 
ATOM     21  O   UNL d   1     -55.280-101.289 -44.329  0.00  0.00    -0.304 OA
ATOM     22  C   UNL d   1     -55.252-100.701 -44.919  0.00  0.00     0.123 A 
ATOM     23  C   UNL d   1     -54.901-100.026 -44.587  0.00  0.00     0.029 A 
ATOM     24  C   UNL d   1     -54.713-100.193 -43.799  0.00  0.00     0.028 A 
ENDBRANCH  19  20
ENDBRANCH  17  19
ENDBRANCH  15  16
ENDBRANCH   4  15
TORSDOF 4
ENDMDL
MODEL 2
REMARK VINA RESULT:      54.2      1.181      5.330
REMARK  4 active torsions:
REMARK  status: ('A' for Active; 'I' for Inactive)
REMARK    1  A    between atoms: C_10  and  N_4 
REMARK    2  A    between atoms: C_11  and  C_10 
REMARK       I    between atoms: N_15  and  C_11 
REMARK    3  A    between atoms: C_12  and  C_20 
REMARK    4  A    between atoms: C_20  and  N_15 
ROOT
ATOM      1  C   UNL d   1     -55.002-101.218 -41.797  0.00  0.00     0.174 A 
ATOM      2  C   UNL d   1     -54.939-101.613 -42.514  0.00  0.00     0.112 A 
ATOM      3  C   UNL d   1     -54.931-101.626 -41.086  0.00  0.00     0.290 A 
ATOM      4  N   UNL d   1     -54.795-102.438 -41.095  0.00  0.00    -0.249 N 
ATOM      5  O   UNL d   1     -55.136-100.418 -41.962  0.00  0.00    -0.301 OA
ATOM      6  N   UNL d   1     -54.804-102.425 -42.522  0.00  0.00    -0.223 NA
ATOM      7  C   UNL d   1     -55.034-101.064 -43.122  0.00  0.00     0.043 A 
ATOM      8  C   UNL d   1     -54.731-102.842 -41.814  0.00  0.00     0.185 A 
ATOM      9  C   UNL d   1     -55.156-100.322 -42.777  0.00  0.00     0.102 A 
ATOM     10  O   UNL d   1     -54.994-101.229 -40.368  0.00  0.00    -0.264 OA
ATOM     11  C   UNL d   1     -55.024-101.144 -43.941  0.00  0.00     0.004 A 
ATOM     12  C   UNL d   1     -55.268 -99.662 -43.260  0.00  0.00     0.025 A 
ATOM     13  C   UNL d   1     -55.137-100.481 -44.427  0.00  0.00     0.000 A 
ATOM     14  C   UNL d   1     -55.259 -99.742 -44.080  0.00  0.00     0.002 A 
ENDROOT
BRANCH   4  15
ATOM     15  C   UNL d   1     -54.721-102.860 -40.386  0.00  0.00     0.147 C 
BRANCH  15  16
ATOM     16  C   UNL d   1     -55.273-102.763 -39.782  0.00  0.00     0.297 C 
ATOM     17  N   UNL d   1     -55.013-102.751 -39.009  0.00  0.00    -0.203 NA
ATOM     18  O   UNL d   1     -56.074-102.680 -39.956  0.00  0.00    -0.264 OA
BRANCH  17  19
ATOM     19  C   UNL d   1     -55.557-102.654 -38.397  0.00  0.00     0.127 C 
BRANCH  19  20
ATOM     20  C   UNL d   1     -55.292-102.404 -37.655  0.00  0.00     0.119 A 
ATOM     21  O   UNL d   1     -55.144-102.877 -36.995  0.00  0.00    -0.304 OA
ATOM     22  C   UNL d   1     -54.887-102.387 -36.372  0.00  0.00     0.123 A 
ATOM     23  C   UNL d   1     -54.877-101.605 -36.651  0.00  0.00     0.029 A 
ATOM     24  C   UNL d   1     -55.125-101.610 -37.440  0.00  0.00     0.028 A 
ENDBRANCH  19  20
ENDBRANCH  17  19
ENDBRANCH  15  16
ENDBRANCH   4  15
TORSDOF 4
ENDMDL
