MODEL 1
REMARK VINA RESULT:      30.3      0.000      0.000
REMARK  2 active torsions:
REMARK  status: ('A' for Active; 'I' for Inactive)
REMARK    1  A    between atoms: N_7  and  C_2 
REMARK    2  A    between atoms: C_10  and  N_7 
ROOT
ATOM      1  N   UNL d   1     -53.382  24.947  33.488  0.00  0.00     0.002 N 
ATOM      2  C   UNL d   1     -52.636  24.595  33.467  0.00  0.00     0.773 A 
ATOM      3  C   UNL d   1     -54.041  24.479  33.642  0.00  0.00     0.317 A 
ATOM      4  N   UNL d   1     -52.552  23.777  33.600  0.00  0.00     0.046 NA
ATOM      5  N   UNL d   1     -53.215  23.322  33.753  0.00  0.00    -0.127 NA
ATOM      6  C   UNL d   1     -53.957  23.661  33.775  0.00  0.00     0.162 A 
ATOM      7  O   UNL d   1     -54.805  24.852  33.661  0.00  0.00    -0.263 OA
ATOM      8  N   UNL d   1     -53.465  25.750  33.357  0.00  0.00    -0.023 N 
ATOM      9  C   UNL d   1     -54.634  23.190  33.932  0.00  0.00     0.028 C 
ENDROOT
BRANCH   2  10
ATOM     10  N   UNL d   1     -51.961  25.086  33.307  0.00  0.00    -0.058 NA
BRANCH  10  11
ATOM     11  C   UNL d   1     -51.185  24.797  33.399  0.00  0.00     0.100 A 
ATOM     12  C   UNL d   1     -50.581  25.321  33.557  0.00  0.00     0.020 A 
ATOM     13  C   UNL d   1     -49.802  25.030  33.649  0.00  0.00     0.002 A 
ATOM     14  C   UNL d   1     -49.662  24.228  33.578  0.00  0.00     0.000 A 
ATOM     15  C   UNL d   1     -50.268  23.709  33.420  0.00  0.00     0.002 A 
ATOM     16  C   UNL d   1     -51.047  24.000  33.328  0.00  0.00     0.020 A 
ENDBRANCH  10  11
ENDBRANCH   2  10
TORSDOF 2
ENDMDL
