MODEL 1
REMARK VINA RESULT:      -8.0      0.000      0.000
REMARK  7 active torsions:
REMARK  status: ('A' for Active; 'I' for Inactive)
REMARK    1  A    between atoms: C_3  and  C_1 
REMARK    2  A    between atoms: C_6  and  C_1 
REMARK    3  A    between atoms: C_2  and  C_3 
REMARK       I    between atoms: N_4  and  C_2 
REMARK    4  A    between atoms: C_12  and  N_4 
REMARK    5  A    between atoms: N_7  and  C_5 
REMARK    6  A    between atoms: C_16  and  N_7 
REMARK    7  A    between atoms: C_17  and  N_7 
ROOT
ATOM      1  C   UNL d   1      53.732  34.085  54.349  0.00  0.00     0.279 C 
ATOM      2  N   UNL d   1      54.239  33.478  54.572  0.00  0.00    -0.208 NA
ATOM      3  O   UNL d   1      53.930  34.868  54.538  0.00  0.00    -0.265 OA
ENDROOT
BRANCH   2   4
ATOM      4  C   UNL d   1      54.043  32.705  54.385  0.00  0.00     0.085 A 
ATOM      5  C   UNL d   1      53.592  32.258  54.915  0.00  0.00     0.021 A 
ATOM      6  C   UNL d   1      53.393  31.475  54.725  0.00  0.00     0.019 A 
ATOM      7  C   UNL d   1      53.639  31.142  54.020  0.00  0.00     0.064 A 
ATOM      8  C   UNL d   1      54.094  31.595  53.488  0.00  0.00     0.019 A 
ATOM      9  C   UNL d   1      54.293  32.379  53.677  0.00  0.00     0.021 A 
BRANCH   7  10
ATOM     10  N   UNL d   1      53.443  30.372  53.834  0.00  0.00    -0.304 N 
BRANCH  10  11
ATOM     11  C   UNL d   1      53.345  29.812  54.444  0.00  0.00     0.080 C 
ATOM     12  C   UNL d   1      53.611  29.031  54.333  0.00  0.00     0.021 C 
ENDBRANCH  10  11
BRANCH  10  13
ATOM     13  C   UNL d   1      53.343  30.147  53.056  0.00  0.00     0.080 C 
ATOM     14  C   UNL d   1      52.630  29.817  52.820  0.00  0.00     0.021 C 
ENDBRANCH  10  13
ENDBRANCH   7  10
ENDBRANCH   2   4
BRANCH   1  15
ATOM     15  C   UNL d   1      53.037  33.935  53.945  0.00  0.00     0.063 C 
BRANCH  15  16
ATOM     16  C   UNL d   1      52.657  34.541  53.533  0.00  0.00     0.006 C 
BRANCH  16  17
ATOM     17  C   UNL d   1      51.917  34.418  53.196  0.00  0.00     0.011 A 
ATOM     18  C   UNL d   1      51.805  34.464  52.390  0.00  0.00     0.058 A 
ATOM     19 CL   UNL d   1      52.434  34.635  51.913  0.00  0.00    -0.082 Cl
ATOM     20  C   UNL d   1      51.055  34.339  52.050  0.00  0.00     0.011 A 
ATOM     21  C   UNL d   1      50.418  34.167  52.516  0.00  0.00     0.001 A 
ATOM     22  C   UNL d   1      50.525  34.119  53.339  0.00  0.00     0.000 A 
ATOM     23  C   UNL d   1      51.260  34.241  53.672  0.00  0.00     0.001 A 
ENDBRANCH  16  17
ENDBRANCH  15  16
ENDBRANCH   1  15
TORSDOF 7
ENDMDL
MODEL 2
REMARK VINA RESULT:      -7.2      1.586      4.141
REMARK  7 active torsions:
REMARK  status: ('A' for Active; 'I' for Inactive)
REMARK    1  A    between atoms: C_3  and  C_1 
REMARK    2  A    between atoms: C_6  and  C_1 
REMARK    3  A    between atoms: C_2  and  C_3 
REMARK       I    between atoms: N_4  and  C_2 
REMARK    4  A    between atoms: C_12  and  N_4 
REMARK    5  A    between atoms: N_7  and  C_5 
REMARK    6  A    between atoms: C_16  and  N_7 
REMARK    7  A    between atoms: C_17  and  N_7 
ROOT
ATOM      1  C   UNL d   1      54.007  33.138  54.161  0.00  0.00     0.279 C 
ATOM      2  N   UNL d   1      53.690  33.895  54.113  0.00  0.00    -0.208 NA
ATOM      3  O   UNL d   1      54.743  33.032  54.526  0.00  0.00    -0.265 OA
ENDROOT
BRANCH   2   4
ATOM      4  C   UNL d   1      52.962  34.001  53.751  0.00  0.00     0.085 A 
ATOM      5  C   UNL d   1      52.927  34.263  52.969  0.00  0.00     0.021 A 
ATOM      6  C   UNL d   1      52.190  34.370  52.603  0.00  0.00     0.019 A 
ATOM      7  C   UNL d   1      51.498  34.218  53.010  0.00  0.00     0.064 A 
ATOM      8  C   UNL d   1      51.535  33.953  53.801  0.00  0.00     0.019 A 
ATOM      9  C   UNL d   1      52.273  33.846  54.167  0.00  0.00     0.021 A 
BRANCH   7  10
ATOM     10  N   UNL d   1      50.773  34.323  52.651  0.00  0.00    -0.304 N 
BRANCH  10  11
ATOM     11  C   UNL d   1      50.098  34.471  53.117  0.00  0.00     0.080 C 
ATOM     12  C   UNL d   1      49.534  35.027  52.862  0.00  0.00     0.021 C 
ENDBRANCH  10  11
BRANCH  10  13
ATOM     13  C   UNL d   1      50.705  34.284  51.839  0.00  0.00     0.080 C 
ATOM     14  C   UNL d   1      49.994  34.044  51.504  0.00  0.00     0.021 C 
ENDBRANCH  10  13
ENDBRANCH   7  10
ENDBRANCH   2   4
BRANCH   1  15
ATOM     15  C   UNL d   1      53.613  32.489  53.858  0.00  0.00     0.063 C 
BRANCH  15  16
ATOM     16  C   UNL d   1      53.891  31.727  54.009  0.00  0.00     0.006 C 
BRANCH  16  17
ATOM     17  C   UNL d   1      53.529  31.074  53.662  0.00  0.00     0.011 A 
ATOM     18  C   UNL d   1      53.320  30.422  54.105  0.00  0.00     0.058 A 
ATOM     19 CL   UNL d   1      53.469  30.418  54.898  0.00  0.00    -0.082 Cl
ATOM     20  C   UNL d   1      52.954  29.761  53.753  0.00  0.00     0.011 A 
ATOM     21  C   UNL d   1      52.799  29.753  52.960  0.00  0.00     0.001 A 
ATOM     22  C   UNL d   1      53.011  30.415  52.504  0.00  0.00     0.000 A 
ATOM     23  C   UNL d   1      53.369  31.062  52.848  0.00  0.00     0.001 A 
ENDBRANCH  16  17
ENDBRANCH  15  16
ENDBRANCH   1  15
TORSDOF 7
ENDMDL
MODEL 3
REMARK VINA RESULT:      -6.5      1.904      4.199
REMARK  7 active torsions:
REMARK  status: ('A' for Active; 'I' for Inactive)
REMARK    1  A    between atoms: C_3  and  C_1 
REMARK    2  A    between atoms: C_6  and  C_1 
REMARK    3  A    between atoms: C_2  and  C_3 
REMARK       I    between atoms: N_4  and  C_2 
REMARK    4  A    between atoms: C_12  and  N_4 
REMARK    5  A    between atoms: N_7  and  C_5 
REMARK    6  A    between atoms: C_16  and  N_7 
REMARK    7  A    between atoms: C_17  and  N_7 
ROOT
ATOM      1  C   UNL d   1      53.227  31.426  53.231  0.00  0.00     0.279 C 
ATOM      2  N   UNL d   1      52.520  31.430  52.813  0.00  0.00    -0.208 NA
ATOM      3  O   UNL d   1      53.700  30.745  53.218  0.00  0.00    -0.265 OA
ENDROOT
BRANCH   2   4
ATOM      4  C   UNL d   1      52.052  32.103  52.825  0.00  0.00     0.085 A 
ATOM      5  C   UNL d   1      51.405  32.143  53.338  0.00  0.00     0.021 A 
ATOM      6  C   UNL d   1      50.932  32.825  53.350  0.00  0.00     0.019 A 
ATOM      7  C   UNL d   1      51.101  33.457  52.860  0.00  0.00     0.064 A 
ATOM      8  C   UNL d   1      51.755  33.414  52.343  0.00  0.00     0.019 A 
ATOM      9  C   UNL d   1      52.228  32.732  52.331  0.00  0.00     0.021 A 
BRANCH   7  10
ATOM     10  N   UNL d   1      50.636  34.128  52.873  0.00  0.00    -0.304 N 
BRANCH  10  11
ATOM     11  C   UNL d   1      49.873  34.107  52.538  0.00  0.00     0.080 C 
ATOM     12  C   UNL d   1      49.589  34.766  52.117  0.00  0.00     0.021 C 
ENDBRANCH  10  11
BRANCH  10  13
ATOM     13  C   UNL d   1      50.914  34.817  53.210  0.00  0.00     0.080 C 
ATOM     14  C   UNL d   1      50.461  35.199  53.778  0.00  0.00     0.021 C 
ENDBRANCH  10  13
ENDBRANCH   7  10
ENDBRANCH   2   4
BRANCH   1  15
ATOM     15  C   UNL d   1      53.476  32.077  53.658  0.00  0.00     0.063 C 
BRANCH  15  16
ATOM     16  C   UNL d   1      54.265  32.145  53.889  0.00  0.00     0.006 C 
BRANCH  16  17
ATOM     17  C   UNL d   1      54.495  32.727  54.424  0.00  0.00     0.011 A 
ATOM     18  C   UNL d   1      55.075  33.268  54.237  0.00  0.00     0.058 A 
ATOM     19 CL   UNL d   1      55.430  33.232  53.513  0.00  0.00    -0.082 Cl
ATOM     20  C   UNL d   1      55.308  33.857  54.778  0.00  0.00     0.011 A 
ATOM     21  C   UNL d   1      54.960  33.904  55.506  0.00  0.00     0.001 A 
ATOM     22  C   UNL d   1      54.367  33.355  55.703  0.00  0.00     0.000 A 
ATOM     23  C   UNL d   1      54.139  32.778  55.172  0.00  0.00     0.001 A 
ENDBRANCH  16  17
ENDBRANCH  15  16
ENDBRANCH   1  15
TORSDOF 7
ENDMDL
MODEL 4
REMARK VINA RESULT:      -5.9      1.906      2.834
REMARK  7 active torsions:
REMARK  status: ('A' for Active; 'I' for Inactive)
REMARK    1  A    between atoms: C_3  and  C_1 
REMARK    2  A    between atoms: C_6  and  C_1 
REMARK    3  A    between atoms: C_2  and  C_3 
REMARK       I    between atoms: N_4  and  C_2 
REMARK    4  A    between atoms: C_12  and  N_4 
REMARK    5  A    between atoms: N_7  and  C_5 
REMARK    6  A    between atoms: C_16  and  N_7 
REMARK    7  A    between atoms: C_17  and  N_7 
ROOT
ATOM      1  C   UNL d   1      52.716  32.456  52.635  0.00  0.00     0.279 C 
ATOM      2  N   UNL d   1      52.472  31.696  52.439  0.00  0.00    -0.208 NA
ATOM      3  O   UNL d   1      52.518  33.085  52.133  0.00  0.00    -0.265 OA
ENDROOT
BRANCH   2   4
ATOM      4  C   UNL d   1      52.668  31.073  52.935  0.00  0.00     0.085 A 
ATOM      5  C   UNL d   1      52.127  30.818  53.505  0.00  0.00     0.021 A 
ATOM      6  C   UNL d   1      52.326  30.188  54.007  0.00  0.00     0.019 A 
ATOM      7  C   UNL d   1      53.052  29.818  53.943  0.00  0.00     0.064 A 
ATOM      8  C   UNL d   1      53.597  30.078  53.366  0.00  0.00     0.019 A 
ATOM      9  C   UNL d   1      53.399  30.709  52.864  0.00  0.00     0.021 A 
BRANCH   7  10
ATOM     10  N   UNL d   1      53.248  29.198  54.437  0.00  0.00    -0.304 N 
BRANCH  10  11
ATOM     11  C   UNL d   1      52.940  29.174  55.211  0.00  0.00     0.080 C 
ATOM     12  C   UNL d   1      53.393  28.842  55.824  0.00  0.00     0.021 C 
ENDBRANCH  10  11
BRANCH  10  13
ATOM     13  C   UNL d   1      53.743  28.603  54.177  0.00  0.00     0.080 C 
ATOM     14  C   UNL d   1      53.749  27.883  54.571  0.00  0.00     0.021 C 
ENDBRANCH  10  13
ENDBRANCH   7  10
ENDBRANCH   2   4
BRANCH   1  15
ATOM     15  C   UNL d   1      53.150  32.605  53.312  0.00  0.00     0.063 C 
BRANCH  15  16
ATOM     16  C   UNL d   1      53.317  33.382  53.535  0.00  0.00     0.006 C 
BRANCH  16  17
ATOM     17  C   UNL d   1      53.861  33.537  54.132  0.00  0.00     0.011 A 
ATOM     18  C   UNL d   1      53.658  33.984  54.784  0.00  0.00     0.058 A 
ATOM     19 CL   UNL d   1      52.909  34.278  54.843  0.00  0.00    -0.082 Cl
ATOM     20  C   UNL d   1      54.209  34.141  55.388  0.00  0.00     0.011 A 
ATOM     21  C   UNL d   1      54.963  33.852  55.341  0.00  0.00     0.001 A 
ATOM     22  C   UNL d   1      55.175  33.396  54.678  0.00  0.00     0.000 A 
ATOM     23  C   UNL d   1      54.635  33.242  54.086  0.00  0.00     0.001 A 
ENDBRANCH  16  17
ENDBRANCH  15  16
ENDBRANCH   1  15
TORSDOF 7
ENDMDL
MODEL 5
REMARK VINA RESULT:      -5.2      2.349      4.636
REMARK  7 active torsions:
REMARK  status: ('A' for Active; 'I' for Inactive)
REMARK    1  A    between atoms: C_3  and  C_1 
REMARK    2  A    between atoms: C_6  and  C_1 
REMARK    3  A    between atoms: C_2  and  C_3 
REMARK       I    between atoms: N_4  and  C_2 
REMARK    4  A    between atoms: C_12  and  N_4 
REMARK    5  A    between atoms: N_7  and  C_5 
REMARK    6  A    between atoms: C_16  and  N_7 
REMARK    7  A    between atoms: C_17  and  N_7 
ROOT
ATOM      1  C   UNL d   1      52.882  30.788  52.663  0.00  0.00     0.279 C 
ATOM      2  N   UNL d   1      52.901  31.583  52.455  0.00  0.00    -0.208 NA
ATOM      3  O   UNL d   1      52.627  30.230  52.105  0.00  0.00    -0.265 OA
ENDROOT
BRANCH   2   4
ATOM      4  C   UNL d   1      53.153  32.134  53.007  0.00  0.00     0.085 A 
ATOM      5  C   UNL d   1      52.597  32.535  53.468  0.00  0.00     0.021 A 
ATOM      6  C   UNL d   1      52.852  33.093  54.027  0.00  0.00     0.019 A 
ATOM      7  C   UNL d   1      53.649  33.249  54.125  0.00  0.00     0.064 A 
ATOM      8  C   UNL d   1      54.209  32.842  53.657  0.00  0.00     0.019 A 
ATOM      9  C   UNL d   1      53.953  32.284  53.099  0.00  0.00     0.021 A 
BRANCH   7  10
ATOM     10  N   UNL d   1      53.900  33.798  54.674  0.00  0.00    -0.304 N 
BRANCH  10  11
ATOM     11  C   UNL d   1      53.372  34.383  54.944  0.00  0.00     0.080 C 
ATOM     12  C   UNL d   1      53.580  35.186  54.881  0.00  0.00     0.021 C 
ENDBRANCH  10  11
BRANCH  10  13
ATOM     13  C   UNL d   1      54.664  33.776  54.960  0.00  0.00     0.080 C 
ATOM     14  C   UNL d   1      54.790  33.687  55.767  0.00  0.00     0.021 C 
ENDBRANCH  10  13
ENDBRANCH   7  10
ENDBRANCH   2   4
BRANCH   1  15
ATOM     15  C   UNL d   1      53.109  30.534  53.406  0.00  0.00     0.063 C 
BRANCH  15  16
ATOM     16  C   UNL d   1      53.289  29.740  53.537  0.00  0.00     0.006 C 
BRANCH  16  17
ATOM     17  C   UNL d   1      53.275  29.428  54.298  0.00  0.00     0.011 A 
ATOM     18  C   UNL d   1      53.649  28.725  54.475  0.00  0.00     0.058 A 
ATOM     19 CL   UNL d   1      54.041  28.329  53.891  0.00  0.00    -0.082 Cl
ATOM     20  C   UNL d   1      53.635  28.410  55.246  0.00  0.00     0.011 A 
ATOM     21  C   UNL d   1      53.246  28.797  55.839  0.00  0.00     0.001 A 
ATOM     22  C   UNL d   1      52.862  29.513  55.665  0.00  0.00     0.000 A 
ATOM     23  C   UNL d   1      52.876  29.823  54.910  0.00  0.00     0.001 A 
ENDBRANCH  16  17
ENDBRANCH  15  16
ENDBRANCH   1  15
TORSDOF 7
ENDMDL
