MODEL 1
REMARK VINA RESULT:      27.1      0.000      0.000
REMARK  5 active torsions:
REMARK  status: ('A' for Active; 'I' for Inactive)
REMARK    1  A    between atoms: C_5  and  N_1 
REMARK    2  A    between atoms: C_2  and  C_7 
REMARK    3  A    between atoms: C_9  and  C_2 
REMARK    4  A    between atoms: C_3  and  C_4 
REMARK    5  A    between atoms: C_7  and  C_8 
ROOT
ATOM      1  C   UNL d   1      14.503  12.077  -0.821  0.00  0.00     0.100 C 
ATOM      2  C   UNL d   1      13.792  11.944  -0.420  0.00  0.00     0.103 C 
ATOM      3  N   UNL d   1      13.080  11.812  -0.018  0.00  0.00    -0.191 NA
ENDROOT
BRANCH   1   4
ATOM      4  C   UNL d   1      14.606  11.791  -1.586  0.00  0.00     0.037 C 
BRANCH   4   5
ATOM      5  C   UNL d   1      14.020  11.911  -2.153  0.00  0.00     0.101 A 
ATOM      6  O   UNL d   1      14.133  12.181  -2.923  0.00  0.00    -0.307 OA
ATOM      7  C   UNL d   1      13.395  12.214  -3.284  0.00  0.00     0.102 A 
ATOM      8  C   UNL d   1      12.825  11.967  -2.741  0.00  0.00     0.027 A 
ATOM      9  C   UNL d   1      13.200  11.780  -2.046  0.00  0.00     0.027 A 
BRANCH   7  10
ATOM     10  C   UNL d   1      13.251  12.455  -4.058  0.00  0.00     0.045 A 
ATOM     11  C   UNL d   1      13.264  13.258  -4.253  0.00  0.00     0.129 A 
ATOM     12  C   UNL d   1      13.120  13.501  -5.025  0.00  0.00     0.024 A 
ATOM     13  C   UNL d   1      12.962  12.939  -5.612  0.00  0.00     0.002 A 
ATOM     14  C   UNL d   1      12.948  12.136  -5.426  0.00  0.00     0.000 A 
ATOM     15  C   UNL d   1      12.818  13.179  -6.385  0.00  0.00     0.000 C 
ATOM     16  C   UNL d   1      13.093  11.892  -4.645  0.00  0.00     0.004 A 
BRANCH  11  17
ATOM     17  N   UNL d   1      13.421  13.818  -3.668  0.00  0.00    -0.114 N 
ATOM     18  O   UNL d   1      14.192  14.073  -3.532  0.00  0.00    -0.532 OA
ATOM     19  O   UNL d   1      12.808  14.130  -3.210  0.00  0.00    -0.532 OA
ENDBRANCH  11  17
ENDBRANCH   7  10
ENDBRANCH   4   5
ENDBRANCH   1   4
BRANCH   1  20
ATOM     20  C   UNL d   1      15.110  12.496  -0.452  0.00  0.00     0.167 C 
ATOM     21  S   UNL d   1      14.939  13.197  -0.047  0.00  0.00    -0.055 SA
ATOM     22  N   UNL d   1      15.881  12.220  -0.486  0.00  0.00    -0.136 N 
ENDBRANCH   1  20
TORSDOF 5
ENDMDL
