MODEL 1
REMARK VINA RESULT:      -4.6      0.000      0.000
REMARK  5 active torsions:
REMARK  status: ('A' for Active; 'I' for Inactive)
REMARK    1  A    between atoms: C_6  and  C_1 
REMARK    2  A    between atoms: C_8  and  N_3 
REMARK    3  A    between atoms: C_7  and  C_6 
REMARK    4  A    between atoms: C_9  and  C_7 
REMARK    5  A    between atoms: C_14  and  C_8 
ROOT
ATOM      1  C   UNL d   1      58.512  -0.049  30.444  0.00  0.00     0.148 A 
ATOM      2  N   UNL d   1      59.171   0.581  30.376  0.00  0.00    -0.227 NA
ATOM      3  N   UNL d   1      58.727  -0.709  29.852  0.00  0.00    -0.289 N 
ATOM      4  C   UNL d   1      59.510  -0.495  29.420  0.00  0.00     0.083 A 
ATOM      5  C   UNL d   1      59.790   0.318  29.750  0.00  0.00     0.099 A 
ATOM      6  C   UNL d   1      60.003  -0.926  28.775  0.00  0.00     0.019 A 
ATOM      7  C   UNL d   1      60.557   0.682  29.429  0.00  0.00     0.021 A 
ATOM      8  C   UNL d   1      60.766  -0.541  28.470  0.00  0.00     0.002 A 
ATOM      9  C   UNL d   1      61.046   0.271  28.800  0.00  0.00     0.002 A 
ENDROOT
BRANCH   1  10
ATOM     10  C   UNL d   1      57.851  -0.358  30.724  0.00  0.00     0.037 C 
BRANCH  10  11
ATOM     11  C   UNL d   1      57.251   0.076  31.059  0.00  0.00     0.003 C 
BRANCH  11  12
ATOM     12  C   UNL d   1      56.845  -0.160  31.724  0.00  0.00     0.000 A 
ATOM     13  C   UNL d   1      56.641  -0.938  31.843  0.00  0.00     0.000 A 
ATOM     14  C   UNL d   1      56.236  -1.173  32.507  0.00  0.00     0.000 A 
ATOM     15  C   UNL d   1      56.028  -0.610  33.073  0.00  0.00     0.000 A 
ATOM     16  C   UNL d   1      56.229   0.176  32.963  0.00  0.00     0.000 A 
ATOM     17  C   UNL d   1      56.637   0.403  32.290  0.00  0.00     0.000 A 
ENDBRANCH  11  12
ENDBRANCH  10  11
ENDBRANCH   1  10
BRANCH   3  18
ATOM     18  C   UNL d   1      58.851  -1.325  29.356  0.00  0.00     0.082 C 
BRANCH  18  19
ATOM     19  C   UNL d   1      58.488  -2.051  29.526  0.00  0.00     0.019 C 
ATOM     20  C   UNL d   1      58.598  -2.687  29.019  0.00  0.00     0.002 C 
ENDBRANCH  18  19
ENDBRANCH   3  18
TORSDOF 5
ENDMDL
MODEL 2
REMARK VINA RESULT:      -3.6      1.328      4.622
REMARK  5 active torsions:
REMARK  status: ('A' for Active; 'I' for Inactive)
REMARK    1  A    between atoms: C_6  and  C_1 
REMARK    2  A    between atoms: C_8  and  N_3 
REMARK    3  A    between atoms: C_7  and  C_6 
REMARK    4  A    between atoms: C_9  and  C_7 
REMARK    5  A    between atoms: C_14  and  C_8 
ROOT
ATOM      1  C   UNL d   1      57.108  -0.882  31.447  0.00  0.00     0.148 A 
ATOM      2  N   UNL d   1      56.309  -1.164  31.790  0.00  0.00    -0.227 NA
ATOM      3  N   UNL d   1      57.402  -0.215  31.997  0.00  0.00    -0.289 N 
ATOM      4  C   UNL d   1      56.795  -0.082  32.675  0.00  0.00     0.083 A 
ATOM      5  C   UNL d   1      56.106  -0.680  32.545  0.00  0.00     0.099 A 
ATOM      6  C   UNL d   1      56.775   0.497  33.388  0.00  0.00     0.019 A 
ATOM      7  C   UNL d   1      55.413  -0.686  33.131  0.00  0.00     0.021 A 
ATOM      8  C   UNL d   1      56.071   0.472  33.960  0.00  0.00     0.002 A 
ATOM      9  C   UNL d   1      55.382  -0.126  33.829  0.00  0.00     0.002 A 
ENDROOT
BRANCH   1  10
ATOM     10  C   UNL d   1      57.703  -0.881  30.940  0.00  0.00     0.037 C 
BRANCH  10  11
ATOM     11  C   UNL d   1      57.690  -1.262  30.222  0.00  0.00     0.003 C 
BRANCH  11  12
ATOM     12  C   UNL d   1      58.336  -1.308  29.729  0.00  0.00     0.000 A 
ATOM     13  C   UNL d   1      58.583  -0.668  29.292  0.00  0.00     0.000 A 
ATOM     14  C   UNL d   1      59.228  -0.715  28.800  0.00  0.00     0.000 A 
ATOM     15  C   UNL d   1      59.640  -1.428  28.741  0.00  0.00     0.000 A 
ATOM     16  C   UNL d   1      59.399  -2.077  29.177  0.00  0.00     0.000 A 
ATOM     17  C   UNL d   1      58.748  -2.020  29.670  0.00  0.00     0.000 A 
ENDBRANCH  11  12
ENDBRANCH  10  11
ENDBRANCH   1  10
BRANCH   3  18
ATOM     18  C   UNL d   1      57.722   0.375  32.433  0.00  0.00     0.082 C 
BRANCH  18  19
ATOM     19  C   UNL d   1      58.458   0.682  32.205  0.00  0.00     0.019 C 
ATOM     20  C   UNL d   1      59.080   0.682  32.743  0.00  0.00     0.002 C 
ENDBRANCH  18  19
ENDBRANCH   3  18
TORSDOF 5
ENDMDL
MODEL 3
REMARK VINA RESULT:      -2.9      9.305      9.680
REMARK  5 active torsions:
REMARK  status: ('A' for Active; 'I' for Inactive)
REMARK    1  A    between atoms: C_6  and  C_1 
REMARK    2  A    between atoms: C_8  and  N_3 
REMARK    3  A    between atoms: C_7  and  C_6 
REMARK    4  A    between atoms: C_9  and  C_7 
REMARK    5  A    between atoms: C_14  and  C_8 
ROOT
ATOM      1  C   UNL d   1      60.336  -9.650  32.243  0.00  0.00     0.148 A 
ATOM      2  N   UNL d   1      60.908  -9.602  31.531  0.00  0.00    -0.227 NA
ATOM      3  N   UNL d   1      59.498  -9.738  31.893  0.00  0.00    -0.289 N 
ATOM      4  C   UNL d   1      59.545  -9.745  30.974  0.00  0.00     0.083 A 
ATOM      5  C   UNL d   1      60.434  -9.660  30.746  0.00  0.00     0.099 A 
ATOM      6  C   UNL d   1      58.906  -9.818  30.319  0.00  0.00     0.019 A 
ATOM      7  C   UNL d   1      60.663  -9.648  29.868  0.00  0.00     0.021 A 
ATOM      8  C   UNL d   1      59.160  -9.803  29.448  0.00  0.00     0.002 A 
ATOM      9  C   UNL d   1      60.048  -9.718  29.220  0.00  0.00     0.002 A 
ENDROOT
BRANCH   1  10
ATOM     10  C   UNL d   1      60.145  -9.659  33.000  0.00  0.00     0.037 C 
BRANCH  10  11
ATOM     11  C   UNL d   1      60.621  -9.377  33.595  0.00  0.00     0.003 C 
BRANCH  11  12
ATOM     12  C   UNL d   1      60.375  -9.299  34.367  0.00  0.00     0.000 A 
ATOM     13  C   UNL d   1      59.847  -8.722  34.588  0.00  0.00     0.000 A 
ATOM     14  C   UNL d   1      59.602  -8.644  35.359  0.00  0.00     0.000 A 
ATOM     15  C   UNL d   1      59.895  -9.163  35.930  0.00  0.00     0.000 A 
ATOM     16  C   UNL d   1      60.427  -9.747  35.717  0.00  0.00     0.000 A 
ATOM     17  C   UNL d   1      60.669  -9.818  34.938  0.00  0.00     0.000 A 
ENDBRANCH  11  12
ENDBRANCH  10  11
ENDBRANCH   1  10
BRANCH   3  18
ATOM     18  C   UNL d   1      58.737  -9.817  31.659  0.00  0.00     0.082 C 
BRANCH  18  19
ATOM     19  C   UNL d   1      58.136  -9.692  32.216  0.00  0.00     0.019 C 
ATOM     20  C   UNL d   1      57.350  -9.769  31.987  0.00  0.00     0.002 C 
ENDBRANCH  18  19
ENDBRANCH   3  18
TORSDOF 5
ENDMDL
MODEL 4
REMARK VINA RESULT:      -2.9      1.156      4.355
REMARK  5 active torsions:
REMARK  status: ('A' for Active; 'I' for Inactive)
REMARK    1  A    between atoms: C_6  and  C_1 
REMARK    2  A    between atoms: C_8  and  N_3 
REMARK    3  A    between atoms: C_7  and  C_6 
REMARK    4  A    between atoms: C_9  and  C_7 
REMARK    5  A    between atoms: C_14  and  C_8 
ROOT
ATOM      1  C   UNL d   1      57.618  -1.148  30.687  0.00  0.00     0.148 A 
ATOM      2  N   UNL d   1      56.898  -1.430  31.175  0.00  0.00    -0.227 NA
ATOM      3  N   UNL d   1      57.882  -0.355  31.055  0.00  0.00    -0.289 N 
ATOM      4  C   UNL d   1      57.333  -0.144  31.763  0.00  0.00     0.083 A 
ATOM      5  C   UNL d   1      56.714  -0.822  31.839  0.00  0.00     0.099 A 
ATOM      6  C   UNL d   1      57.314   0.566  32.345  0.00  0.00     0.019 A 
ATOM      7  C   UNL d   1      56.088  -0.773  32.494  0.00  0.00     0.021 A 
ATOM      8  C   UNL d   1      56.679   0.592  32.992  0.00  0.00     0.002 A 
ATOM      9  C   UNL d   1      56.059  -0.085  33.067  0.00  0.00     0.002 A 
ENDROOT
BRANCH   1  10
ATOM     10  C   UNL d   1      58.155  -1.195  30.122  0.00  0.00     0.037 C 
BRANCH  10  11
ATOM     11  C   UNL d   1      58.146  -1.751  29.529  0.00  0.00     0.003 C 
BRANCH  11  12
ATOM     12  C   UNL d   1      58.820  -2.068  29.202  0.00  0.00     0.000 A 
ATOM     13  C   UNL d   1      58.933  -2.872  29.159  0.00  0.00     0.000 A 
ATOM     14  C   UNL d   1      59.607  -3.187  28.831  0.00  0.00     0.000 A 
ATOM     15  C   UNL d   1      60.188  -2.681  28.536  0.00  0.00     0.000 A 
ATOM     16  C   UNL d   1      60.083  -1.871  28.575  0.00  0.00     0.000 A 
ATOM     17  C   UNL d   1      59.401  -1.562  28.907  0.00  0.00     0.000 A 
ENDBRANCH  11  12
ENDBRANCH  10  11
ENDBRANCH   1  10
BRANCH   3  18
ATOM     18  C   UNL d   1      58.169   0.342  31.324  0.00  0.00     0.082 C 
BRANCH  18  19
ATOM     19  C   UNL d   1      58.827   0.672  30.943  0.00  0.00     0.019 C 
ATOM     20  C   UNL d   1      59.555   0.678  31.326  0.00  0.00     0.002 C 
ENDBRANCH  18  19
ENDBRANCH   3  18
TORSDOF 5
ENDMDL
MODEL 5
REMARK VINA RESULT:      -2.8      1.753      4.999
REMARK  5 active torsions:
REMARK  status: ('A' for Active; 'I' for Inactive)
REMARK    1  A    between atoms: C_6  and  C_1 
REMARK    2  A    between atoms: C_8  and  N_3 
REMARK    3  A    between atoms: C_7  and  C_6 
REMARK    4  A    between atoms: C_9  and  C_7 
REMARK    5  A    between atoms: C_14  and  C_8 
ROOT
ATOM      1  C   UNL d   1      56.654   0.012  32.133  0.00  0.00     0.148 A 
ATOM      2  N   UNL d   1      55.750  -0.067  32.243  0.00  0.00    -0.227 NA
ATOM      3  N   UNL d   1      56.988   0.277  32.940  0.00  0.00    -0.289 N 
ATOM      4  C   UNL d   1      56.301   0.361  33.547  0.00  0.00     0.083 A 
ATOM      5  C   UNL d   1      55.522   0.145  33.108  0.00  0.00     0.099 A 
ATOM      6  C   UNL d   1      56.281   0.605  34.433  0.00  0.00     0.019 A 
ATOM      7  C   UNL d   1      54.738   0.176  33.563  0.00  0.00     0.021 A 
ATOM      8  C   UNL d   1      55.484   0.628  34.867  0.00  0.00     0.002 A 
ATOM      9  C   UNL d   1      54.704   0.411  34.427  0.00  0.00     0.002 A 
ENDROOT
BRANCH   1  10
ATOM     10  C   UNL d   1      57.326  -0.016  31.736  0.00  0.00     0.037 C 
BRANCH  10  11
ATOM     11  C   UNL d   1      57.403  -0.333  30.992  0.00  0.00     0.003 C 
BRANCH  11  12
ATOM     12  C   UNL d   1      57.929  -0.052  30.438  0.00  0.00     0.000 A 
ATOM     13  C   UNL d   1      57.677   0.353  29.780  0.00  0.00     0.000 A 
ATOM     14  C   UNL d   1      58.203   0.633  29.227  0.00  0.00     0.000 A 
ATOM     15  C   UNL d   1      59.010   0.503  29.335  0.00  0.00     0.000 A 
ATOM     16  C   UNL d   1      59.274   0.096  29.994  0.00  0.00     0.000 A 
ATOM     17  C   UNL d   1      58.737  -0.183  30.546  0.00  0.00     0.000 A 
ENDBRANCH  11  12
ENDBRANCH  10  11
ENDBRANCH   1  10
BRANCH   3  18
ATOM     18  C   UNL d   1      57.351   0.508  33.615  0.00  0.00     0.082 C 
BRANCH  18  19
ATOM     19  C   UNL d   1      58.163   0.673  33.592  0.00  0.00     0.019 C 
ATOM     20  C   UNL d   1      58.617   0.570  34.270  0.00  0.00     0.002 C 
ENDBRANCH  18  19
ENDBRANCH   3  18
TORSDOF 5
ENDMDL
