MODEL 1
REMARK VINA RESULT:      -8.8      0.000      0.000
REMARK  4 active torsions:
REMARK  status: ('A' for Active; 'I' for Inactive)
REMARK    1  A    between atoms: C_2  and  C_1 
REMARK    2  A    between atoms: C_3  and  C_2 
REMARK    3  A    between atoms: C_5  and  C_3 
REMARK    4  A    between atoms: C_13  and  C_5 
ROOT
ATOM      1  C   UNL d   1      53.573  31.650  53.780  0.00  0.00     0.042 C 
ENDROOT
BRANCH   1   2
ATOM      2  C   UNL d   1      53.863  30.953  53.448  0.00  0.00     0.199 C 
ATOM      3  O   UNL d   1      54.548  30.958  53.006  0.00  0.00    -0.286 OA
BRANCH   2   4
ATOM      4  C   UNL d   1      53.454  30.255  53.566  0.00  0.00     0.078 A 
ATOM      5  C   UNL d   1      52.886  29.988  53.050  0.00  0.00     0.199 A 
ATOM      6  C   UNL d   1      52.488  29.299  53.176  0.00  0.00     0.042 A 
ATOM      7  O   UNL d   1      52.707  30.476  52.337  0.00  0.00    -0.286 OA
ATOM      8  C   UNL d   1      52.633  28.831  53.824  0.00  0.00     0.003 A 
ATOM      9  C   UNL d   1      53.186  29.064  54.352  0.00  0.00     0.000 A 
ATOM     10  C   UNL d   1      53.604  29.772  54.235  0.00  0.00     0.006 A 
ATOM     11  C   UNL d   1      53.393  28.728  54.957  0.00  0.00     0.000 C 
ENDBRANCH   2   4
ENDBRANCH   1   2
BRANCH   1  12
ATOM     12  C   UNL d   1      54.167  32.234  53.796  0.00  0.00     0.003 C 
BRANCH  12  13
ATOM     13  C   UNL d   1      53.962  33.039  54.141  0.00  0.00     0.002 A 
ATOM     14  C   UNL d   1      53.469  33.550  53.783  0.00  0.00     0.027 A 
ATOM     15  C   UNL d   1      53.293  34.283  54.116  0.00  0.00     0.123 A 
ATOM     16  O   UNL d   1      52.762  34.837  53.731  0.00  0.00    -0.301 OA
ATOM     17  C   UNL d   1      53.632  34.535  54.867  0.00  0.00     0.123 A 
ATOM     18  C   UNL d   1      52.576  35.568  54.045  0.00  0.00     0.149 A 
ATOM     19  C   UNL d   1      52.929  35.818  54.818  0.00  0.00     0.149 A 
ATOM     20  O   UNL d   1      53.438  35.300  55.198  0.00  0.00    -0.301 OA
ATOM     21  C   UNL d   1      54.155  34.005  55.258  0.00  0.00     0.027 A 
ATOM     22  C   UNL d   1      54.324  33.277  54.919  0.00  0.00     0.002 A 
ENDBRANCH  12  13
ENDBRANCH   1  12
TORSDOF 4
ENDMDL
MODEL 2
REMARK VINA RESULT:      -8.2      2.690      3.501
REMARK  4 active torsions:
REMARK  status: ('A' for Active; 'I' for Inactive)
REMARK    1  A    between atoms: C_2  and  C_1 
REMARK    2  A    between atoms: C_3  and  C_2 
REMARK    3  A    between atoms: C_5  and  C_3 
REMARK    4  A    between atoms: C_13  and  C_5 
ROOT
ATOM      1  C   UNL d   1      52.091  32.998  52.969  0.00  0.00     0.042 C 
ENDROOT
BRANCH   1   2
ATOM      2  C   UNL d   1      52.877  32.751  52.923  0.00  0.00     0.199 C 
ATOM      3  O   UNL d   1      53.442  33.230  52.583  0.00  0.00    -0.286 OA
BRANCH   2   4
ATOM      4  C   UNL d   1      53.083  32.019  53.225  0.00  0.00     0.078 A 
ATOM      5  C   UNL d   1      53.573  31.934  53.867  0.00  0.00     0.199 A 
ATOM      6  C   UNL d   1      53.770  31.208  54.156  0.00  0.00     0.042 A 
ATOM      7  O   UNL d   1      53.891  32.662  54.250  0.00  0.00    -0.286 OA
ATOM      8  C   UNL d   1      53.492  30.521  53.823  0.00  0.00     0.003 A 
ATOM      9  C   UNL d   1      53.007  30.570  53.189  0.00  0.00     0.000 A 
ATOM     10  C   UNL d   1      52.795  31.312  52.880  0.00  0.00     0.006 A 
ATOM     11  C   UNL d   1      52.704  30.029  52.818  0.00  0.00     0.000 C 
ENDBRANCH   2   4
ENDBRANCH   1   2
BRANCH   1  12
ATOM     12  C   UNL d   1      51.993  33.730  52.584  0.00  0.00     0.003 C 
BRANCH  12  13
ATOM     13  C   UNL d   1      51.161  34.064  52.514  0.00  0.00     0.002 A 
ATOM     14  C   UNL d   1      50.750  34.062  51.833  0.00  0.00     0.027 A 
ATOM     15  C   UNL d   1      49.988  34.373  51.790  0.00  0.00     0.123 A 
ATOM     16  O   UNL d   1      49.542  34.372  51.057  0.00  0.00    -0.301 OA
ATOM     17  C   UNL d   1      49.597  34.717  52.477  0.00  0.00     0.123 A 
ATOM     18  C   UNL d   1      48.786  34.676  50.993  0.00  0.00     0.149 A 
ATOM     19  C   UNL d   1      48.391  35.027  51.705  0.00  0.00     0.149 A 
ATOM     20  O   UNL d   1      48.805  35.036  52.413  0.00  0.00    -0.301 OA
ATOM     21  C   UNL d   1      50.019  34.726  53.204  0.00  0.00     0.027 A 
ATOM     22  C   UNL d   1      50.777  34.414  53.237  0.00  0.00     0.002 A 
ENDBRANCH  12  13
ENDBRANCH   1  12
TORSDOF 4
ENDMDL
MODEL 3
REMARK VINA RESULT:      -7.9      1.127      4.898
REMARK  4 active torsions:
REMARK  status: ('A' for Active; 'I' for Inactive)
REMARK    1  A    between atoms: C_2  and  C_1 
REMARK    2  A    between atoms: C_3  and  C_2 
REMARK    3  A    between atoms: C_5  and  C_3 
REMARK    4  A    between atoms: C_13  and  C_5 
ROOT
ATOM      1  C   UNL d   1      53.528  32.564  53.887  0.00  0.00     0.042 C 
ENDROOT
BRANCH   1   2
ATOM      2  C   UNL d   1      53.825  33.308  53.686  0.00  0.00     0.199 C 
ATOM      3  O   UNL d   1      54.567  33.383  53.358  0.00  0.00    -0.286 OA
BRANCH   2   4
ATOM      4  C   UNL d   1      53.364  33.970  53.819  0.00  0.00     0.078 A 
ATOM      5  C   UNL d   1      53.520  34.499  54.415  0.00  0.00     0.199 A 
ATOM      6  C   UNL d   1      53.059  35.148  54.538  0.00  0.00     0.042 A 
ATOM      7  O   UNL d   1      54.215  34.347  54.936  0.00  0.00    -0.286 OA
ATOM      8  C   UNL d   1      52.413  35.312  54.073  0.00  0.00     0.003 A 
ATOM      9  C   UNL d   1      52.231  34.811  53.476  0.00  0.00     0.000 A 
ATOM     10  C   UNL d   1      52.697  34.137  53.338  0.00  0.00     0.006 A 
ATOM     11  C   UNL d   1      51.685  34.859  53.007  0.00  0.00     0.000 C 
ENDBRANCH   2   4
ENDBRANCH   1   2
BRANCH   1  12
ATOM     12  C   UNL d   1      53.845  31.979  53.386  0.00  0.00     0.003 C 
BRANCH  12  13
ATOM     13  C   UNL d   1      53.572  31.130  53.499  0.00  0.00     0.002 A 
ATOM     14  C   UNL d   1      53.723  30.711  54.158  0.00  0.00     0.027 A 
ATOM     15  C   UNL d   1      53.463  29.934  54.243  0.00  0.00     0.123 A 
ATOM     16  O   UNL d   1      53.625  29.480  54.953  0.00  0.00    -0.301 OA
ATOM     17  C   UNL d   1      53.015  29.534  53.625  0.00  0.00     0.123 A 
ATOM     18  C   UNL d   1      53.376  28.708  55.055  0.00  0.00     0.149 A 
ATOM     19  C   UNL d   1      52.916  28.304  54.415  0.00  0.00     0.149 A 
ATOM     20  O   UNL d   1      52.753  28.726  53.730  0.00  0.00    -0.301 OA
ATOM     21  C   UNL d   1      52.847  29.964  52.922  0.00  0.00     0.027 A 
ATOM     22  C   UNL d   1      53.110  30.738  52.847  0.00  0.00     0.002 A 
ENDBRANCH  12  13
ENDBRANCH   1  12
TORSDOF 4
ENDMDL
MODEL 4
REMARK VINA RESULT:      -7.8      3.605      5.312
REMARK  4 active torsions:
REMARK  status: ('A' for Active; 'I' for Inactive)
REMARK    1  A    between atoms: C_2  and  C_1 
REMARK    2  A    between atoms: C_3  and  C_2 
REMARK    3  A    between atoms: C_5  and  C_3 
REMARK    4  A    between atoms: C_13  and  C_5 
ROOT
ATOM      1  C   UNL d   1      50.643  34.359  52.735  0.00  0.00     0.042 C 
ENDROOT
BRANCH   1   2
ATOM      2  C   UNL d   1      51.398  34.081  52.549  0.00  0.00     0.199 C 
ATOM      3  O   UNL d   1      51.568  33.822  51.795  0.00  0.00    -0.286 OA
BRANCH   2   4
ATOM      4  C   UNL d   1      51.973  34.069  53.129  0.00  0.00     0.078 A 
ATOM      5  C   UNL d   1      52.257  33.378  53.448  0.00  0.00     0.199 A 
ATOM      6  C   UNL d   1      52.824  33.376  54.021  0.00  0.00     0.042 A 
ATOM      7  O   UNL d   1      51.928  32.615  53.152  0.00  0.00    -0.286 OA
ATOM      8  C   UNL d   1      53.144  34.064  54.312  0.00  0.00     0.003 A 
ATOM      9  C   UNL d   1      52.887  34.762  54.019  0.00  0.00     0.000 A 
ATOM     10  C   UNL d   1      52.302  34.779  53.429  0.00  0.00     0.006 A 
ATOM     11  C   UNL d   1      53.100  35.427  54.203  0.00  0.00     0.000 C 
ENDBRANCH   2   4
ENDBRANCH   1   2
BRANCH   1  12
ATOM     12  C   UNL d   1      50.160  34.367  52.057  0.00  0.00     0.003 C 
BRANCH  12  13
ATOM     13  C   UNL d   1      49.367  34.789  52.106  0.00  0.00     0.002 A 
ATOM     14  C   UNL d   1      49.133  35.195  52.748  0.00  0.00     0.027 A 
ATOM     15  C   UNL d   1      48.402  35.575  52.773  0.00  0.00     0.123 A 
ATOM     16  O   UNL d   1      48.146  36.014  53.465  0.00  0.00    -0.301 OA
ATOM     17  C   UNL d   1      47.855  35.554  52.108  0.00  0.00     0.123 A 
ATOM     18  C   UNL d   1      47.426  36.398  53.509  0.00  0.00     0.149 A 
ATOM     19  C   UNL d   1      46.869  36.371  52.820  0.00  0.00     0.149 A 
ATOM     20  O   UNL d   1      47.100  35.955  52.152  0.00  0.00    -0.301 OA
ATOM     21  C   UNL d   1      48.089  35.129  51.421  0.00  0.00     0.027 A 
ATOM     22  C   UNL d   1      48.818  34.753  51.406  0.00  0.00     0.002 A 
ENDBRANCH  12  13
ENDBRANCH   1  12
TORSDOF 4
ENDMDL
MODEL 5
REMARK VINA RESULT:      -7.6      2.374      4.957
REMARK  4 active torsions:
REMARK  status: ('A' for Active; 'I' for Inactive)
REMARK    1  A    between atoms: C_2  and  C_1 
REMARK    2  A    between atoms: C_3  and  C_2 
REMARK    3  A    between atoms: C_5  and  C_3 
REMARK    4  A    between atoms: C_13  and  C_5 
ROOT
ATOM      1  C   UNL d   1      51.643  33.458  52.816  0.00  0.00     0.042 C 
ENDROOT
BRANCH   1   2
ATOM      2  C   UNL d   1      51.455  34.208  52.525  0.00  0.00     0.199 C 
ATOM      3  O   UNL d   1      52.043  34.751  52.370  0.00  0.00    -0.286 OA
BRANCH   2   4
ATOM      4  C   UNL d   1      50.671  34.400  52.394  0.00  0.00     0.078 A 
ATOM      5  C   UNL d   1      50.214  34.773  52.952  0.00  0.00     0.199 A 
ATOM      6  C   UNL d   1      49.442  34.957  52.814  0.00  0.00     0.042 A 
ATOM      7  O   UNL d   1      50.583  34.976  53.727  0.00  0.00    -0.286 OA
ATOM      8  C   UNL d   1      49.077  34.782  52.109  0.00  0.00     0.003 A 
ATOM      9  C   UNL d   1      49.499  34.414  51.538  0.00  0.00     0.000 A 
ATOM     10  C   UNL d   1      50.296  34.217  51.667  0.00  0.00     0.006 A 
ATOM     11  C   UNL d   1      49.277  34.213  50.881  0.00  0.00     0.000 C 
ENDBRANCH   2   4
ENDBRANCH   1   2
BRANCH   1  12
ATOM     12  C   UNL d   1      52.457  33.307  52.725  0.00  0.00     0.003 C 
BRANCH  12  13
ATOM     13  C   UNL d   1      52.783  32.532  53.045  0.00  0.00     0.002 A 
ATOM     14  C   UNL d   1      52.469  31.824  52.864  0.00  0.00     0.027 A 
ATOM     15  C   UNL d   1      52.782  31.124  53.168  0.00  0.00     0.123 A 
ATOM     16  O   UNL d   1      52.446  30.359  52.974  0.00  0.00    -0.301 OA
ATOM     17  C   UNL d   1      53.463  31.123  53.697  0.00  0.00     0.123 A 
ATOM     18  C   UNL d   1      52.742  29.655  53.265  0.00  0.00     0.149 A 
ATOM     19  C   UNL d   1      53.442  29.662  53.808  0.00  0.00     0.149 A 
ATOM     20  O   UNL d   1      53.774  30.386  54.003  0.00  0.00    -0.301 OA
ATOM     21  C   UNL d   1      53.804  31.864  53.898  0.00  0.00     0.027 A 
ATOM     22  C   UNL d   1      53.486  32.554  53.590  0.00  0.00     0.002 A 
ENDBRANCH  12  13
ENDBRANCH   1  12
TORSDOF 4
ENDMDL
MODEL 6
REMARK VINA RESULT:      -7.2      3.130      5.228
REMARK  4 active torsions:
REMARK  status: ('A' for Active; 'I' for Inactive)
REMARK    1  A    between atoms: C_2  and  C_1 
REMARK    2  A    between atoms: C_3  and  C_2 
REMARK    3  A    between atoms: C_5  and  C_3 
REMARK    4  A    between atoms: C_13  and  C_5 
ROOT
ATOM      1  C   UNL d   1      50.472  34.512  52.749  0.00  0.00     0.042 C 
ENDROOT
BRANCH   1   2
ATOM      2  C   UNL d   1      49.918  34.530  52.136  0.00  0.00     0.199 C 
ATOM      3  O   UNL d   1      50.069  34.147  51.432  0.00  0.00    -0.286 OA
BRANCH   2   4
ATOM      4  C   UNL d   1      49.217  34.936  52.244  0.00  0.00     0.078 A 
ATOM      5  C   UNL d   1      48.649  34.988  51.666  0.00  0.00     0.199 A 
ATOM      6  C   UNL d   1      47.961  35.390  51.782  0.00  0.00     0.042 A 
ATOM      7  O   UNL d   1      48.801  34.588  50.894  0.00  0.00    -0.286 OA
ATOM      8  C   UNL d   1      47.795  35.768  52.482  0.00  0.00     0.003 A 
ATOM      9  C   UNL d   1      48.334  35.736  53.073  0.00  0.00     0.000 A 
ATOM     10  C   UNL d   1      49.048  35.324  52.967  0.00  0.00     0.006 A 
ATOM     11  C   UNL d   1      48.291  36.032  53.730  0.00  0.00     0.000 C 
ENDBRANCH   2   4
ENDBRANCH   1   2
BRANCH   1  12
ATOM     12  C   UNL d   1      51.190  34.184  52.483  0.00  0.00     0.003 C 
BRANCH  12  13
ATOM     13  C   UNL d   1      51.881  34.155  53.058  0.00  0.00     0.002 A 
ATOM     14  C   UNL d   1      52.181  33.475  53.339  0.00  0.00     0.027 A 
ATOM     15  C   UNL d   1      52.815  33.470  53.865  0.00  0.00     0.123 A 
ATOM     16  O   UNL d   1      53.142  32.737  54.170  0.00  0.00    -0.301 OA
ATOM     17  C   UNL d   1      53.186  34.198  54.139  0.00  0.00     0.123 A 
ATOM     18  C   UNL d   1      53.770  32.711  54.692  0.00  0.00     0.149 A 
ATOM     19  C   UNL d   1      54.145  33.465  54.968  0.00  0.00     0.149 A 
ATOM     20  O   UNL d   1      53.844  34.173  54.686  0.00  0.00    -0.301 OA
ATOM     21  C   UNL d   1      52.879  34.926  53.850  0.00  0.00     0.027 A 
ATOM     22  C   UNL d   1      52.247  34.921  53.326  0.00  0.00     0.002 A 
ENDBRANCH  12  13
ENDBRANCH   1  12
TORSDOF 4
ENDMDL
