MODEL 1
REMARK VINA RESULT:      -4.7      0.000      0.000
REMARK  5 active torsions:
REMARK  status: ('A' for Active; 'I' for Inactive)
REMARK    1  A    between atoms: O_8  and  S_1 
REMARK    2  A    between atoms: C_9  and  S_1 
REMARK    3  A    between atoms: C_7  and  C_2 
REMARK    4  A    between atoms: C_20  and  C_7 
REMARK    5  A    between atoms: C_14  and  O_8 
ROOT
ATOM      1  C   UNL d   1      59.958  -1.299  28.941  0.00  0.00     0.139 A 
ATOM      2  C   UNL d   1      59.724  -0.281  29.763  0.00  0.00     0.064 A 
ATOM      3  C   UNL d   1      60.318  -0.705  29.386  0.00  0.00     0.220 A 
ATOM      4  C   UNL d   1      58.995  -0.607  29.555  0.00  0.00     0.105 A 
ATOM      5  O   UNL d   1      59.141  -1.239  29.044  0.00  0.00    -0.304 OA
ATOM      6  C   UNL d   1      58.308  -0.287  29.855  0.00  0.00     0.050 A 
ATOM      7  C   UNL d   1      59.755   0.365  30.273  0.00  0.00     0.007 A 
ATOM      8  C   UNL d   1      58.340   0.359  30.365  0.00  0.00     0.116 A 
ATOM      9  O   UNL d   1      61.130  -0.570  29.438  0.00  0.00    -0.284 OA
ATOM     10  C   UNL d   1      59.061   0.682  30.571  0.00  0.00     0.026 A 
ENDROOT
BRANCH   8  11
ATOM     11  O   UNL d   1      57.644   0.678  30.666  0.00  0.00    -0.227 OA
BRANCH  11  12
ATOM     12  S   UNL d   1      57.266   0.318  31.304  0.00  0.00     0.304 S 
ATOM     13  O   UNL d   1      56.698   0.024  30.803  0.00  0.00    -0.193 OA
ATOM     14  O   UNL d   1      57.834   0.609  31.821  0.00  0.00    -0.193 OA
BRANCH  12  15
ATOM     15  C   UNL d   1      56.881  -0.048  31.947  0.00  0.00     0.111 A 
ATOM     16  C   UNL d   1      56.821   0.352  32.669  0.00  0.00     0.014 A 
ATOM     17  C   UNL d   1      56.440  -0.010  33.305  0.00  0.00     0.012 A 
ATOM     18  C   UNL d   1      56.118  -0.771  33.220  0.00  0.00     0.058 A 
ATOM     19  C   UNL d   1      56.184  -1.161  32.491  0.00  0.00     0.012 A 
ATOM     20 CL   UNL d   1      55.743  -1.127  33.846  0.00  0.00    -0.082 Cl
ATOM     21  C   UNL d   1      56.566  -0.796  31.857  0.00  0.00     0.014 A 
ENDBRANCH  12  15
ENDBRANCH  11  12
ENDBRANCH   8  11
BRANCH   1  22
ATOM     22  C   UNL d   1      60.342  -1.858  28.471  0.00  0.00     0.029 C 
BRANCH  22  23
ATOM     23  C   UNL d   1      60.296  -2.665  28.654  0.00  0.00     0.021 A 
ATOM     24  C   UNL d   1      60.929  -3.026  29.030  0.00  0.00     0.099 A 
ATOM     25  N   UNL d   1      60.897  -3.823  29.217  0.00  0.00    -0.242 NA
ATOM     26  C   UNL d   1      60.218  -4.267  29.023  0.00  0.00     0.099 A 
ATOM     27  C   UNL d   1      59.583  -3.898  28.644  0.00  0.00     0.021 A 
ATOM     28  C   UNL d   1      59.629  -3.093  28.461  0.00  0.00     0.003 A 
ENDBRANCH  22  23
ENDBRANCH   1  22
TORSDOF 5
ENDMDL
MODEL 2
REMARK VINA RESULT:      -2.6      2.807      5.699
REMARK  5 active torsions:
REMARK  status: ('A' for Active; 'I' for Inactive)
REMARK    1  A    between atoms: O_8  and  S_1 
REMARK    2  A    between atoms: C_9  and  S_1 
REMARK    3  A    between atoms: C_7  and  C_2 
REMARK    4  A    between atoms: C_20  and  C_7 
REMARK    5  A    between atoms: C_14  and  O_8 
ROOT
ATOM      1  C   UNL d   1      56.281  -0.568  33.341  0.00  0.00     0.139 A 
ATOM      2  C   UNL d   1      56.650  -0.774  32.080  0.00  0.00     0.064 A 
ATOM      3  C   UNL d   1      56.285  -1.122  32.728  0.00  0.00     0.220 A 
ATOM      4  C   UNL d   1      56.874  -0.006  32.284  0.00  0.00     0.105 A 
ATOM      5  O   UNL d   1      56.645   0.121  33.067  0.00  0.00    -0.304 OA
ATOM      6  C   UNL d   1      57.251   0.464  31.735  0.00  0.00     0.050 A 
ATOM      7  C   UNL d   1      56.808  -1.062  31.324  0.00  0.00     0.007 A 
ATOM      8  C   UNL d   1      57.409   0.176  30.980  0.00  0.00     0.116 A 
ATOM      9  O   UNL d   1      55.975  -1.884  32.771  0.00  0.00    -0.284 OA
ATOM     10  C   UNL d   1      57.187  -0.584  30.778  0.00  0.00     0.026 A 
ENDROOT
BRANCH   8  11
ATOM     11  O   UNL d   1      57.790   0.655  30.430  0.00  0.00    -0.227 OA
BRANCH  11  12
ATOM     12  S   UNL d   1      58.461   0.379  30.037  0.00  0.00     0.304 S 
ATOM     13  O   UNL d   1      57.997   0.136  29.415  0.00  0.00    -0.193 OA
ATOM     14  O   UNL d   1      58.940   0.620  30.659  0.00  0.00    -0.193 OA
BRANCH  12  15
ATOM     15  C   UNL d   1      59.137   0.099  29.636  0.00  0.00     0.111 A 
ATOM     16  C   UNL d   1      59.889   0.293  29.921  0.00  0.00     0.014 A 
ATOM     17  C   UNL d   1      60.558   0.016  29.525  0.00  0.00     0.012 A 
ATOM     18  C   UNL d   1      60.475  -0.453  28.845  0.00  0.00     0.058 A 
ATOM     19  C   UNL d   1      59.715  -0.640  28.570  0.00  0.00     0.012 A 
ATOM     20 CL   UNL d   1      61.133  -0.725  28.455  0.00  0.00    -0.082 Cl
ATOM     21  C   UNL d   1      59.048  -0.362  28.968  0.00  0.00     0.014 A 
ENDBRANCH  12  15
ENDBRANCH  11  12
ENDBRANCH   8  11
BRANCH   1  22
ATOM     22  C   UNL d   1      55.970  -0.678  34.096  0.00  0.00     0.029 C 
BRANCH  22  23
ATOM     23  C   UNL d   1      55.328  -0.225  34.357  0.00  0.00     0.021 A 
ATOM     24  C   UNL d   1      55.402   0.213  35.046  0.00  0.00     0.099 A 
ATOM     25  N   UNL d   1      54.774   0.666  35.316  0.00  0.00    -0.242 NA
ATOM     26  C   UNL d   1      54.059   0.681  34.887  0.00  0.00     0.099 A 
ATOM     27  C   UNL d   1      53.989   0.237  34.193  0.00  0.00     0.021 A 
ATOM     28  C   UNL d   1      54.631  -0.216  33.933  0.00  0.00     0.003 A 
ENDBRANCH  22  23
ENDBRANCH   1  22
TORSDOF 5
ENDMDL
