MODEL 1
REMARK VINA RESULT:      -2.9      0.000      0.000
REMARK  9 active torsions:
REMARK  status: ('A' for Active; 'I' for Inactive)
REMARK       I    between atoms: C_9  and  N_1 
REMARK       I    between atoms: N_2  and  C_10 
REMARK    1  A    between atoms: C_17  and  C_9 
REMARK    2  A    between atoms: C_10  and  C_18 
REMARK    3  A    between atoms: C_21  and  C_17 
REMARK    4  A    between atoms: C_18  and  C_22 
REMARK    5  A    between atoms: C_24  and  C_21 
REMARK    6  A    between atoms: C_22  and  C_23 
REMARK    7  A    between atoms: C_23  and  C_26 
REMARK    8  A    between atoms: C_25  and  C_24 
REMARK    9  A    between atoms: C_26  and  C_25 
ROOT
ATOM      1  C   UNL d   1      58.203  -0.316  30.506  0.00  0.00     0.000 C 
ENDROOT
BRANCH   1   2
ATOM      2  C   UNL d   1      58.381  -0.723  29.801  0.00  0.00     0.000 C 
BRANCH   2   3
ATOM      3  C   UNL d   1      59.149  -0.987  29.665  0.00  0.00     0.005 C 
BRANCH   3   4
ATOM      4  C   UNL d   1      59.282  -1.637  29.175  0.00  0.00     0.063 C 
BRANCH   4   5
ATOM      5  C   UNL d   1      59.984  -2.064  29.241  0.00  0.00     0.280 C 
ATOM      6  N   UNL d   1      60.012  -2.852  29.003  0.00  0.00    -0.195 N 
ATOM      7  N   UNL d   1      60.711  -3.281  29.068  0.00  0.00    -0.163 NA
ATOM      8  C   UNL d   1      59.441  -3.354  28.684  0.00  0.00     0.088 A 
ATOM      9  C   UNL d   1      60.575  -4.044  28.791  0.00  0.00     0.103 A 
ATOM     10  C   UNL d   1      61.131  -4.657  28.758  0.00  0.00     0.022 C 
ATOM     11  C   UNL d   1      59.787  -4.085  28.555  0.00  0.00     0.040 A 
ATOM     12  C   UNL d   1      58.657  -3.153  28.525  0.00  0.00     0.021 C 
ATOM     13  O   UNL d   1      60.667  -1.710  29.545  0.00  0.00    -0.265 OA
ENDBRANCH   4   5
ENDBRANCH   3   4
ENDBRANCH   2   3
ENDBRANCH   1   2
BRANCH   1  14
ATOM     14  C   UNL d   1      57.415  -0.183  30.710  0.00  0.00     0.000 C 
BRANCH  14  15
ATOM     15  C   UNL d   1      57.225   0.358  31.313  0.00  0.00     0.000 C 
BRANCH  15  16
ATOM     16  C   UNL d   1      56.557   0.244  31.779  0.00  0.00     0.005 C 
BRANCH  16  17
ATOM     17  C   UNL d   1      56.584   0.407  32.588  0.00  0.00     0.063 C 
BRANCH  17  18
ATOM     18  C   UNL d   1      55.899   0.376  33.040  0.00  0.00     0.280 C 
ATOM     19  N   UNL d   1      55.935   0.476  33.858  0.00  0.00    -0.195 N 
ATOM     20  N   UNL d   1      55.300   0.460  34.383  0.00  0.00    -0.163 NA
ATOM     21  C   UNL d   1      56.622   0.612  34.306  0.00  0.00     0.088 A 
ATOM     22  C   UNL d   1      55.587   0.584  35.146  0.00  0.00     0.103 A 
ATOM     23  C   UNL d   1      55.132   0.609  35.836  0.00  0.00     0.022 C 
ATOM     24  C   UNL d   1      56.408   0.678  35.095  0.00  0.00     0.040 A 
ATOM     25  C   UNL d   1      57.393   0.670  34.001  0.00  0.00     0.021 C 
ATOM     26  O   UNL d   1      55.170   0.245  32.674  0.00  0.00    -0.265 OA
ENDBRANCH  17  18
ENDBRANCH  16  17
ENDBRANCH  15  16
ENDBRANCH  14  15
ENDBRANCH   1  14
TORSDOF 9
ENDMDL
MODEL 2
REMARK VINA RESULT:      -2.7      0.781      6.742
REMARK  9 active torsions:
REMARK  status: ('A' for Active; 'I' for Inactive)
REMARK       I    between atoms: C_9  and  N_1 
REMARK       I    between atoms: N_2  and  C_10 
REMARK    1  A    between atoms: C_17  and  C_9 
REMARK    2  A    between atoms: C_10  and  C_18 
REMARK    3  A    between atoms: C_21  and  C_17 
REMARK    4  A    between atoms: C_18  and  C_22 
REMARK    5  A    between atoms: C_24  and  C_21 
REMARK    6  A    between atoms: C_22  and  C_23 
REMARK    7  A    between atoms: C_23  and  C_26 
REMARK    8  A    between atoms: C_25  and  C_24 
REMARK    9  A    between atoms: C_26  and  C_25 
ROOT
ATOM      1  C   UNL d   1      57.678   0.612  30.288  0.00  0.00     0.000 C 
ENDROOT
BRANCH   1   2
ATOM      2  C   UNL d   1      57.241   0.287  30.917  0.00  0.00     0.000 C 
BRANCH   2   3
ATOM      3  C   UNL d   1      57.378   0.544  31.686  0.00  0.00     0.005 C 
BRANCH   3   4
ATOM      4  C   UNL d   1      56.761   0.560  32.233  0.00  0.00     0.063 C 
BRANCH   4   5
ATOM      5  C   UNL d   1      56.927   0.610  33.040  0.00  0.00     0.280 C 
ATOM      6  N   UNL d   1      56.315   0.607  33.589  0.00  0.00    -0.195 N 
ATOM      7  N   UNL d   1      56.477   0.657  34.394  0.00  0.00    -0.163 NA
ATOM      8  C   UNL d   1      55.495   0.561  33.504  0.00  0.00     0.088 A 
ATOM      9  C   UNL d   1      55.765   0.641  34.805  0.00  0.00     0.103 A 
ATOM     10  C   UNL d   1      55.676   0.679  35.628  0.00  0.00     0.022 C 
ATOM     11  C   UNL d   1      55.159   0.582  34.250  0.00  0.00     0.040 A 
ATOM     12  C   UNL d   1      55.087   0.503  32.789  0.00  0.00     0.021 C 
ATOM     13  O   UNL d   1      57.708   0.664  33.307  0.00  0.00    -0.265 OA
ENDBRANCH   4   5
ENDBRANCH   3   4
ENDBRANCH   2   3
ENDBRANCH   1   2
BRANCH   1  14
ATOM     14  C   UNL d   1      58.375   0.244  30.042  0.00  0.00     0.000 C 
BRANCH  14  15
ATOM     15  C   UNL d   1      58.345  -0.389  29.503  0.00  0.00     0.000 C 
BRANCH  15  16
ATOM     16  C   UNL d   1      59.035  -0.669  29.152  0.00  0.00     0.005 C 
BRANCH  16  17
ATOM     17  C   UNL d   1      59.087  -1.458  28.916  0.00  0.00     0.063 C 
BRANCH  17  18
ATOM     18  C   UNL d   1      59.809  -1.849  28.932  0.00  0.00     0.280 C 
ATOM     19  N   UNL d   1      59.851  -2.656  28.768  0.00  0.00    -0.195 N 
ATOM     20  N   UNL d   1      60.530  -3.121  28.762  0.00  0.00    -0.163 NA
ATOM     21  C   UNL d   1      59.211  -3.151  28.576  0.00  0.00     0.088 A 
ATOM     22  C   UNL d   1      60.317  -3.895  28.570  0.00  0.00     0.103 A 
ATOM     23  C   UNL d   1      60.834  -4.537  28.505  0.00  0.00     0.022 C 
ATOM     24  C   UNL d   1      59.498  -3.909  28.455  0.00  0.00     0.040 A 
ATOM     25  C   UNL d   1      58.417  -2.912  28.518  0.00  0.00     0.021 C 
ATOM     26  O   UNL d   1      60.499  -1.430  29.114  0.00  0.00    -0.265 OA
ENDBRANCH  17  18
ENDBRANCH  16  17
ENDBRANCH  15  16
ENDBRANCH  14  15
ENDBRANCH   1  14
TORSDOF 9
ENDMDL
