MODEL 1
REMARK VINA RESULT:      -6.4      0.000      0.000
REMARK  3 active torsions:
REMARK  status: ('A' for Active; 'I' for Inactive)
REMARK    1  A    between atoms: C_3  and  C_1 
REMARK    2  A    between atoms: N_4  and  C_3 
REMARK    3  A    between atoms: C_8  and  C_3 
ROOT
ATOM      1  C   UNL d   1     -39.325  14.620  18.170  0.00  0.00     0.069 C 
ENDROOT
BRANCH   1   2
ATOM      2  C   UNL d   1     -39.131  14.944  18.908  0.00  0.00     0.057 A 
ATOM      3  C   UNL d   1     -39.589  14.762  19.570  0.00  0.00     0.214 A 
ATOM      4  C   UNL d   1     -39.387  15.089  20.294  0.00  0.00     0.120 A 
ATOM      5  O   UNL d   1     -40.244  14.256  19.511  0.00  0.00    -0.285 OA
ATOM      6  N   UNL d   1     -39.834  14.917  20.965  0.00  0.00    -0.241 NA
ATOM      7  C   UNL d   1     -38.731  15.595  20.353  0.00  0.00     0.021 A 
ATOM      8  C   UNL d   1     -39.621  15.253  21.690  0.00  0.00     0.099 A 
ATOM      9  C   UNL d   1     -38.991  15.738  21.747  0.00  0.00     0.021 A 
ATOM     10  C   UNL d   1     -38.531  15.922  21.083  0.00  0.00     0.003 A 
ATOM     11  C   UNL d   1     -38.286  15.767  19.688  0.00  0.00     0.002 A 
ATOM     12  C   UNL d   1     -38.502  15.430  18.964  0.00  0.00     0.005 A 
ENDBRANCH   1   2
BRANCH   1  13
ATOM     13  N   UNL d   1     -39.924  14.948  17.718  0.00  0.00    -0.301 N 
ATOM     14  C   UNL d   1     -40.677  14.623  17.750  0.00  0.00     0.100 A 
ATOM     15  C   UNL d   1     -41.287  14.953  17.293  0.00  0.00     0.100 A 
ATOM     16  N   UNL d   1     -41.141  15.594  16.816  0.00  0.00    -0.299 N 
ATOM     17  C   UNL d   1     -40.385  15.922  16.782  0.00  0.00     0.100 A 
ATOM     18  C   UNL d   1     -41.733  15.922  16.366  0.00  0.00     0.100 C 
ATOM     19  C   UNL d   1     -39.786  15.598  17.231  0.00  0.00     0.100 A 
ENDBRANCH   1  13
BRANCH   1  20
ATOM     20  C   UNL d   1     -38.928  13.971  17.875  0.00  0.00     0.035 A 
ATOM     21  C   UNL d   1     -39.071  13.226  18.172  0.00  0.00     0.100 A 
ATOM     22  N   UNL d   1     -38.672  12.566  17.877  0.00  0.00    -0.242 NA
ATOM     23  C   UNL d   1     -38.119  12.666  17.270  0.00  0.00     0.099 A 
ATOM     24  C   UNL d   1     -37.973  13.413  16.969  0.00  0.00     0.021 A 
ATOM     25  C   UNL d   1     -38.375  14.071  17.269  0.00  0.00     0.005 A 
ENDBRANCH   1  20
TORSDOF 3
ENDMDL
MODEL 2
REMARK VINA RESULT:      -6.3      0.479      2.424
REMARK  3 active torsions:
REMARK  status: ('A' for Active; 'I' for Inactive)
REMARK    1  A    between atoms: C_3  and  C_1 
REMARK    2  A    between atoms: N_4  and  C_3 
REMARK    3  A    between atoms: C_8  and  C_3 
ROOT
ATOM      1  C   UNL d   1     -39.522  14.663  18.152  0.00  0.00     0.069 C 
ENDROOT
BRANCH   1   2
ATOM      2  C   UNL d   1     -39.353  14.975  18.900  0.00  0.00     0.057 A 
ATOM      3  C   UNL d   1     -39.782  14.722  19.559  0.00  0.00     0.214 A 
ATOM      4  C   UNL d   1     -39.606  15.038  20.293  0.00  0.00     0.120 A 
ATOM      5  O   UNL d   1     -40.384  14.155  19.484  0.00  0.00    -0.285 OA
ATOM      6  N   UNL d   1     -40.025  14.795  20.961  0.00  0.00    -0.241 NA
ATOM      7  C   UNL d   1     -39.003  15.605  20.368  0.00  0.00     0.021 A 
ATOM      8  C   UNL d   1     -39.838  15.122  21.697  0.00  0.00     0.099 A 
ATOM      9  C   UNL d   1     -39.260  15.666  21.769  0.00  0.00     0.021 A 
ATOM     10  C   UNL d   1     -38.829  15.922  21.109  0.00  0.00     0.003 A 
ATOM     11  C   UNL d   1     -38.586  15.848  19.707  0.00  0.00     0.002 A 
ATOM     12  C   UNL d   1     -38.775  15.520  18.972  0.00  0.00     0.005 A 
ENDBRANCH   1   2
BRANCH   1  13
ATOM     13  N   UNL d   1     -39.130  13.995  17.884  0.00  0.00    -0.301 N 
ATOM     14  C   UNL d   1     -38.398  14.075  17.521  0.00  0.00     0.100 A 
ATOM     15  C   UNL d   1     -37.998  13.400  17.248  0.00  0.00     0.100 A 
ATOM     16  N   UNL d   1     -38.328  12.663  17.339  0.00  0.00    -0.299 N 
ATOM     17  C   UNL d   1     -39.063  12.581  17.704  0.00  0.00     0.100 A 
ATOM     18  C   UNL d   1     -37.943  11.999  17.075  0.00  0.00     0.100 C 
ATOM     19  C   UNL d   1     -39.456  13.244  17.972  0.00  0.00     0.100 A 
ENDBRANCH   1  13
BRANCH   1  20
ATOM     20  C   UNL d   1     -40.077  15.008  17.664  0.00  0.00     0.035 A 
ATOM     21  C   UNL d   1     -40.864  14.808  17.723  0.00  0.00     0.100 A 
ATOM     22  N   UNL d   1     -41.430  15.154  17.232  0.00  0.00    -0.242 NA
ATOM     23  C   UNL d   1     -41.191  15.713  16.672  0.00  0.00     0.099 A 
ATOM     24  C   UNL d   1     -40.401  15.917  16.609  0.00  0.00     0.021 A 
ATOM     25  C   UNL d   1     -39.838  15.567  17.103  0.00  0.00     0.005 A 
ENDBRANCH   1  20
TORSDOF 3
ENDMDL
MODEL 3
REMARK VINA RESULT:      -5.9      8.989     10.121
REMARK  3 active torsions:
REMARK  status: ('A' for Active; 'I' for Inactive)
REMARK    1  A    between atoms: C_3  and  C_1 
REMARK    2  A    between atoms: N_4  and  C_3 
REMARK    3  A    between atoms: C_8  and  C_3 
ROOT
ATOM      1  C   UNL d   1     -48.620  13.094  22.947  0.00  0.00     0.069 C 
ENDROOT
BRANCH   1   2
ATOM      2  C   UNL d   1     -47.791  13.094  22.930  0.00  0.00     0.057 A 
ATOM      3  C   UNL d   1     -47.394  13.085  22.207  0.00  0.00     0.214 A 
ATOM      4  C   UNL d   1     -46.575  13.086  22.204  0.00  0.00     0.120 A 
ATOM      5  O   UNL d   1     -47.812  13.075  21.490  0.00  0.00    -0.285 OA
ATOM      6  N   UNL d   1     -46.163  13.077  21.489  0.00  0.00    -0.241 NA
ATOM      7  C   UNL d   1     -46.156  13.096  22.922  0.00  0.00     0.021 A 
ATOM      8  C   UNL d   1     -45.336  13.078  21.499  0.00  0.00     0.099 A 
ATOM      9  C   UNL d   1     -44.935  13.088  22.187  0.00  0.00     0.021 A 
ATOM     10  C   UNL d   1     -45.332  13.097  22.914  0.00  0.00     0.003 A 
ATOM     11  C   UNL d   1     -46.563  13.105  23.632  0.00  0.00     0.002 A 
ATOM     12  C   UNL d   1     -47.390  13.104  23.619  0.00  0.00     0.005 A 
ENDBRANCH   1   2
BRANCH   1  13
ATOM     13  N   UNL d   1     -49.035  13.800  22.946  0.00  0.00    -0.301 N 
ATOM     14  C   UNL d   1     -49.207  14.167  23.660  0.00  0.00     0.100 A 
ATOM     15  C   UNL d   1     -49.627  14.884  23.663  0.00  0.00     0.100 A 
ATOM     16  N   UNL d   1     -49.867  15.221  22.964  0.00  0.00    -0.299 N 
ATOM     17  C   UNL d   1     -49.695  14.854  22.246  0.00  0.00     0.100 A 
ATOM     18  C   UNL d   1     -50.279  15.921  22.959  0.00  0.00     0.100 C 
ATOM     19  C   UNL d   1     -49.282  14.150  22.243  0.00  0.00     0.100 A 
ENDBRANCH   1  13
BRANCH   1  20
ATOM     20  C   UNL d   1     -49.043  12.397  22.964  0.00  0.00     0.035 A 
ATOM     21  C   UNL d   1     -49.155  11.961  22.285  0.00  0.00     0.100 A 
ATOM     22  N   UNL d   1     -49.582  11.255  22.297  0.00  0.00    -0.242 NA
ATOM     23  C   UNL d   1     -49.900  10.987  23.013  0.00  0.00     0.099 A 
ATOM     24  C   UNL d   1     -49.789  11.422  23.697  0.00  0.00     0.021 A 
ATOM     25  C   UNL d   1     -49.360  12.129  23.679  0.00  0.00     0.005 A 
ENDBRANCH   1  20
TORSDOF 3
ENDMDL
MODEL 4
REMARK VINA RESULT:      -5.3      9.033     10.322
REMARK  3 active torsions:
REMARK  status: ('A' for Active; 'I' for Inactive)
REMARK    1  A    between atoms: C_3  and  C_1 
REMARK    2  A    between atoms: N_4  and  C_3 
REMARK    3  A    between atoms: C_8  and  C_3 
ROOT
ATOM      1  C   UNL d   1     -48.766  13.602  22.581  0.00  0.00     0.069 C 
ENDROOT
BRANCH   1   2
ATOM      2  C   UNL d   1     -47.989  13.435  22.347  0.00  0.00     0.057 A 
ATOM      3  C   UNL d   1     -47.377  13.469  22.900  0.00  0.00     0.214 A 
ATOM      4  C   UNL d   1     -46.613  13.301  22.656  0.00  0.00     0.120 A 
ATOM      5  O   UNL d   1     -47.526  13.668  23.692  0.00  0.00    -0.285 OA
ATOM      6  N   UNL d   1     -45.990  13.330  23.196  0.00  0.00    -0.241 NA
ATOM      7  C   UNL d   1     -46.463  13.101  21.864  0.00  0.00     0.021 A 
ATOM      8  C   UNL d   1     -45.223  13.159  22.939  0.00  0.00     0.099 A 
ATOM      9  C   UNL d   1     -45.080  12.968  22.178  0.00  0.00     0.021 A 
ATOM     10  C   UNL d   1     -45.693  12.934  21.623  0.00  0.00     0.003 A 
ATOM     11  C   UNL d   1     -47.080  13.072  21.326  0.00  0.00     0.002 A 
ATOM     12  C   UNL d   1     -47.846  13.243  21.587  0.00  0.00     0.005 A 
ENDBRANCH   1   2
BRANCH   1  13
ATOM     13  N   UNL d   1     -49.271  12.997  22.804  0.00  0.00    -0.301 N 
ATOM     14  C   UNL d   1     -49.932  12.833  22.344  0.00  0.00     0.100 A 
ATOM     15  C   UNL d   1     -50.446  12.220  22.567  0.00  0.00     0.100 A 
ATOM     16  N   UNL d   1     -50.297  11.783  23.235  0.00  0.00    -0.299 N 
ATOM     17  C   UNL d   1     -49.634  11.945  23.698  0.00  0.00     0.100 A 
ATOM     18  C   UNL d   1     -50.795  11.182  23.459  0.00  0.00     0.100 C 
ATOM     19  C   UNL d   1     -49.129  12.548  23.479  0.00  0.00     0.100 A 
ENDBRANCH   1  13
BRANCH   1  20
ATOM     20  C   UNL d   1     -49.049  14.367  22.596  0.00  0.00     0.035 A 
ATOM     21  C   UNL d   1     -49.272  14.742  21.908  0.00  0.00     0.100 A 
ATOM     22  N   UNL d   1     -49.559  15.516  21.918  0.00  0.00    -0.242 NA
ATOM     23  C   UNL d   1     -49.619  15.915  22.640  0.00  0.00     0.099 A 
ATOM     24  C   UNL d   1     -49.395  15.542  23.334  0.00  0.00     0.021 A 
ATOM     25  C   UNL d   1     -49.109  14.766  23.318  0.00  0.00     0.005 A 
ENDBRANCH   1  20
TORSDOF 3
ENDMDL
MODEL 5
REMARK VINA RESULT:      -5.0      1.494      4.221
REMARK  3 active torsions:
REMARK  status: ('A' for Active; 'I' for Inactive)
REMARK    1  A    between atoms: C_3  and  C_1 
REMARK    2  A    between atoms: N_4  and  C_3 
REMARK    3  A    between atoms: C_8  and  C_3 
ROOT
ATOM      1  C   UNL d   1     -39.744  14.950  20.585  0.00  0.00     0.069 C 
ENDROOT
BRANCH   1   2
ATOM      2  C   UNL d   1     -39.389  15.047  19.843  0.00  0.00     0.057 A 
ATOM      3  C   UNL d   1     -39.332  14.406  19.326  0.00  0.00     0.214 A 
ATOM      4  C   UNL d   1     -38.979  14.514  18.595  0.00  0.00     0.120 A 
ATOM      5  O   UNL d   1     -39.626  13.659  19.539  0.00  0.00    -0.285 OA
ATOM      6  N   UNL d   1     -38.914  13.883  18.068  0.00  0.00    -0.241 NA
ATOM      7  C   UNL d   1     -38.684  15.262  18.383  0.00  0.00     0.021 A 
ATOM      8  C   UNL d   1     -38.555  14.005  17.333  0.00  0.00     0.099 A 
ATOM      9  C   UNL d   1     -38.273  14.722  17.130  0.00  0.00     0.021 A 
ATOM     10  C   UNL d   1     -38.329  15.367  17.646  0.00  0.00     0.003 A 
ATOM     11  C   UNL d   1     -38.747  15.890  18.904  0.00  0.00     0.002 A 
ATOM     12  C   UNL d   1     -39.106  15.764  19.639  0.00  0.00     0.005 A 
ENDBRANCH   1   2
BRANCH   1  13
ATOM     13  N   UNL d   1     -39.292  14.746  21.237  0.00  0.00    -0.301 N 
ATOM     14  C   UNL d   1     -39.276  13.964  21.486  0.00  0.00     0.100 A 
ATOM     15  C   UNL d   1     -38.818  13.753  22.148  0.00  0.00     0.100 A 
ATOM     16  N   UNL d   1     -38.389  14.316  22.545  0.00  0.00    -0.299 N 
ATOM     17  C   UNL d   1     -38.404  15.102  22.296  0.00  0.00     0.100 A 
ATOM     18  C   UNL d   1     -37.940  14.117  23.192  0.00  0.00     0.100 C 
ATOM     19  C   UNL d   1     -38.853  15.309  21.647  0.00  0.00     0.100 A 
ENDBRANCH   1  13
BRANCH   1  20
ATOM     20  C   UNL d   1     -40.546  15.055  20.687  0.00  0.00     0.035 A 
ATOM     21  C   UNL d   1     -41.054  14.418  20.674  0.00  0.00     0.100 A 
ATOM     22  N   UNL d   1     -41.867  14.518  20.777  0.00  0.00    -0.242 NA
ATOM     23  C   UNL d   1     -42.168  15.279  20.896  0.00  0.00     0.099 A 
ATOM     24  C   UNL d   1     -41.662  15.922  20.910  0.00  0.00     0.021 A 
ATOM     25  C   UNL d   1     -40.848  15.816  20.806  0.00  0.00     0.005 A 
ENDBRANCH   1  20
TORSDOF 3
ENDMDL
MODEL 6
REMARK VINA RESULT:      -4.4      1.775      3.332
REMARK  3 active torsions:
REMARK  status: ('A' for Active; 'I' for Inactive)
REMARK    1  A    between atoms: C_3  and  C_1 
REMARK    2  A    between atoms: N_4  and  C_3 
REMARK    3  A    between atoms: C_8  and  C_3 
ROOT
ATOM      1  C   UNL d   1     -39.791  15.015  20.621  0.00  0.00     0.069 C 
ENDROOT
BRANCH   1   2
ATOM      2  C   UNL d   1     -39.377  14.885  21.327  0.00  0.00     0.057 A 
ATOM      3  C   UNL d   1     -39.213  14.114  21.572  0.00  0.00     0.214 A 
ATOM      4  C   UNL d   1     -38.803  13.999  22.272  0.00  0.00     0.120 A 
ATOM      5  O   UNL d   1     -39.456  13.461  21.121  0.00  0.00    -0.285 OA
ATOM      6  N   UNL d   1     -38.631  13.234  22.531  0.00  0.00    -0.241 NA
ATOM      7  C   UNL d   1     -38.559  14.652  22.724  0.00  0.00     0.021 A 
ATOM      8  C   UNL d   1     -38.217  13.131  23.239  0.00  0.00     0.099 A 
ATOM      9  C   UNL d   1     -37.983  13.757  23.672  0.00  0.00     0.021 A 
ATOM     10  C   UNL d   1     -38.146  14.532  23.428  0.00  0.00     0.003 A 
ATOM     11  C   UNL d   1     -38.728  15.411  22.469  0.00  0.00     0.002 A 
ATOM     12  C   UNL d   1     -39.143  15.512  21.761  0.00  0.00     0.005 A 
ENDBRANCH   1   2
BRANCH   1  13
ATOM     13  N   UNL d   1     -39.388  15.081  19.911  0.00  0.00    -0.301 N 
ATOM     14  C   UNL d   1     -38.992  15.779  19.736  0.00  0.00     0.100 A 
ATOM     15  C   UNL d   1     -38.582  15.850  19.017  0.00  0.00     0.100 A 
ATOM     16  N   UNL d   1     -38.572  15.233  18.489  0.00  0.00    -0.299 N 
ATOM     17  C   UNL d   1     -38.969  14.532  18.663  0.00  0.00     0.100 A 
ATOM     18  C   UNL d   1     -38.173  15.295  17.784  0.00  0.00     0.100 C 
ATOM     19  C   UNL d   1     -39.371  14.462  19.369  0.00  0.00     0.100 A 
ENDBRANCH   1  13
BRANCH   1  20
ATOM     20  C   UNL d   1     -40.604  15.080  20.613  0.00  0.00     0.035 A 
ATOM     21  C   UNL d   1     -41.072  14.428  20.478  0.00  0.00     0.100 A 
ATOM     22  N   UNL d   1     -41.895  14.488  20.468  0.00  0.00    -0.242 NA
ATOM     23  C   UNL d   1     -42.247  15.225  20.598  0.00  0.00     0.099 A 
ATOM     24  C   UNL d   1     -41.780  15.884  20.734  0.00  0.00     0.021 A 
ATOM     25  C   UNL d   1     -40.956  15.817  20.743  0.00  0.00     0.005 A 
ENDBRANCH   1  20
TORSDOF 3
ENDMDL
MODEL 7
REMARK VINA RESULT:      -4.3      1.509      3.445
REMARK  3 active torsions:
REMARK  status: ('A' for Active; 'I' for Inactive)
REMARK    1  A    between atoms: C_3  and  C_1 
REMARK    2  A    between atoms: N_4  and  C_3 
REMARK    3  A    between atoms: C_8  and  C_3 
ROOT
ATOM      1  C   UNL d   1     -39.352  14.714  20.239  0.00  0.00     0.069 C 
ENDROOT
BRANCH   1   2
ATOM      2  C   UNL d   1     -39.060  14.866  19.479  0.00  0.00     0.057 A 
ATOM      3  C   UNL d   1     -39.176  14.315  18.875  0.00  0.00     0.214 A 
ATOM      4  C   UNL d   1     -38.883  14.477  18.128  0.00  0.00     0.120 A 
ATOM      5  O   UNL d   1     -39.583  13.606  19.016  0.00  0.00    -0.285 OA
ATOM      6  N   UNL d   1     -38.990  13.937  17.514  0.00  0.00    -0.241 NA
ATOM      7  C   UNL d   1     -38.475  15.187  17.986  0.00  0.00     0.021 A 
ATOM      8  C   UNL d   1     -38.689  14.112  16.764  0.00  0.00     0.099 A 
ATOM      9  C   UNL d   1     -38.298  14.793  16.628  0.00  0.00     0.021 A 
ATOM     10  C   UNL d   1     -38.181  15.347  17.232  0.00  0.00     0.003 A 
ATOM     11  C   UNL d   1     -38.367  15.725  18.593  0.00  0.00     0.002 A 
ATOM     12  C   UNL d   1     -38.669  15.547  19.343  0.00  0.00     0.005 A 
ENDBRANCH   1   2
BRANCH   1  13
ATOM     13  N   UNL d   1     -40.119  14.925  20.438  0.00  0.00    -0.301 N 
ATOM     14  C   UNL d   1     -40.283  15.704  20.638  0.00  0.00     0.100 A 
ATOM     15  C   UNL d   1     -41.059  15.922  20.841  0.00  0.00     0.100 A 
ATOM     16  N   UNL d   1     -41.653  15.368  20.841  0.00  0.00    -0.299 N 
ATOM     17  C   UNL d   1     -41.490  14.585  20.640  0.00  0.00     0.100 A 
ATOM     18  C   UNL d   1     -42.413  15.574  21.038  0.00  0.00     0.100 C 
ATOM     19  C   UNL d   1     -40.728  14.371  20.441  0.00  0.00     0.100 A 
ENDBRANCH   1  13
BRANCH   1  20
ATOM     20  C   UNL d   1     -38.890  14.353  20.806  0.00  0.00     0.035 A 
ATOM     21  C   UNL d   1     -38.890  13.543  20.888  0.00  0.00     0.100 A 
ATOM     22  N   UNL d   1     -38.424  13.173  21.460  0.00  0.00    -0.242 NA
ATOM     23  C   UNL d   1     -37.951  13.635  21.957  0.00  0.00     0.099 A 
ATOM     24  C   UNL d   1     -37.948  14.450  21.877  0.00  0.00     0.021 A 
ATOM     25  C   UNL d   1     -38.417  14.815  21.302  0.00  0.00     0.005 A 
ENDBRANCH   1  20
TORSDOF 3
ENDMDL
MODEL 8
REMARK VINA RESULT:      -4.2      0.892      3.638
REMARK  3 active torsions:
REMARK  status: ('A' for Active; 'I' for Inactive)
REMARK    1  A    between atoms: C_3  and  C_1 
REMARK    2  A    between atoms: N_4  and  C_3 
REMARK    3  A    between atoms: C_8  and  C_3 
ROOT
ATOM      1  C   UNL d   1     -38.927  14.334  18.194  0.00  0.00     0.069 C 
ENDROOT
BRANCH   1   2
ATOM      2  C   UNL d   1     -39.390  14.731  17.634  0.00  0.00     0.057 A 
ATOM      3  C   UNL d   1     -40.214  14.715  17.694  0.00  0.00     0.214 A 
ATOM      4  C   UNL d   1     -40.660  15.112  17.134  0.00  0.00     0.120 A 
ATOM      5  O   UNL d   1     -40.589  14.303  18.309  0.00  0.00    -0.285 OA
ATOM      6  N   UNL d   1     -41.484  15.104  17.179  0.00  0.00    -0.241 NA
ATOM      7  C   UNL d   1     -40.284  15.523  16.517  0.00  0.00     0.021 A 
ATOM      8  C   UNL d   1     -41.924  15.509  16.608  0.00  0.00     0.099 A 
ATOM      9  C   UNL d   1     -41.563  15.904  16.017  0.00  0.00     0.021 A 
ATOM     10  C   UNL d   1     -40.738  15.922  15.955  0.00  0.00     0.003 A 
ATOM     11  C   UNL d   1     -39.467  15.532  16.470  0.00  0.00     0.002 A 
ATOM     12  C   UNL d   1     -39.030  15.126  17.043  0.00  0.00     0.005 A 
ENDBRANCH   1   2
BRANCH   1  13
ATOM     13  N   UNL d   1     -38.679  13.565  18.056  0.00  0.00    -0.301 N 
ATOM     14  C   UNL d   1     -38.912  12.968  18.570  0.00  0.00     0.100 A 
ATOM     15  C   UNL d   1     -38.662  12.187  18.433  0.00  0.00     0.100 A 
ATOM     16  N   UNL d   1     -38.191  12.014  17.795  0.00  0.00    -0.299 N 
ATOM     17  C   UNL d   1     -37.956  12.612  17.278  0.00  0.00     0.100 A 
ATOM     18  C   UNL d   1     -37.943  11.254  17.655  0.00  0.00     0.100 C 
ATOM     19  C   UNL d   1     -38.201  13.379  17.412  0.00  0.00     0.100 A 
ENDBRANCH   1  13
BRANCH   1  20
ATOM     20  C   UNL d   1     -38.707  14.692  18.893  0.00  0.00     0.035 A 
ATOM     21  C   UNL d   1     -39.015  14.443  19.604  0.00  0.00     0.100 A 
ATOM     22  N   UNL d   1     -38.795  14.802  20.314  0.00  0.00    -0.242 NA
ATOM     23  C   UNL d   1     -38.252  15.426  20.299  0.00  0.00     0.099 A 
ATOM     24  C   UNL d   1     -37.940  15.679  19.587  0.00  0.00     0.021 A 
ATOM     25  C   UNL d   1     -38.164  15.316  18.878  0.00  0.00     0.005 A 
ENDBRANCH   1  20
TORSDOF 3
ENDMDL
