MODEL 1
REMARK VINA RESULT:      -6.6      0.000      0.000
REMARK  5 active torsions:
REMARK  status: ('A' for Active; 'I' for Inactive)
REMARK    1  A    between atoms: C_7  and  N_2 
REMARK    2  A    between atoms: C_8  and  C_7 
REMARK    3  A    between atoms: C_13  and  C_8 
REMARK    4  A    between atoms: C_9  and  O_11 
REMARK    5  A    between atoms: O_11  and  C_13 
ROOT
ATOM      1  C   UNL d   1     -50.081  14.646  22.426  0.00  0.00     0.296 A 
ATOM      2  N   UNL d   1     -49.523  14.243  22.893  0.00  0.00    -0.268 N 
ATOM      3  S   UNL d   1     -50.745  14.161  22.356  0.00  0.00    -0.025 SA
ATOM      4  C   UNL d   1     -49.848  13.513  23.108  0.00  0.00     0.073 A 
ATOM      5  C   UNL d   1     -50.605  13.464  22.774  0.00  0.00     0.050 A 
ATOM      6  O   UNL d   1     -49.987  15.394  22.094  0.00  0.00    -0.259 OA
ATOM      7  C   UNL d   1     -49.553  12.894  23.559  0.00  0.00     0.018 A 
ATOM      8  C   UNL d   1     -51.064  12.780  22.901  0.00  0.00     0.008 A 
ATOM      9  C   UNL d   1     -50.010  12.219  23.682  0.00  0.00     0.002 A 
ATOM     10  C   UNL d   1     -50.761  12.163  23.356  0.00  0.00     0.001 A 
ENDROOT
BRANCH   2  11
ATOM     11  C   UNL d   1     -48.778  14.521  23.106  0.00  0.00     0.086 C 
BRANCH  11  12
ATOM     12  C   UNL d   1     -48.139  14.415  22.591  0.00  0.00     0.046 C 
BRANCH  12  13
ATOM     13  C   UNL d   1     -47.374  14.600  22.838  0.00  0.00     0.124 C 
BRANCH  13  14
ATOM     14  O   UNL d   1     -46.766  14.063  22.730  0.00  0.00    -0.305 OA
BRANCH  14  15
ATOM     15  C   UNL d   1     -46.151  13.520  22.621  0.00  0.00     0.100 A 
ATOM     16  C   UNL d   1     -45.512  13.730  22.151  0.00  0.00     0.025 A 
ATOM     17  C   UNL d   1     -44.898  13.187  22.042  0.00  0.00     0.002 A 
ATOM     18  C   UNL d   1     -44.926  12.446  22.400  0.00  0.00     0.000 A 
ATOM     19  C   UNL d   1     -45.577  12.244  22.873  0.00  0.00     0.002 A 
ATOM     20  C   UNL d   1     -46.186  12.780  22.982  0.00  0.00     0.025 A 
ENDBRANCH  14  15
ENDBRANCH  13  14
ENDBRANCH  12  13
ENDBRANCH  11  12
ENDBRANCH   2  11
TORSDOF 5
ENDMDL
MODEL 2
REMARK VINA RESULT:      -6.5      1.308      1.864
REMARK  5 active torsions:
REMARK  status: ('A' for Active; 'I' for Inactive)
REMARK    1  A    between atoms: C_7  and  N_2 
REMARK    2  A    between atoms: C_8  and  C_7 
REMARK    3  A    between atoms: C_13  and  C_8 
REMARK    4  A    between atoms: C_9  and  O_11 
REMARK    5  A    between atoms: O_11  and  C_13 
ROOT
ATOM      1  C   UNL d   1     -50.159  12.247  22.938  0.00  0.00     0.296 A 
ATOM      2  N   UNL d   1     -49.639  12.805  23.271  0.00  0.00    -0.268 N 
ATOM      3  S   UNL d   1     -50.773  12.662  22.575  0.00  0.00    -0.025 SA
ATOM      4  C   UNL d   1     -49.938  13.560  23.111  0.00  0.00     0.073 A 
ATOM      5  C   UNL d   1     -50.641  13.468  22.680  0.00  0.00     0.050 A 
ATOM      6  O   UNL d   1     -50.074  11.428  22.965  0.00  0.00    -0.259 OA
ATOM      7  C   UNL d   1     -49.663  14.309  23.301  0.00  0.00     0.018 A 
ATOM      8  C   UNL d   1     -51.064  14.145  22.442  0.00  0.00     0.008 A 
ATOM      9  C   UNL d   1     -50.086  14.976  23.063  0.00  0.00     0.002 A 
ATOM     10  C   UNL d   1     -50.781  14.895  22.636  0.00  0.00     0.001 A 
ENDROOT
BRANCH   2  11
ATOM     11  C   UNL d   1     -48.949  12.637  23.686  0.00  0.00     0.086 C 
BRANCH  11  12
ATOM     12  C   UNL d   1     -48.304  12.302  23.291  0.00  0.00     0.046 C 
BRANCH  12  13
ATOM     13  C   UNL d   1     -47.580  12.223  23.677  0.00  0.00     0.124 C 
BRANCH  13  14
ATOM     14  O   UNL d   1     -46.885  12.410  23.286  0.00  0.00    -0.305 OA
BRANCH  14  15
ATOM     15  C   UNL d   1     -46.182  12.599  22.893  0.00  0.00     0.100 A 
ATOM     16  C   UNL d   1     -46.125  13.318  22.501  0.00  0.00     0.025 A 
ATOM     17  C   UNL d   1     -45.422  13.506  22.108  0.00  0.00     0.002 A 
ATOM     18  C   UNL d   1     -44.788  12.981  22.109  0.00  0.00     0.000 A 
ATOM     19  C   UNL d   1     -44.857  12.257  22.507  0.00  0.00     0.002 A 
ATOM     20  C   UNL d   1     -45.552  12.068  22.898  0.00  0.00     0.025 A 
ENDBRANCH  14  15
ENDBRANCH  13  14
ENDBRANCH  12  13
ENDBRANCH  11  12
ENDBRANCH   2  11
TORSDOF 5
ENDMDL
MODEL 3
REMARK VINA RESULT:      -6.5      2.032      4.291
REMARK  5 active torsions:
REMARK  status: ('A' for Active; 'I' for Inactive)
REMARK    1  A    between atoms: C_7  and  N_2 
REMARK    2  A    between atoms: C_8  and  C_7 
REMARK    3  A    between atoms: C_13  and  C_8 
REMARK    4  A    between atoms: C_9  and  O_11 
REMARK    5  A    between atoms: O_11  and  C_13 
ROOT
ATOM      1  C   UNL d   1     -45.553  13.442  22.466  0.00  0.00     0.296 A 
ATOM      2  N   UNL d   1     -46.280  13.484  22.867  0.00  0.00    -0.268 N 
ATOM      3  S   UNL d   1     -45.311  12.653  22.468  0.00  0.00    -0.025 SA
ATOM      4  C   UNL d   1     -46.481  12.720  23.113  0.00  0.00     0.073 A 
ATOM      5  C   UNL d   1     -45.880  12.207  22.865  0.00  0.00     0.050 A 
ATOM      6  O   UNL d   1     -45.148  14.075  22.128  0.00  0.00    -0.259 OA
ATOM      7  C   UNL d   1     -47.129  12.431  23.527  0.00  0.00     0.018 A 
ATOM      8  C   UNL d   1     -45.938  11.394  23.039  0.00  0.00     0.008 A 
ATOM      9  C   UNL d   1     -47.182  11.626  23.698  0.00  0.00     0.002 A 
ATOM     10  C   UNL d   1     -46.592  11.111  23.456  0.00  0.00     0.001 A 
ENDROOT
BRANCH   2  11
ATOM     11  C   UNL d   1     -46.723  14.166  22.997  0.00  0.00     0.086 C 
BRANCH  11  12
ATOM     12  C   UNL d   1     -47.391  14.316  22.531  0.00  0.00     0.046 C 
BRANCH  12  13
ATOM     13  C   UNL d   1     -47.776  15.042  22.585  0.00  0.00     0.124 C 
BRANCH  13  14
ATOM     14  O   UNL d   1     -48.590  15.070  22.675  0.00  0.00    -0.305 OA
BRANCH  14  15
ATOM     15  C   UNL d   1     -49.412  15.098  22.765  0.00  0.00     0.100 A 
ATOM     16  C   UNL d   1     -49.728  15.498  23.408  0.00  0.00     0.025 A 
ATOM     17  C   UNL d   1     -50.551  15.526  23.498  0.00  0.00     0.002 A 
ATOM     18  C   UNL d   1     -51.044  15.159  22.951  0.00  0.00     0.000 A 
ATOM     19  C   UNL d   1     -50.713  14.757  22.305  0.00  0.00     0.002 A 
ATOM     20  C   UNL d   1     -49.900  14.728  22.214  0.00  0.00     0.025 A 
ENDBRANCH  14  15
ENDBRANCH  13  14
ENDBRANCH  12  13
ENDBRANCH  11  12
ENDBRANCH   2  11
TORSDOF 5
ENDMDL
MODEL 4
REMARK VINA RESULT:      -6.3      1.769      2.470
REMARK  5 active torsions:
REMARK  status: ('A' for Active; 'I' for Inactive)
REMARK    1  A    between atoms: C_7  and  N_2 
REMARK    2  A    between atoms: C_8  and  C_7 
REMARK    3  A    between atoms: C_13  and  C_8 
REMARK    4  A    between atoms: C_9  and  O_11 
REMARK    5  A    between atoms: O_11  and  C_13 
ROOT
ATOM      1  C   UNL d   1     -48.922  11.897  22.873  0.00  0.00     0.296 A 
ATOM      2  N   UNL d   1     -48.482  12.599  22.946  0.00  0.00    -0.268 N 
ATOM      3  S   UNL d   1     -49.604  12.071  22.441  0.00  0.00    -0.025 SA
ATOM      4  C   UNL d   1     -48.897  13.201  22.558  0.00  0.00     0.073 A 
ATOM      5  C   UNL d   1     -49.591  12.872  22.246  0.00  0.00     0.050 A 
ATOM      6  O   UNL d   1     -48.714  11.160  23.178  0.00  0.00    -0.259 OA
ATOM      7  C   UNL d   1     -48.731  13.998  22.450  0.00  0.00     0.018 A 
ATOM      8  C   UNL d   1     -50.119  13.358  21.823  0.00  0.00     0.008 A 
ATOM      9  C   UNL d   1     -49.257  14.475  22.031  0.00  0.00     0.002 A 
ATOM     10  C   UNL d   1     -49.945  14.157  21.719  0.00  0.00     0.001 A 
ENDROOT
BRANCH   2  11
ATOM     11  C   UNL d   1     -47.762  12.682  23.335  0.00  0.00     0.086 C 
BRANCH  11  12
ATOM     12  C   UNL d   1     -47.071  12.391  22.984  0.00  0.00     0.046 C 
BRANCH  12  13
ATOM     13  C   UNL d   1     -46.337  12.551  23.325  0.00  0.00     0.124 C 
BRANCH  13  14
ATOM     14  O   UNL d   1     -45.751  11.979  23.322  0.00  0.00    -0.305 OA
BRANCH  14  15
ATOM     15  C   UNL d   1     -45.158  11.402  23.320  0.00  0.00     0.100 A 
ATOM     16  C   UNL d   1     -44.444  11.564  22.951  0.00  0.00     0.025 A 
ATOM     17  C   UNL d   1     -43.852  10.986  22.949  0.00  0.00     0.002 A 
ATOM     18  C   UNL d   1     -43.977  10.259  23.313  0.00  0.00     0.000 A 
ATOM     19  C   UNL d   1     -44.703  10.105  23.683  0.00  0.00     0.002 A 
ATOM     20  C   UNL d   1     -45.291  10.675  23.686  0.00  0.00     0.025 A 
ENDBRANCH  14  15
ENDBRANCH  13  14
ENDBRANCH  12  13
ENDBRANCH  11  12
ENDBRANCH   2  11
TORSDOF 5
ENDMDL
MODEL 5
REMARK VINA RESULT:      -5.8      8.848      9.805
REMARK  5 active torsions:
REMARK  status: ('A' for Active; 'I' for Inactive)
REMARK    1  A    between atoms: C_7  and  N_2 
REMARK    2  A    between atoms: C_8  and  C_7 
REMARK    3  A    between atoms: C_13  and  C_8 
REMARK    4  A    between atoms: C_9  and  O_11 
REMARK    5  A    between atoms: O_11  and  C_13 
ROOT
ATOM      1  C   UNL d   1     -39.486  13.921  18.103  0.00  0.00     0.296 A 
ATOM      2  N   UNL d   1     -40.125  14.344  18.428  0.00  0.00    -0.268 N 
ATOM      3  S   UNL d   1     -39.359  14.206  17.339  0.00  0.00    -0.025 SA
ATOM      4  C   UNL d   1     -40.386  14.887  17.861  0.00  0.00     0.073 A 
ATOM      5  C   UNL d   1     -39.910  14.800  17.187  0.00  0.00     0.050 A 
ATOM      6  O   UNL d   1     -39.059  13.324  18.478  0.00  0.00    -0.259 OA
ATOM      7  C   UNL d   1     -40.990  15.443  17.873  0.00  0.00     0.018 A 
ATOM      8  C   UNL d   1     -40.051  15.282  16.523  0.00  0.00     0.008 A 
ATOM      9  C   UNL d   1     -41.125  15.918  17.212  0.00  0.00     0.002 A 
ATOM     10  C   UNL d   1     -40.659  15.838  16.542  0.00  0.00     0.001 A 
ENDROOT
BRANCH   2  11
ATOM     11  C   UNL d   1     -40.441  14.242  19.180  0.00  0.00     0.086 C 
BRANCH  11  12
ATOM     12  C   UNL d   1     -40.007  14.478  19.844  0.00  0.00     0.046 C 
BRANCH  12  13
ATOM     13  C   UNL d   1     -40.358  14.475  20.590  0.00  0.00     0.124 C 
BRANCH  13  14
ATOM     14  O   UNL d   1     -39.923  14.690  21.249  0.00  0.00    -0.305 OA
BRANCH  14  15
ATOM     15  C   UNL d   1     -39.483  14.908  21.915  0.00  0.00     0.100 A 
ATOM     16  C   UNL d   1     -39.446  15.699  22.127  0.00  0.00     0.025 A 
ATOM     17  C   UNL d   1     -39.005  15.916  22.793  0.00  0.00     0.002 A 
ATOM     18  C   UNL d   1     -38.610  15.347  23.237  0.00  0.00     0.000 A 
ATOM     19  C   UNL d   1     -38.654  14.549  23.013  0.00  0.00     0.002 A 
ATOM     20  C   UNL d   1     -39.089  14.332  22.354  0.00  0.00     0.025 A 
ENDBRANCH  14  15
ENDBRANCH  13  14
ENDBRANCH  12  13
ENDBRANCH  11  12
ENDBRANCH   2  11
TORSDOF 5
ENDMDL
MODEL 6
REMARK VINA RESULT:      -5.3      1.933      4.805
REMARK  5 active torsions:
REMARK  status: ('A' for Active; 'I' for Inactive)
REMARK    1  A    between atoms: C_7  and  N_2 
REMARK    2  A    between atoms: C_8  and  C_7 
REMARK    3  A    between atoms: C_13  and  C_8 
REMARK    4  A    between atoms: C_9  and  O_11 
REMARK    5  A    between atoms: O_11  and  C_13 
ROOT
ATOM      1  C   UNL d   1     -46.277  12.205  23.240  0.00  0.00     0.296 A 
ATOM      2  N   UNL d   1     -46.183  12.961  22.905  0.00  0.00    -0.268 N 
ATOM      3  S   UNL d   1     -45.617  11.755  23.032  0.00  0.00    -0.025 SA
ATOM      4  C   UNL d   1     -45.466  12.970  22.493  0.00  0.00     0.073 A 
ATOM      5  C   UNL d   1     -45.117  12.222  22.573  0.00  0.00     0.050 A 
ATOM      6  O   UNL d   1     -46.915  11.953  23.697  0.00  0.00    -0.259 OA
ATOM      7  C   UNL d   1     -45.090  13.558  22.060  0.00  0.00     0.018 A 
ATOM      8  C   UNL d   1     -44.382  12.073  22.210  0.00  0.00     0.008 A 
ATOM      9  C   UNL d   1     -44.363  13.406  21.703  0.00  0.00     0.002 A 
ATOM     10  C   UNL d   1     -44.011  12.669  21.777  0.00  0.00     0.001 A 
ENDROOT
BRANCH   2  11
ATOM     11  C   UNL d   1     -46.710  13.589  22.971  0.00  0.00     0.086 C 
BRANCH  11  12
ATOM     12  C   UNL d   1     -47.491  13.498  22.713  0.00  0.00     0.046 C 
BRANCH  12  13
ATOM     13  C   UNL d   1     -47.993  14.152  22.678  0.00  0.00     0.124 C 
BRANCH  13  14
ATOM     14  O   UNL d   1     -48.757  14.067  22.397  0.00  0.00    -0.305 OA
BRANCH  14  15
ATOM     15  C   UNL d   1     -49.530  13.982  22.115  0.00  0.00     0.100 A 
ATOM     16  C   UNL d   1     -49.743  13.283  21.742  0.00  0.00     0.025 A 
ATOM     17  C   UNL d   1     -50.517  13.198  21.460  0.00  0.00     0.002 A 
ATOM     18  C   UNL d   1     -51.064  13.806  21.551  0.00  0.00     0.000 A 
ATOM     19  C   UNL d   1     -50.838  14.508  21.929  0.00  0.00     0.002 A 
ATOM     20  C   UNL d   1     -50.073  14.595  22.209  0.00  0.00     0.025 A 
ENDBRANCH  14  15
ENDBRANCH  13  14
ENDBRANCH  12  13
ENDBRANCH  11  12
ENDBRANCH   2  11
TORSDOF 5
ENDMDL
MODEL 7
REMARK VINA RESULT:      -4.8      9.348     10.812
REMARK  5 active torsions:
REMARK  status: ('A' for Active; 'I' for Inactive)
REMARK    1  A    between atoms: C_7  and  N_2 
REMARK    2  A    between atoms: C_8  and  C_7 
REMARK    3  A    between atoms: C_13  and  C_8 
REMARK    4  A    between atoms: C_9  and  O_11 
REMARK    5  A    between atoms: O_11  and  C_13 
ROOT
ATOM      1  C   UNL d   1     -38.908  13.274  17.290  0.00  0.00     0.296 A 
ATOM      2  N   UNL d   1     -39.280  14.008  17.413  0.00  0.00    -0.268 N 
ATOM      3  S   UNL d   1     -38.356  13.372  16.684  0.00  0.00    -0.025 SA
ATOM      4  C   UNL d   1     -38.955  14.552  16.881  0.00  0.00     0.073 A 
ATOM      5  C   UNL d   1     -38.382  14.156  16.431  0.00  0.00     0.050 A 
ATOM      6  O   UNL d   1     -39.063  12.576  17.699  0.00  0.00    -0.259 OA
ATOM      7  C   UNL d   1     -39.106  15.349  16.753  0.00  0.00     0.018 A 
ATOM      8  C   UNL d   1     -37.962  14.575  15.846  0.00  0.00     0.008 A 
ATOM      9  C   UNL d   1     -38.687  15.759  16.173  0.00  0.00     0.002 A 
ATOM     10  C   UNL d   1     -38.119  15.375  15.723  0.00  0.00     0.001 A 
ENDROOT
BRANCH   2  11
ATOM     11  C   UNL d   1     -39.869  14.166  17.965  0.00  0.00     0.086 C 
BRANCH  11  12
ATOM     12  C   UNL d   1     -39.668  14.260  18.763  0.00  0.00     0.046 C 
BRANCH  12  13
ATOM     13  C   UNL d   1     -40.254  14.426  19.319  0.00  0.00     0.124 C 
BRANCH  13  14
ATOM     14  O   UNL d   1     -40.047  14.664  20.074  0.00  0.00    -0.305 OA
BRANCH  14  15
ATOM     15  C   UNL d   1     -39.838  14.905  20.838  0.00  0.00     0.100 A 
ATOM     16  C   UNL d   1     -39.975  15.682  21.062  0.00  0.00     0.025 A 
ATOM     17  C   UNL d   1     -39.766  15.922  21.826  0.00  0.00     0.002 A 
ATOM     18  C   UNL d   1     -39.426  15.389  22.354  0.00  0.00     0.000 A 
ATOM     19  C   UNL d   1     -39.293  14.606  22.117  0.00  0.00     0.002 A 
ATOM     20  C   UNL d   1     -39.499  14.366  21.361  0.00  0.00     0.025 A 
ENDBRANCH  14  15
ENDBRANCH  13  14
ENDBRANCH  12  13
ENDBRANCH  11  12
ENDBRANCH   2  11
TORSDOF 5
ENDMDL
