MODEL 1
REMARK VINA RESULT:      -2.8      0.000      0.000
REMARK  11 active torsions:
REMARK  status: ('A' for Active; 'I' for Inactive)
REMARK    1  A    between atoms: N_5  and  S_1 
REMARK    2  A    between atoms: C_8  and  S_1 
REMARK    3  A    between atoms: C_2  and  N_10 
REMARK    4  A    between atoms: C_9  and  N_5 
REMARK    5  A    between atoms: C_18  and  N_5 
REMARK    6  A    between atoms: C_13  and  C_9 
REMARK    7  A    between atoms: N_10  and  O_14 
REMARK    8  A    between atoms: C_17  and  C_13 
REMARK    9  A    between atoms: O_14  and  C_17 
REMARK   10  A    between atoms: C_27  and  C_18 
REMARK   11  A    between atoms: C_29  and  C_27 
ROOT
ATOM      1  C   UNL d   1      32.263  18.571 -23.827  0.00  0.00     0.240 C 
ATOM      2  O   UNL d   1      32.284  18.549 -24.651  0.00  0.00    -0.283 OA
ENDROOT
BRANCH   1   3
ATOM      3  C   UNL d   1      31.585  18.100 -23.904  0.00  0.00     0.136 C 
BRANCH   3   4
ATOM      4  N   UNL d   1      31.671  17.303 -24.111  0.00  0.00    -0.226 N 
BRANCH   4   5
ATOM      5  S   UNL d   1      31.001  16.827 -24.217  0.00  0.00     0.271 S 
ATOM      6  O   UNL d   1      31.513  16.532 -24.798  0.00  0.00    -0.200 OA
ATOM      7  O   UNL d   1      30.360  16.966 -23.720  0.00  0.00    -0.200 OA
BRANCH   5   8
ATOM      8  C   UNL d   1      30.254  16.499 -24.130  0.00  0.00     0.104 A 
ATOM      9  C   UNL d   1      29.754  16.436 -24.781  0.00  0.00     0.013 A 
ATOM     10  C   UNL d   1      29.001  16.106 -24.690  0.00  0.00     0.001 A 
ATOM     11  C   UNL d   1      28.753  15.839 -23.946  0.00  0.00     0.000 A 
ATOM     12  C   UNL d   1      29.299  15.927 -23.323  0.00  0.00     0.001 A 
ATOM     13  C   UNL d   1      28.006  15.506 -23.831  0.00  0.00     0.000 C 
ATOM     14  C   UNL d   1      30.050  16.248 -23.372  0.00  0.00     0.013 A 
ENDBRANCH   5   8
ENDBRANCH   4   5
BRANCH   4  15
ATOM     15  C   UNL d   1      32.333  16.840 -24.248  0.00  0.00     0.095 C 
BRANCH  15  16
ATOM     16  C   UNL d   1      32.989  16.904 -23.747  0.00  0.00     0.065 C 
BRANCH  16  17
ATOM     17  C   UNL d   1      33.241  16.245 -23.311  0.00  0.00     0.236 C 
ATOM     18  O   UNL d   1      32.814  15.547 -23.337  0.00  0.00    -0.283 OA
ENDBRANCH  16  17
ENDBRANCH  15  16
ENDBRANCH   4  15
ENDBRANCH   3   4
ENDBRANCH   1   3
BRANCH   1  19
ATOM     19  C   UNL d   1      32.832  18.983 -23.409  0.00  0.00     0.193 C 
BRANCH  19  20
ATOM     20  O   UNL d   1      32.673  19.748 -23.145  0.00  0.00    -0.206 OA
BRANCH  20  21
ATOM     21  N   UNL d   1      33.206  20.133 -22.639  0.00  0.00    -0.126 NA
BRANCH  21  22
ATOM     22  C   UNL d   1      33.088  20.923 -22.438  0.00  0.00     0.108 A 
ATOM     23  C   UNL d   1      33.108  21.566 -22.959  0.00  0.00     0.020 A 
ATOM     24  C   UNL d   1      32.960  22.247 -22.517  0.00  0.00     0.002 A 
ATOM     25  C   UNL d   1      33.240  21.612 -23.763  0.00  0.00     0.002 A 
ATOM     26  C   UNL d   1      32.947  22.981 -22.898  0.00  0.00     0.000 A 
ATOM     27  C   UNL d   1      32.849  22.040 -21.735  0.00  0.00     0.002 A 
ATOM     28  C   UNL d   1      33.080  23.029 -23.705  0.00  0.00     0.000 A 
ATOM     29  C   UNL d   1      33.226  22.344 -24.136  0.00  0.00     0.000 A 
ATOM     30  C   UNL d   1      32.927  21.222 -21.680  0.00  0.00     0.020 A 
ATOM     31  C   UNL d   1      32.687  22.479 -21.062  0.00  0.00     0.000 A 
ATOM     32  C   UNL d   1      32.844  20.842 -20.956  0.00  0.00     0.002 A 
ATOM     33  C   UNL d   1      32.681  21.279 -20.279  0.00  0.00     0.000 A 
ATOM     34  C   UNL d   1      32.604  22.104 -20.337  0.00  0.00     0.000 A 
ENDBRANCH  21  22
ENDBRANCH  20  21
ENDBRANCH  19  20
ENDBRANCH   1  19
TORSDOF 11
ENDMDL
