MODEL 1
REMARK VINA RESULT:      11.3      0.000      0.000
REMARK  5 active torsions:
REMARK  status: ('A' for Active; 'I' for Inactive)
REMARK    1  A    between atoms: N_2  and  S_1 
REMARK    2  A    between atoms: C_5  and  S_1 
REMARK    3  A    between atoms: C_3  and  N_2 
REMARK    4  A    between atoms: C_4  and  C_3 
REMARK       I    between atoms: N_8  and  C_4 
REMARK    5  A    between atoms: C_12  and  N_8 
ROOT
ATOM      1  N   UNL d   1      46.263 -17.420  44.064  0.00  0.00    -0.223 N 
ATOM      2  C   UNL d   1      46.344 -17.120  43.298  0.00  0.00     0.112 C 
ENDROOT
BRANCH   1   3
ATOM      3  S   UNL d   1      46.311 -18.234  44.188  0.00  0.00     0.272 S 
ATOM      4  O   UNL d   1      46.276 -18.538  44.955  0.00  0.00    -0.200 OA
ATOM      5  O   UNL d   1      46.327 -17.747  43.524  0.00  0.00    -0.200 OA
BRANCH   3   6
ATOM      6  C   UNL d   1      46.396 -18.748  43.545  0.00  0.00     0.104 A 
ATOM      7  C   UNL d   1      46.558 -18.451  42.791  0.00  0.00     0.013 A 
ATOM      8  C   UNL d   1      46.642 -18.975  42.150  0.00  0.00     0.001 A 
ATOM      9  C   UNL d   1      46.563 -19.788  42.265  0.00  0.00     0.000 A 
ATOM     10  C   UNL d   1      46.401 -20.085  43.020  0.00  0.00     0.001 A 
ATOM     11  C   UNL d   1      46.647 -20.304  41.627  0.00  0.00     0.000 C 
ATOM     12  C   UNL d   1      46.317 -19.568  43.658  0.00  0.00     0.013 A 
ENDBRANCH   3   6
ENDBRANCH   1   3
BRANCH   1  13
ATOM     13  C   UNL d   1      46.136 -16.907  44.698  0.00  0.00     0.154 C 
BRANCH  13  14
ATOM     14  C   UNL d   1      45.778 -16.175  44.569  0.00  0.00     0.298 C 
ATOM     15  N   UNL d   1      46.157 -15.485  44.820  0.00  0.00    -0.207 NA
ATOM     16  O   UNL d   1      45.045 -16.134  44.189  0.00  0.00    -0.264 OA
BRANCH  15  17
ATOM     17  C   UNL d   1      45.800 -14.753  44.691  0.00  0.00     0.085 A 
ATOM     18  C   UNL d   1      46.222 -14.146  44.339  0.00  0.00     0.019 A 
ATOM     19  C   UNL d   1      45.865 -13.414  44.209  0.00  0.00     0.002 A 
ATOM     20  C   UNL d   1      45.081 -13.294  44.436  0.00  0.00     0.000 A 
ATOM     21  C   UNL d   1      44.657 -13.908  44.792  0.00  0.00     0.002 A 
ATOM     22  C   UNL d   1      45.019 -14.635  44.917  0.00  0.00     0.019 A 
ENDBRANCH  15  17
ENDBRANCH  13  14
ENDBRANCH   1  13
TORSDOF 5
ENDMDL
MODEL 2
REMARK VINA RESULT:      12.3      1.063      4.851
REMARK  5 active torsions:
REMARK  status: ('A' for Active; 'I' for Inactive)
REMARK    1  A    between atoms: N_2  and  S_1 
REMARK    2  A    between atoms: C_5  and  S_1 
REMARK    3  A    between atoms: C_3  and  N_2 
REMARK    4  A    between atoms: C_4  and  C_3 
REMARK       I    between atoms: N_8  and  C_4 
REMARK    5  A    between atoms: C_12  and  N_8 
ROOT
ATOM      1  N   UNL d   1      45.867 -15.806  44.756  0.00  0.00    -0.223 N 
ATOM      2  C   UNL d   1      46.610 -15.496  44.569  0.00  0.00     0.112 C 
ENDROOT
BRANCH   1   3
ATOM      3  S   UNL d   1      45.209 -15.310  44.756  0.00  0.00     0.272 S 
ATOM      4  O   UNL d   1      44.465 -15.610  44.953  0.00  0.00    -0.200 OA
ATOM      5  O   UNL d   1      46.010 -15.210  44.595  0.00  0.00    -0.200 OA
BRANCH   3   6
ATOM      6  C   UNL d   1      45.291 -14.510  44.558  0.00  0.00     0.104 A 
ATOM      7  C   UNL d   1      45.842 -14.037  44.953  0.00  0.00     0.013 A 
ATOM      8  C   UNL d   1      45.918 -13.234  44.749  0.00  0.00     0.001 A 
ATOM      9  C   UNL d   1      45.446 -12.910  44.155  0.00  0.00     0.000 A 
ATOM     10  C   UNL d   1      44.895 -13.384  43.761  0.00  0.00     0.001 A 
ATOM     11  C   UNL d   1      45.524 -12.114  43.956  0.00  0.00     0.000 C 
ATOM     12  C   UNL d   1      44.816 -14.180  43.960  0.00  0.00     0.013 A 
ENDBRANCH   3   6
ENDBRANCH   1   3
BRANCH   1  13
ATOM     13  C   UNL d   1      45.788 -16.606  44.941  0.00  0.00     0.154 C 
BRANCH  13  14
ATOM     14  C   UNL d   1      46.071 -17.179  44.419  0.00  0.00     0.298 C 
ATOM     15  N   UNL d   1      45.789 -17.954  44.469  0.00  0.00    -0.207 NA
ATOM     16  O   UNL d   1      46.635 -16.977  43.848  0.00  0.00    -0.264 OA
BRANCH  15  17
ATOM     17  C   UNL d   1      46.072 -18.527  43.947  0.00  0.00     0.085 A 
ATOM     18  C   UNL d   1      46.337 -19.247  44.233  0.00  0.00     0.019 A 
ATOM     19  C   UNL d   1      46.621 -19.819  43.711  0.00  0.00     0.002 A 
ATOM     20  C   UNL d   1      46.637 -19.666  42.901  0.00  0.00     0.000 A 
ATOM     21  C   UNL d   1      46.368 -18.937  42.616  0.00  0.00     0.002 A 
ATOM     22  C   UNL d   1      46.087 -18.372  43.141  0.00  0.00     0.019 A 
ENDBRANCH  15  17
ENDBRANCH  13  14
ENDBRANCH   1  13
TORSDOF 5
ENDMDL
