MODEL 1
REMARK VINA RESULT:       2.7      0.000      0.000
REMARK  10 active torsions:
REMARK  status: ('A' for Active; 'I' for Inactive)
REMARK    1  A    between atoms: C_2  and  C_1 
REMARK       I    between atoms: N_3  and  C_1 
REMARK    2  A    between atoms: C_5  and  C_2 
REMARK    3  A    between atoms: C_6  and  N_3 
REMARK    4  A    between atoms: C_4  and  C_5 
REMARK    5  A    between atoms: O_11  and  C_4 
REMARK    6  A    between atoms: N_10  and  C_5 
REMARK    7  A    between atoms: O_13  and  C_9 
REMARK    8  A    between atoms: C_14  and  N_10 
REMARK    9  A    between atoms: N_12  and  C_16 
REMARK   10  A    between atoms: C_16  and  C_14 
ROOT
ATOM      1  C   UNK d   1     -41.124-122.255 -51.240  0.00  0.00     0.084 C 
ENDROOT
BRANCH   1   2
ATOM      2  C   UNK d   1     -41.251-122.649 -51.946  0.00  0.00     0.259 C 
ATOM      3  N   UNK d   1     -41.214-122.239 -52.659  0.00  0.00    -0.320 N 
ATOM      4  H   UNK d   1     -41.047-121.423 -52.655  0.00  0.00     0.169 HD
ATOM      5  O   UNK d   1     -41.417-123.464 -51.941  0.00  0.00    -0.267 OA
BRANCH   3   6
ATOM      6  C   UNK d   1     -41.340-122.627 -53.366  0.00  0.00     0.082 A 
ATOM      7  C   UNK d   1     -41.655-122.204 -54.014  0.00  0.00     0.110 A 
ATOM      8  C   UNK d   1     -41.786-122.595 -54.737  0.00  0.00     0.026 A 
ATOM      9  C   UNK d   1     -41.597-123.400 -54.791  0.00  0.00     0.002 A 
ATOM     10  C   UNK d   1     -41.284-123.817 -54.143  0.00  0.00     0.002 A 
ATOM     11  C   UNK d   1     -41.156-123.432 -53.433  0.00  0.00     0.019 A 
BRANCH   7  12
ATOM     12  O   UNK d   1     -41.835-121.405 -53.937  0.00  0.00    -0.327 OA
ATOM     13  C   UNK d   1     -42.503-121.099 -54.309  0.00  0.00     0.181 C 
ENDBRANCH   7  12
ENDBRANCH   3   6
ENDBRANCH   1   2
BRANCH   1  14
ATOM     14  C   UNK d   1     -41.635-122.372 -50.609  0.00  0.00     0.124 C 
BRANCH  14  15
ATOM     15  C   UNK d   1     -41.374-122.781 -49.934  0.00  0.00     0.194 C 
ATOM     16  O   UNK d   1     -41.133-123.565 -49.985  0.00  0.00    -0.645 OA
BRANCH  15  17
ATOM     17  O   UNK d   1     -41.354-122.402 -49.197  0.00  0.00    -0.772 OA
ATOM     18  H   UNK d   1     -40.630-122.187 -48.876  0.00  0.00     0.167 HD
ENDBRANCH  15  17
ENDBRANCH  14  15
BRANCH  14  19
ATOM     19  N   UNK d   1     -42.393-122.088 -50.649  0.00  0.00    -0.346 N 
ATOM     20  H   UNK d   1     -42.559-121.430 -51.118  0.00  0.00     0.166 HD
BRANCH  19  21
ATOM     21  C   UNK d   0     -43.002-122.449 -50.228  0.00  0.00     0.092 C 
BRANCH  21  22
ATOM     22  C   UNK d   0     -43.763-122.140 -50.239  0.00  0.00     0.099 C 
BRANCH  22  23
ATOM     23  N   UNK d   0     -44.390-122.591 -49.950  0.00  0.00    -0.299 N 
ATOM     24  C   UNK d   0     -44.249-123.340 -49.639  0.00  0.00     0.100 C 
ATOM     25  C   UNK d   0     -45.161-122.296 -49.971  0.00  0.00     0.100 C 
ENDBRANCH  22  23
ENDBRANCH  21  22
ENDBRANCH  19  21
ENDBRANCH  14  19
ENDBRANCH   1  14
TORSDOF 10
ENDMDL
MODEL 2
REMARK VINA RESULT:       4.8      1.075      1.384
REMARK  10 active torsions:
REMARK  status: ('A' for Active; 'I' for Inactive)
REMARK    1  A    between atoms: C_2  and  C_1 
REMARK       I    between atoms: N_3  and  C_1 
REMARK    2  A    between atoms: C_5  and  C_2 
REMARK    3  A    between atoms: C_6  and  N_3 
REMARK    4  A    between atoms: C_4  and  C_5 
REMARK    5  A    between atoms: O_11  and  C_4 
REMARK    6  A    between atoms: N_10  and  C_5 
REMARK    7  A    between atoms: O_13  and  C_9 
REMARK    8  A    between atoms: C_14  and  N_10 
REMARK    9  A    between atoms: N_12  and  C_16 
REMARK   10  A    between atoms: C_16  and  C_14 
ROOT
ATOM      1  C   UNK d   1     -42.199-123.104 -52.172  0.00  0.00     0.084 C 
ENDROOT
BRANCH   1   2
ATOM      2  C   UNK d   1     -41.968-122.719 -52.856  0.00  0.00     0.259 C 
ATOM      3  N   UNK d   1     -42.337-122.892 -53.572  0.00  0.00    -0.320 N 
ATOM      4  H   UNK d   1     -42.945-123.460 -53.593  0.00  0.00     0.169 HD
ATOM      5  O   UNK d   1     -41.360-122.152 -52.827  0.00  0.00    -0.267 OA
BRANCH   3   6
ATOM      6  C   UNK d   1     -42.111-122.509 -54.256  0.00  0.00     0.082 A 
ATOM      7  C   UNK d   1     -42.657-122.010 -54.645  0.00  0.00     0.110 A 
ATOM      8  C   UNK d   1     -42.431-121.618 -55.344  0.00  0.00     0.026 A 
ATOM      9  C   UNK d   1     -41.664-121.737 -55.633  0.00  0.00     0.002 A 
ATOM     10  C   UNK d   1     -41.125-122.234 -55.243  0.00  0.00     0.002 A 
ATOM     11  C   UNK d   1     -41.347-122.619 -54.557  0.00  0.00     0.019 A 
BRANCH   7  12
ATOM     12  O   UNK d   1     -43.413-121.908 -54.338  0.00  0.00    -0.327 OA
ATOM     13  C   UNK d   1     -44.026-121.669 -54.834  0.00  0.00     0.181 C 
ENDBRANCH   7  12
ENDBRANCH   3   6
ENDBRANCH   1   2
BRANCH   1  14
ATOM     14  C   UNK d   1     -42.160-122.715 -51.451  0.00  0.00     0.124 C 
BRANCH  14  15
ATOM     15  C   UNK d   1     -41.471-122.766 -50.988  0.00  0.00     0.194 C 
ATOM     16  O   UNK d   1     -41.124-123.495 -50.832  0.00  0.00    -0.645 OA
BRANCH  15  17
ATOM     17  O   UNK d   1     -41.125-122.081 -50.677  0.00  0.00    -0.772 OA
ATOM     18  H   UNK d   1     -40.317-122.069 -50.534  0.00  0.00     0.167 HD
ENDBRANCH  15  17
ENDBRANCH  14  15
BRANCH  14  19
ATOM     19  N   UNK d   1     -42.796-122.282 -51.194  0.00  0.00    -0.346 N 
ATOM     20  H   UNK d   1     -42.876-121.495 -51.425  0.00  0.00     0.166 HD
BRANCH  19  21
ATOM     21  C   UNK d   0     -43.365-122.620 -50.704  0.00  0.00     0.092 C 
BRANCH  21  22
ATOM     22  C   UNK d   0     -43.269-122.628 -49.888  0.00  0.00     0.099 C 
BRANCH  22  23
ATOM     23  N   UNK d   0     -43.772-123.085 -49.423  0.00  0.00    -0.299 N 
ATOM     24  C   UNK d   0     -44.557-123.193 -49.647  0.00  0.00     0.100 C 
ATOM     25  C   UNK d   0     -43.494-123.438 -48.731  0.00  0.00     0.100 C 
ENDBRANCH  22  23
ENDBRANCH  21  22
ENDBRANCH  19  21
ENDBRANCH  14  19
ENDBRANCH   1  14
TORSDOF 10
ENDMDL
