MODEL 1
REMARK VINA RESULT:      -2.7      0.000      0.000
REMARK  5 active torsions:
REMARK  status: ('A' for Active; 'I' for Inactive)
REMARK    1  A    between atoms: C_2  and  C_1 
REMARK    2  A    between atoms: C_3  and  C_1 
REMARK    3  A    between atoms: C_4  and  C_1 
REMARK    4  A    between atoms: C_5  and  C_2 
REMARK    5  A    between atoms: C_13  and  C_5 
ROOT
ATOM      1  C   UNL d   1      31.665  16.935 -24.111  0.00  0.00     0.029 C 
ENDROOT
BRANCH   1   2
ATOM      2  C   UNL d   1      31.870  17.730 -24.059  0.00  0.00     0.044 C 
BRANCH   2   3
ATOM      3  C   UNL d   1      32.320  17.995 -23.426  0.00  0.00     0.196 C 
ATOM      4  O   UNL d   1      32.445  17.586 -22.932  0.00  0.00    -0.287 OA
BRANCH   3   5
ATOM      5  C   UNL d   1      32.626  18.778 -23.393  0.00  0.00     0.039 A 
ATOM      6  C   UNL d   1      32.859  19.073 -22.662  0.00  0.00     0.003 A 
ATOM      7  C   UNL d   1      33.163  19.851 -22.625  0.00  0.00     0.000 A 
ATOM      8  C   UNL d   1      33.229  20.311 -23.310  0.00  0.00     0.000 A 
ATOM      9  C   UNL d   1      32.989  19.989 -24.024  0.00  0.00     0.000 A 
ATOM     10  C   UNL d   1      32.690  19.234 -24.074  0.00  0.00     0.003 A 
ENDBRANCH   3   5
ENDBRANCH   2   3
ENDBRANCH   1   2
BRANCH   1  11
ATOM     11  C   UNL d   1      32.243  16.371 -24.298  0.00  0.00     0.100 A 
ATOM     12  O   UNL d   1      32.400  16.192 -25.084  0.00  0.00    -0.305 OA
ATOM     13  C   UNL d   1      32.993  15.620 -25.095  0.00  0.00     0.123 A 
ATOM     14  C   UNL d   1      33.195  15.453 -24.313  0.00  0.00     0.029 A 
ATOM     15  C   UNL d   1      32.739  15.910 -23.825  0.00  0.00     0.027 A 
ENDBRANCH   1  11
BRANCH   1  16
ATOM     16  C   UNL d   1      30.877  16.709 -23.976  0.00  0.00     0.041 A 
ATOM     17  C   UNL d   1      30.265  17.011 -24.439  0.00  0.00     0.196 A 
ATOM     18  O   UNL d   1      30.420  17.549 -25.052  0.00  0.00    -0.287 OA
ATOM     19  C   UNL d   1      29.476  16.771 -24.288  0.00  0.00     0.042 A 
ATOM     20  C   UNL d   1      29.312  16.238 -23.682  0.00  0.00     0.003 A 
ATOM     21  C   UNL d   1      29.925  15.936 -23.220  0.00  0.00     0.000 A 
ATOM     22  C   UNL d   1      30.701  16.167 -23.362  0.00  0.00     0.003 A 
ENDBRANCH   1  16
TORSDOF 5
ENDMDL
MODEL 2
REMARK VINA RESULT:      -1.9      0.927      3.353
REMARK  5 active torsions:
REMARK  status: ('A' for Active; 'I' for Inactive)
REMARK    1  A    between atoms: C_2  and  C_1 
REMARK    2  A    between atoms: C_3  and  C_1 
REMARK    3  A    between atoms: C_4  and  C_1 
REMARK    4  A    between atoms: C_5  and  C_2 
REMARK    5  A    between atoms: C_13  and  C_5 
ROOT
ATOM      1  C   UNL d   1      32.213  17.311 -23.903  0.00  0.00     0.029 C 
ENDROOT
BRANCH   1   2
ATOM      2  C   UNL d   1      31.498  17.286 -24.308  0.00  0.00     0.044 C 
BRANCH   2   3
ATOM      3  C   UNL d   1      30.827  16.992 -23.937  0.00  0.00     0.196 C 
ATOM      4  O   UNL d   1      30.884  16.728 -23.342  0.00  0.00    -0.287 OA
BRANCH   3   5
ATOM      5  C   UNL d   1      30.068  17.021 -24.298  0.00  0.00     0.039 A 
ATOM      6  C   UNL d   1      29.870  17.692 -24.730  0.00  0.00     0.003 A 
ATOM      7  C   UNL d   1      29.116  17.725 -25.092  0.00  0.00     0.000 A 
ATOM      8  C   UNL d   1      28.584  17.096 -25.014  0.00  0.00     0.000 A 
ATOM      9  C   UNL d   1      28.810  16.441 -24.577  0.00  0.00     0.000 A 
ATOM     10  C   UNL d   1      29.540  16.396 -24.220  0.00  0.00     0.003 A 
ENDBRANCH   3   5
ENDBRANCH   2   3
ENDBRANCH   1   2
BRANCH   1  11
ATOM     11  C   UNL d   1      32.593  16.606 -23.693  0.00  0.00     0.100 A 
ATOM     12  O   UNL d   1      32.646  16.390 -22.902  0.00  0.00    -0.305 OA
ATOM     13  C   UNL d   1      33.049  15.672 -22.867  0.00  0.00     0.123 A 
ATOM     14  C   UNL d   1      33.241  15.453 -23.639  0.00  0.00     0.029 A 
ATOM     15  C   UNL d   1      32.964  16.020 -24.145  0.00  0.00     0.027 A 
ENDBRANCH   1  11
BRANCH   1  16
ATOM     16  C   UNL d   1      32.544  18.047 -23.710  0.00  0.00     0.041 A 
ATOM     17  C   UNL d   1      32.843  18.544 -24.297  0.00  0.00     0.196 A 
ATOM     18  O   UNL d   1      32.821  18.320 -25.097  0.00  0.00    -0.287 OA
ATOM     19  C   UNL d   1      33.174  19.284 -24.084  0.00  0.00     0.042 A 
ATOM     20  C   UNL d   1      33.201  19.515 -23.294  0.00  0.00     0.003 A 
ATOM     21  C   UNL d   1      32.902  19.018 -22.707  0.00  0.00     0.000 A 
ATOM     22  C   UNL d   1      32.576  18.291 -22.909  0.00  0.00     0.003 A 
ENDBRANCH   1  16
TORSDOF 5
ENDMDL
MODEL 3
REMARK VINA RESULT:      -1.0      0.878      3.451
REMARK  5 active torsions:
REMARK  status: ('A' for Active; 'I' for Inactive)
REMARK    1  A    between atoms: C_2  and  C_1 
REMARK    2  A    between atoms: C_3  and  C_1 
REMARK    3  A    between atoms: C_4  and  C_1 
REMARK    4  A    between atoms: C_5  and  C_2 
REMARK    5  A    between atoms: C_13  and  C_5 
ROOT
ATOM      1  C   UNL d   1      32.066  17.557 -23.949  0.00  0.00     0.029 C 
ENDROOT
BRANCH   1   2
ATOM      2  C   UNL d   1      31.342  17.513 -24.337  0.00  0.00     0.044 C 
BRANCH   2   3
ATOM      3  C   UNL d   1      30.653  17.400 -23.905  0.00  0.00     0.196 C 
ATOM      4  O   UNL d   1      30.682  17.415 -23.253  0.00  0.00    -0.287 OA
BRANCH   3   5
ATOM      5  C   UNL d   1      29.911  17.265 -24.277  0.00  0.00     0.039 A 
ATOM      6  C   UNL d   1      29.544  16.539 -24.158  0.00  0.00     0.003 A 
ATOM      7  C   UNL d   1      28.806  16.400 -24.526  0.00  0.00     0.000 A 
ATOM      8  C   UNL d   1      28.454  16.983 -24.998  0.00  0.00     0.000 A 
ATOM      9  C   UNL d   1      28.844  17.696 -25.097  0.00  0.00     0.000 A 
ATOM     10  C   UNL d   1      29.563  17.844 -24.745  0.00  0.00     0.003 A 
ENDBRANCH   3   5
ENDBRANCH   2   3
ENDBRANCH   1   2
BRANCH   1  11
ATOM     11  C   UNL d   1      32.401  18.295 -23.783  0.00  0.00     0.100 A 
ATOM     12  O   UNL d   1      32.315  18.624 -23.035  0.00  0.00    -0.305 OA
ATOM     13  C   UNL d   1      32.703  19.351 -23.036  0.00  0.00     0.123 A 
ATOM     14  C   UNL d   1      33.025  19.463 -23.787  0.00  0.00     0.029 A 
ATOM     15  C   UNL d   1      32.842  18.821 -24.245  0.00  0.00     0.027 A 
ENDBRANCH   1  11
BRANCH   1  16
ATOM     16  C   UNL d   1      32.452  16.855 -23.730  0.00  0.00     0.041 A 
ATOM     17  C   UNL d   1      32.857  16.402 -24.288  0.00  0.00     0.196 A 
ATOM     18  O   UNL d   1      32.890  16.637 -25.084  0.00  0.00    -0.287 OA
ATOM     19  C   UNL d   1      33.241  15.697 -24.049  0.00  0.00     0.042 A 
ATOM     20  C   UNL d   1      33.214  15.456 -23.262  0.00  0.00     0.003 A 
ATOM     21  C   UNL d   1      32.809  15.908 -22.704  0.00  0.00     0.000 A 
ATOM     22  C   UNL d   1      32.430  16.602 -22.932  0.00  0.00     0.003 A 
ENDBRANCH   1  16
TORSDOF 5
ENDMDL
