MODEL 1
REMARK VINA RESULT:      -3.8      0.000      0.000
REMARK  5 active torsions:
REMARK  status: ('A' for Active; 'I' for Inactive)
REMARK    1  A    between atoms: C_4  and  C_1 
REMARK       I    between atoms: N_2  and  C_3 
REMARK    2  A    between atoms: C_6  and  N_2 
REMARK    3  A    between atoms: C_3  and  C_5 
REMARK    4  A    between atoms: C_5  and  C_7 
REMARK    5  A    between atoms: C_7  and  C_14 
ROOT
ATOM      1  C   UNL d   1      32.842  19.650 -22.707  0.00  0.00     0.062 C 
ENDROOT
BRANCH   1   2
ATOM      2  C   UNL d   1      32.864  18.842 -22.781  0.00  0.00     0.279 C 
ATOM      3  N   UNL d   1      32.502  18.489 -23.428  0.00  0.00    -0.208 NA
ATOM      4  O   UNL d   1      33.239  18.391 -22.223  0.00  0.00    -0.265 OA
BRANCH   3   5
ATOM      5  C   UNL d   1      32.522  17.661 -23.507  0.00  0.00     0.085 A 
ATOM      6  C   UNL d   1      31.901  17.282 -23.909  0.00  0.00     0.018 A 
ATOM      7  C   UNL d   1      31.279  17.725 -24.220  0.00  0.00     0.002 C 
ATOM      8  C   UNL d   1      31.910  16.458 -23.994  0.00  0.00     0.002 A 
ATOM      9  C   UNL d   1      32.529  16.019 -23.685  0.00  0.00     0.000 A 
ATOM     10  C   UNL d   1      33.138  16.399 -23.290  0.00  0.00     0.002 A 
ATOM     11  C   UNL d   1      33.140  17.222 -23.198  0.00  0.00     0.019 A 
ENDBRANCH   3   5
ENDBRANCH   1   2
BRANCH   1  12
ATOM     12  C   UNL d   1      33.073  20.006 -21.992  0.00  0.00     0.005 C 
BRANCH  12  13
ATOM     13  C   UNL d   1      33.024  20.826 -21.889  0.00  0.00     0.000 A 
ATOM     14  C   UNL d   1      32.762  21.124 -21.178  0.00  0.00     0.004 A 
ATOM     15  C   UNL d   1      32.721  21.946 -21.098  0.00  0.00     0.071 A 
ATOM     16  C   UNL d   1      32.926  22.453 -21.684  0.00  0.00     0.004 A 
ATOM     17  C   UNL d   1      33.187  22.155 -22.393  0.00  0.00    -0.000 A 
ATOM     18  C   UNL d   1      33.240  21.357 -22.506  0.00  0.00    -0.000 A 
BRANCH  15  19
ATOM     19  C   UNL d   1      32.452  22.229 -20.366  0.00  0.00     0.419 C 
ATOM     20  F   UNL d   1      32.151  22.522 -19.632  0.00  0.00    -0.166 F 
ATOM     21  F   UNL d   1      33.166  22.100 -20.026  0.00  0.00    -0.166 F 
ATOM     22  F   UNL d   1      31.689  22.370 -20.711  0.00  0.00    -0.166 F 
ENDBRANCH  15  19
ENDBRANCH  12  13
ENDBRANCH   1  12
TORSDOF 5
ENDMDL
MODEL 2
REMARK VINA RESULT:      -1.9      1.069      1.606
REMARK  5 active torsions:
REMARK  status: ('A' for Active; 'I' for Inactive)
REMARK    1  A    between atoms: C_4  and  C_1 
REMARK       I    between atoms: N_2  and  C_3 
REMARK    2  A    between atoms: C_6  and  N_2 
REMARK    3  A    between atoms: C_3  and  C_5 
REMARK    4  A    between atoms: C_5  and  C_7 
REMARK    5  A    between atoms: C_7  and  C_14 
ROOT
ATOM      1  C   UNL d   1      32.752  20.644 -22.189  0.00  0.00     0.062 C 
ENDROOT
BRANCH   1   2
ATOM      2  C   UNL d   1      32.893  20.125 -22.795  0.00  0.00     0.279 C 
ATOM      3  N   UNL d   1      32.681  19.337 -22.707  0.00  0.00    -0.208 NA
ATOM      4  O   UNL d   1      33.240  20.382 -23.481  0.00  0.00    -0.265 OA
BRANCH   3   5
ATOM      5  C   UNL d   1      32.825  18.801 -23.327  0.00  0.00     0.085 A 
ATOM      6  C   UNL d   1      33.094  18.037 -23.142  0.00  0.00     0.018 A 
ATOM      7  C   UNL d   1      33.215  17.820 -22.356  0.00  0.00     0.002 C 
ATOM      8  C   UNL d   1      33.240  17.495 -23.752  0.00  0.00     0.002 A 
ATOM      9  C   UNL d   1      33.120  17.711 -24.532  0.00  0.00     0.000 A 
ATOM     10  C   UNL d   1      32.854  18.467 -24.708  0.00  0.00     0.002 A 
ATOM     11  C   UNL d   1      32.704  19.017 -24.108  0.00  0.00     0.019 A 
ENDBRANCH   3   5
ENDBRANCH   1   2
BRANCH   1  12
ATOM     12  C   UNL d   1      33.226  21.322 -22.104  0.00  0.00     0.005 C 
BRANCH  12  13
ATOM     13  C   UNL d   1      32.929  22.008 -21.751  0.00  0.00     0.000 A 
ATOM     14  C   UNL d   1      32.816  22.026 -20.945  0.00  0.00     0.004 A 
ATOM     15  C   UNL d   1      32.518  22.722 -20.613  0.00  0.00     0.071 A 
ATOM     16  C   UNL d   1      32.339  23.371 -21.048  0.00  0.00     0.004 A 
ATOM     17  C   UNL d   1      32.452  23.354 -21.853  0.00  0.00    -0.000 A 
ATOM     18  C   UNL d   1      32.741  22.690 -22.210  0.00  0.00    -0.000 A 
BRANCH  15  19
ATOM     19  C   UNL d   1      32.411  22.718 -19.791  0.00  0.00     0.419 C 
ATOM     20  F   UNL d   1      32.330  22.720 -18.949  0.00  0.00    -0.166 F 
ATOM     21  F   UNL d   1      31.627  22.577 -19.869  0.00  0.00    -0.166 F 
ATOM     22  F   UNL d   1      33.241  22.868 -19.691  0.00  0.00    -0.166 F 
ENDBRANCH  15  19
ENDBRANCH  12  13
ENDBRANCH   1  12
TORSDOF 5
ENDMDL
