MODEL 1
REMARK VINA RESULT:      30.2      0.000      0.000
REMARK  7 active torsions:
REMARK  status: ('A' for Active; 'I' for Inactive)
REMARK    1  A    between atoms: N_9  and  C_2 
REMARK    2  A    between atoms: C_8  and  C_14 
REMARK    3  A    between atoms: C_15  and  N_9 
REMARK    4  A    between atoms: C_14  and  C_16 
REMARK    5  A    between atoms: C_17  and  C_15 
REMARK    6  A    between atoms: C_16  and  C_18 
REMARK    7  A    between atoms: C_18  and  C_17 
ROOT
ATOM      1  N   UNL d   1     -50.617  24.457  33.308  0.00  0.00    -0.198 NA
ATOM      2  C   UNL d   1     -51.321  24.891  33.310  0.00  0.00     0.166 A 
ATOM      3  C   UNL d   1     -50.641  23.632  33.307  0.00  0.00     0.222 A 
ATOM      4  C   UNL d   1     -52.047  24.500  33.310  0.00  0.00     0.054 A 
ATOM      5  N   UNL d   1     -51.370  23.242  33.307  0.00  0.00    -0.217 NA
ATOM      6  C   UNL d   1     -52.072  23.675  33.308  0.00  0.00     0.087 A 
ATOM      7  S   UNL d   1     -49.943  23.192  33.306  0.00  0.00    -0.037 SA
ATOM      8  C   UNL d   1     -52.743  24.934  33.311  0.00  0.00     0.005 A 
ATOM      9  C   UNL d   1     -52.793  23.284  33.308  0.00  0.00     0.019 A 
ATOM     10  C   UNL d   1     -53.474  24.542  33.311  0.00  0.00     0.000 A 
ATOM     11  C   UNL d   1     -53.499  23.718  33.310  0.00  0.00     0.002 A 
ENDROOT
BRANCH   2  12
ATOM     12  N   UNL d   1     -51.296  25.714  33.311  0.00  0.00    -0.225 NA
BRANCH  12  13
ATOM     13  C   UNL d   1     -50.606  26.098  33.545  0.00  0.00     0.101 C 
BRANCH  13  14
ATOM     14  C   UNL d   1     -50.650  26.868  33.837  0.00  0.00     0.021 C 
BRANCH  14  15
ATOM     15  C   UNL d   1     -50.018  27.390  33.718  0.00  0.00     0.002 C 
BRANCH  15  16
ATOM     16  C   UNL d   1     -49.581  27.656  34.360  0.00  0.00     0.006 C 
BRANCH  16  17
ATOM     17  C   UNL d   1     -48.862  28.042  34.235  0.00  0.00     0.070 C 
BRANCH  17  18
ATOM     18  C   UNL d   1     -48.554  28.534  34.822  0.00  0.00     0.211 C 
ATOM     19  O   UNL d   1     -49.039  29.082  35.200  0.00  0.00    -0.644 OA
ATOM     20  O   UNL d   1     -47.753  28.475  35.030  0.00  0.00    -0.644 OA
ENDBRANCH  17  18
ENDBRANCH  16  17
ENDBRANCH  15  16
ENDBRANCH  14  15
ENDBRANCH  13  14
ENDBRANCH  12  13
ENDBRANCH   2  12
TORSDOF 7
ENDMDL
