MODEL 1
REMARK VINA RESULT:      -3.2      0.000      0.000
REMARK  1 active torsions:
REMARK  status: ('A' for Active; 'I' for Inactive)
REMARK    1  A    between atoms: C_2  and  C_1 
ROOT
ATOM      1  C   UNL d   1      31.193  16.927 -23.960  0.00  0.00     0.089 A 
ATOM      2  C   UNL d   1      31.376  16.296 -23.468  0.00  0.00     0.302 A 
ATOM      3  C   UNL d   1      30.404  17.074 -24.178  0.00  0.00     0.009 A 
ATOM      4  O   UNL d   1      30.773  15.805 -23.189  0.00  0.00    -0.273 OA
ATOM      5  C   UNL d   1      29.806  16.576 -23.893  0.00  0.00     0.023 A 
ATOM      6  C   UNL d   1      29.990  15.945 -23.401  0.00  0.00     0.103 A 
ATOM      7  O   UNL d   1      32.168  16.166 -23.262  0.00  0.00    -0.259 OA
ATOM      8  C   UNL d   1      29.019  16.724 -24.111  0.00  0.00     0.002 A 
ATOM      9  C   UNL d   1      29.388  15.454 -23.122  0.00  0.00     0.025 A 
ATOM     10  C   UNL d   1      28.422  16.226 -23.826  0.00  0.00     0.000 A 
ATOM     11  C   UNL d   1      28.606  15.595 -23.334  0.00  0.00     0.002 A 
ENDROOT
BRANCH   1  12
ATOM     12  C   UNL d   1      31.803  17.420 -24.239  0.00  0.00     0.140 A 
ATOM     13  S   UNL d   1      32.161  18.095 -23.939  0.00  0.00    -0.024 SA
ATOM     14  C   UNL d   1      32.732  18.331 -24.471  0.00  0.00     0.236 A 
ATOM     15  N   UNL d   1      33.241  18.992 -24.402  0.00  0.00    -0.118 N 
ATOM     16  N   UNL d   1      32.742  17.821 -25.097  0.00  0.00    -0.119 NA
ATOM     17  N   UNL d   1      32.168  17.248 -24.966  0.00  0.00    -0.139 NA
ENDBRANCH   1  12
TORSDOF 1
ENDMDL
MODEL 2
REMARK VINA RESULT:      -3.1      2.261      3.712
REMARK  1 active torsions:
REMARK  status: ('A' for Active; 'I' for Inactive)
REMARK    1  A    between atoms: C_2  and  C_1 
ROOT
ATOM      1  C   UNL d   1      30.182  16.815 -24.292  0.00  0.00     0.089 A 
ATOM      2  C   UNL d   1      30.171  17.523 -24.707  0.00  0.00     0.302 A 
ATOM      3  C   UNL d   1      30.877  16.562 -23.910  0.00  0.00     0.009 A 
ATOM      4  O   UNL d   1      30.854  17.988 -24.743  0.00  0.00    -0.273 OA
ATOM      5  C   UNL d   1      31.556  17.035 -23.953  0.00  0.00     0.023 A 
ATOM      6  C   UNL d   1      31.545  17.743 -24.367  0.00  0.00     0.103 A 
ATOM      7  O   UNL d   1      29.470  17.757 -25.081  0.00  0.00    -0.259 OA
ATOM      8  C   UNL d   1      32.248  16.782 -23.571  0.00  0.00     0.002 A 
ATOM      9  C   UNL d   1      32.226  18.207 -24.404  0.00  0.00     0.025 A 
ATOM     10  C   UNL d   1      32.927  17.255 -23.614  0.00  0.00     0.000 A 
ATOM     11  C   UNL d   1      32.915  17.963 -24.028  0.00  0.00     0.002 A 
ENDROOT
BRANCH   1  12
ATOM     12  C   UNL d   1      29.492  16.349 -24.258  0.00  0.00     0.140 A 
ATOM     13  S   UNL d   1      28.894  16.273 -23.699  0.00  0.00    -0.024 SA
ATOM     14  C   UNL d   1      28.362  15.723 -23.980  0.00  0.00     0.236 A 
ATOM     15  N   UNL d   1      27.662  15.463 -23.603  0.00  0.00    -0.118 N 
ATOM     16  N   UNL d   1      28.610  15.453 -24.699  0.00  0.00    -0.119 NA
ATOM     17  N   UNL d   1      29.314  15.834 -24.885  0.00  0.00    -0.139 NA
ENDBRANCH   1  12
TORSDOF 1
ENDMDL
MODEL 3
REMARK VINA RESULT:      -3.0      4.117      5.068
REMARK  1 active torsions:
REMARK  status: ('A' for Active; 'I' for Inactive)
REMARK    1  A    between atoms: C_2  and  C_1 
ROOT
ATOM      1  C   UNL d   1      32.800  20.702 -21.722  0.00  0.00     0.089 A 
ATOM      2  C   UNL d   1      33.094  20.159 -21.180  0.00  0.00     0.302 A 
ATOM      3  C   UNL d   1      32.650  20.473 -22.507  0.00  0.00     0.009 A 
ATOM      4  O   UNL d   1      33.241  19.381 -21.418  0.00  0.00    -0.273 OA
ATOM      5  C   UNL d   1      32.800  19.691 -22.736  0.00  0.00     0.023 A 
ATOM      6  C   UNL d   1      33.094  19.148 -22.194  0.00  0.00     0.103 A 
ATOM      7  O   UNL d   1      33.237  20.407 -20.403  0.00  0.00    -0.259 OA
ATOM      8  C   UNL d   1      32.650  19.463 -23.520  0.00  0.00     0.002 A 
ATOM      9  C   UNL d   1      33.241  18.372 -22.431  0.00  0.00     0.025 A 
ATOM     10  C   UNL d   1      32.800  18.682 -23.747  0.00  0.00     0.000 A 
ATOM     11  C   UNL d   1      33.094  18.139 -23.206  0.00  0.00     0.002 A 
ENDROOT
BRANCH   1  12
ATOM     12  C   UNL d   1      32.654  21.485 -21.479  0.00  0.00     0.140 A 
ATOM     13  S   UNL d   1      33.115  22.165 -21.466  0.00  0.00    -0.024 SA
ATOM     14  C   UNL d   1      32.659  22.769 -21.163  0.00  0.00     0.236 A 
ATOM     15  N   UNL d   1      32.892  23.564 -21.045  0.00  0.00    -0.118 N 
ATOM     16  N   UNL d   1      31.924  22.486 -20.986  0.00  0.00    -0.119 NA
ATOM     17  N   UNL d   1      31.906  21.687 -21.177  0.00  0.00    -0.139 NA
ENDBRANCH   1  12
TORSDOF 1
ENDMDL
MODEL 4
REMARK VINA RESULT:      -2.6      2.722      4.490
REMARK  1 active torsions:
REMARK  status: ('A' for Active; 'I' for Inactive)
REMARK    1  A    between atoms: C_2  and  C_1 
ROOT
ATOM      1  C   UNL d   1      32.816  18.886 -23.117  0.00  0.00     0.089 A 
ATOM      2  C   UNL d   1      32.949  19.415 -23.730  0.00  0.00     0.302 A 
ATOM      3  C   UNL d   1      32.821  19.148 -22.328  0.00  0.00     0.009 A 
ATOM      4  O   UNL d   1      33.089  20.212 -23.561  0.00  0.00    -0.273 OA
ATOM      5  C   UNL d   1      32.962  19.948 -22.168  0.00  0.00     0.023 A 
ATOM      6  C   UNL d   1      33.095  20.478 -22.781  0.00  0.00     0.103 A 
ATOM      7  O   UNL d   1      32.940  19.135 -24.509  0.00  0.00    -0.259 OA
ATOM      8  C   UNL d   1      32.966  20.209 -21.380  0.00  0.00     0.002 A 
ATOM      9  C   UNL d   1      33.235  21.273 -22.613  0.00  0.00     0.025 A 
ATOM     10  C   UNL d   1      33.107  21.009 -21.221  0.00  0.00     0.000 A 
ATOM     11  C   UNL d   1      33.241  21.538 -21.834  0.00  0.00     0.002 A 
ENDROOT
BRANCH   1  12
ATOM     12  C   UNL d   1      32.675  18.084 -23.291  0.00  0.00     0.140 A 
ATOM     13  S   UNL d   1      32.056  17.690 -23.662  0.00  0.00    -0.024 SA
ATOM     14  C   UNL d   1      32.237  16.895 -23.668  0.00  0.00     0.236 A 
ATOM     15  N   UNL d   1      31.773  16.277 -23.987  0.00  0.00    -0.118 N 
ATOM     16  N   UNL d   1      32.952  16.780 -23.312  0.00  0.00    -0.119 NA
ATOM     17  N   UNL d   1      33.237  17.513 -23.072  0.00  0.00    -0.139 NA
ENDBRANCH   1  12
TORSDOF 1
ENDMDL
MODEL 5
REMARK VINA RESULT:      -2.5      4.893      6.069
REMARK  1 active torsions:
REMARK  status: ('A' for Active; 'I' for Inactive)
REMARK    1  A    between atoms: C_2  and  C_1 
ROOT
ATOM      1  C   UNL d   1      32.927  21.666 -21.526  0.00  0.00     0.089 A 
ATOM      2  C   UNL d   1      33.095  21.975 -22.268  0.00  0.00     0.302 A 
ATOM      3  C   UNL d   1      32.862  20.844 -21.418  0.00  0.00     0.009 A 
ATOM      4  O   UNL d   1      33.200  21.464 -22.910  0.00  0.00    -0.273 OA
ATOM      5  C   UNL d   1      32.968  20.341 -22.067  0.00  0.00     0.023 A 
ATOM      6  C   UNL d   1      33.136  20.649 -22.810  0.00  0.00     0.103 A 
ATOM      7  O   UNL d   1      33.157  22.796 -22.356  0.00  0.00    -0.259 OA
ATOM      8  C   UNL d   1      32.902  19.521 -21.958  0.00  0.00     0.002 A 
ATOM      9  C   UNL d   1      33.241  20.141 -23.451  0.00  0.00     0.025 A 
ATOM     10  C   UNL d   1      33.009  19.019 -22.607  0.00  0.00     0.000 A 
ATOM     11  C   UNL d   1      33.177  19.327 -23.350  0.00  0.00     0.002 A 
ENDROOT
BRANCH   1  12
ATOM     12  C   UNL d   1      32.822  22.183 -20.882  0.00  0.00     0.140 A 
ATOM     13  S   UNL d   1      33.212  22.272 -20.164  0.00  0.00    -0.024 SA
ATOM     14  C   UNL d   1      32.851  22.881 -19.759  0.00  0.00     0.236 A 
ATOM     15  N   UNL d   1      33.057  23.172 -19.002  0.00  0.00    -0.118 N 
ATOM     16  N   UNL d   1      32.246  23.176 -20.204  0.00  0.00    -0.119 NA
ATOM     17  N   UNL d   1      32.216  22.751 -20.907  0.00  0.00    -0.139 NA
ENDBRANCH   1  12
TORSDOF 1
ENDMDL
MODEL 6
REMARK VINA RESULT:      -2.3      6.226      6.992
REMARK  1 active torsions:
REMARK  status: ('A' for Active; 'I' for Inactive)
REMARK    1  A    between atoms: C_2  and  C_1 
ROOT
ATOM      1  C   UNL d   1      32.788  22.588 -21.901  0.00  0.00     0.089 A 
ATOM      2  C   UNL d   1      32.964  21.828 -22.157  0.00  0.00     0.302 A 
ATOM      3  C   UNL d   1      32.762  23.219 -22.442  0.00  0.00     0.009 A 
ATOM      4  O   UNL d   1      33.115  21.691 -22.958  0.00  0.00    -0.273 OA
ATOM      5  C   UNL d   1      32.915  23.071 -23.243  0.00  0.00     0.023 A 
ATOM      6  C   UNL d   1      33.090  22.311 -23.500  0.00  0.00     0.103 A 
ATOM      7  O   UNL d   1      32.985  21.214 -21.603  0.00  0.00    -0.259 OA
ATOM      8  C   UNL d   1      32.888  23.701 -23.783  0.00  0.00     0.002 A 
ATOM      9  C   UNL d   1      33.241  22.173 -24.299  0.00  0.00     0.025 A 
ATOM     10  C   UNL d   1      33.041  23.552 -24.582  0.00  0.00     0.000 A 
ATOM     11  C   UNL d   1      33.216  22.792 -24.839  0.00  0.00     0.002 A 
ENDROOT
BRANCH   1  12
ATOM     12  C   UNL d   1      32.637  22.724 -21.093  0.00  0.00     0.140 A 
ATOM     13  S   UNL d   1      33.124  22.831 -20.440  0.00  0.00    -0.024 SA
ATOM     14  C   UNL d   1      32.646  22.941 -19.789  0.00  0.00     0.236 A 
ATOM     15  N   UNL d   1      32.894  23.072 -19.001  0.00  0.00    -0.118 N 
ATOM     16  N   UNL d   1      31.872  22.905 -20.016  0.00  0.00    -0.119 NA
ATOM     17  N   UNL d   1      31.851  22.770 -20.826  0.00  0.00    -0.139 NA
ENDBRANCH   1  12
TORSDOF 1
ENDMDL
MODEL 7
REMARK VINA RESULT:      -2.3      3.512      4.430
REMARK  1 active torsions:
REMARK  status: ('A' for Active; 'I' for Inactive)
REMARK    1  A    between atoms: C_2  and  C_1 
ROOT
ATOM      1  C   UNL d   1      32.961  19.824 -22.567  0.00  0.00     0.089 A 
ATOM      2  C   UNL d   1      33.124  20.178 -23.289  0.00  0.00     0.302 A 
ATOM      3  C   UNL d   1      32.844  19.002 -22.519  0.00  0.00     0.009 A 
ATOM      4  O   UNL d   1      33.173  19.714 -23.972  0.00  0.00    -0.273 OA
ATOM      5  C   UNL d   1      32.894  18.546 -23.209  0.00  0.00     0.023 A 
ATOM      6  C   UNL d   1      33.058  18.900 -23.931  0.00  0.00     0.103 A 
ATOM      7  O   UNL d   1      33.238  20.998 -23.316  0.00  0.00    -0.259 OA
ATOM      8  C   UNL d   1      32.777  17.725 -23.160  0.00  0.00     0.002 A 
ATOM      9  C   UNL d   1      33.106  18.438 -24.613  0.00  0.00     0.025 A 
ATOM     10  C   UNL d   1      32.828  17.270 -23.850  0.00  0.00     0.000 A 
ATOM     11  C   UNL d   1      32.992  17.624 -24.572  0.00  0.00     0.002 A 
ENDROOT
BRANCH   1  12
ATOM     12  C   UNL d   1      32.913  20.294 -21.881  0.00  0.00     0.140 A 
ATOM     13  S   UNL d   1      32.588  21.033 -21.729  0.00  0.00    -0.024 SA
ATOM     14  C   UNL d   1      32.716  21.203 -20.942  0.00  0.00     0.236 A 
ATOM     15  N   UNL d   1      32.484  21.895 -20.533  0.00  0.00    -0.118 N 
ATOM     16  N   UNL d   1      33.111  20.590 -20.596  0.00  0.00    -0.119 NA
ATOM     17  N   UNL d   1      33.241  20.016 -21.170  0.00  0.00    -0.139 NA
ENDBRANCH   1  12
TORSDOF 1
ENDMDL
MODEL 8
REMARK VINA RESULT:      -1.6      5.335      6.631
REMARK  1 active torsions:
REMARK  status: ('A' for Active; 'I' for Inactive)
REMARK    1  A    between atoms: C_2  and  C_1 
ROOT
ATOM      1  C   UNL d   1      32.845  21.368 -21.060  0.00  0.00     0.089 A 
ATOM      2  C   UNL d   1      32.609  22.003 -21.524  0.00  0.00     0.302 A 
ATOM      3  C   UNL d   1      32.977  21.470 -20.245  0.00  0.00     0.009 A 
ATOM      4  O   UNL d   1      32.500  22.746 -21.178  0.00  0.00    -0.273 OA
ATOM      5  C   UNL d   1      32.866  22.219 -19.908  0.00  0.00     0.023 A 
ATOM      6  C   UNL d   1      32.629  22.853 -20.372  0.00  0.00     0.103 A 
ATOM      7  O   UNL d   1      32.483  21.881 -22.333  0.00  0.00    -0.259 OA
ATOM      8  C   UNL d   1      32.997  22.319 -19.094  0.00  0.00     0.002 A 
ATOM      9  C   UNL d   1      32.520  23.595 -20.028  0.00  0.00     0.025 A 
ATOM     10  C   UNL d   1      32.886  23.067 -18.758  0.00  0.00     0.000 A 
ATOM     11  C   UNL d   1      32.649  23.702 -19.222  0.00  0.00     0.002 A 
ENDROOT
BRANCH   1  12
ATOM     12  C   UNL d   1      32.954  20.621 -21.411  0.00  0.00     0.140 A 
ATOM     13  S   UNL d   1      32.889  20.350 -22.184  0.00  0.00    -0.024 SA
ATOM     14  C   UNL d   1      33.065  19.553 -22.182  0.00  0.00     0.236 A 
ATOM     15  N   UNL d   1      33.072  19.039 -22.842  0.00  0.00    -0.118 N 
ATOM     16  N   UNL d   1      33.238  19.319 -21.430  0.00  0.00    -0.119 NA
ATOM     17  N   UNL d   1      33.173  19.974 -20.938  0.00  0.00    -0.139 NA
ENDBRANCH   1  12
TORSDOF 1
ENDMDL
