MODEL 1
REMARK VINA RESULT:      81.2      0.000      0.000
REMARK  7 active torsions:
REMARK  status: ('A' for Active; 'I' for Inactive)
REMARK    1  A    between atoms: N_2  and  C_1 
REMARK       I    between atoms: C_6  and  N_2 
REMARK    2  A    between atoms: S_3  and  C_12 
REMARK    3  A    between atoms: C_28  and  N_4 
REMARK    4  A    between atoms: C_8  and  C_6 
REMARK    5  A    between atoms: C_15  and  C_11 
REMARK    6  A    between atoms: C_32  and  C_28 
REMARK    7  A    between atoms: O_31  and  C_32 
ROOT
ATOM      1  N   UNL d   1      45.317 -17.044  39.418  0.00  0.00    -0.184 NA
ATOM      2  C   UNL d   1      44.971 -17.623  39.890  0.00  0.00     0.281 C 
ATOM      3  O   UNL d   1      44.196 -17.863  39.743  0.00  0.00    -0.265 OA
ENDROOT
BRANCH   1   4
ATOM      4  C   UNL d   1      44.883 -16.710  38.801  0.00  0.00     0.182 A 
ATOM      5  N   UNL d   1      45.193 -16.446  38.089  0.00  0.00    -0.283 N 
ATOM      6  C   UNL d   1      44.575 -16.152  37.627  0.00  0.00     0.072 A 
ATOM      7  C   UNL d   1      44.555 -15.820  36.874  0.00  0.00     0.019 A 
ATOM      8  C   UNL d   1      43.878 -16.237  38.060  0.00  0.00     0.049 A 
ATOM      9  C   UNL d   1      43.838 -15.573  36.554  0.00  0.00     0.015 A 
ATOM     10  C   UNL d   1      43.141 -15.658  36.986  0.00  0.00     0.107 A 
ATOM     11  C   UNL d   1      43.161 -15.989  37.739  0.00  0.00     0.021 A 
ATOM     12  S   UNL d   1      44.070 -16.582  38.786  0.00  0.00    -0.048 SA
BRANCH   5  13
ATOM     13  C   UNL d   1      45.988 -16.466  37.864  0.00  0.00     0.108 C 
BRANCH  13  14
ATOM     14  C   UNL d   1      46.481 -15.825  38.016  0.00  0.00     0.135 C 
BRANCH  14  15
ATOM     15  O   UNL d   1      46.617 -15.261  37.435  0.00  0.00    -0.325 OA
ATOM     16  C   UNL d   1      46.645 -14.456  37.626  0.00  0.00     0.182 C 
ENDBRANCH  14  15
ENDBRANCH  13  14
ENDBRANCH   5  13
BRANCH  10  17
ATOM     17  S   UNL d   1      42.414 -15.406  36.658  0.00  0.00     0.302 S 
ATOM     18  O   UNL d   1      42.231 -16.199  36.541  0.00  0.00    -0.197 OA
ATOM     19  O   UNL d   1      42.603 -14.608  36.778  0.00  0.00    -0.197 OA
ATOM     20  N   UNL d   1      41.692 -15.185  36.331  0.00  0.00    -0.043 N 
ENDBRANCH  10  17
ENDBRANCH   1   4
BRANCH   2  21
ATOM     21  C   UNL d   1      45.398 -17.961  40.510  0.00  0.00     0.061 A 
ATOM     22  C   UNL d   1      45.421 -17.594  41.261  0.00  0.00     0.025 A 
ATOM     23  C   UNL d   1      45.848 -17.932  41.880  0.00  0.00     0.087 A 
ATOM     24  N   UNL d   1      46.259 -18.647  41.755  0.00  0.00    -0.245 NA
ATOM     25  C   UNL d   1      46.236 -19.010  41.012  0.00  0.00     0.082 A 
ATOM     26  C   UNL d   1      45.809 -18.671  40.393  0.00  0.00     0.022 A 
ATOM     27  C   UNL d   1      46.646 -19.721  40.889  0.00  0.00     0.019 A 
ATOM     28  C   UNL d   1      45.784 -19.033  39.646  0.00  0.00     0.002 A 
ATOM     29  C   UNL d   1      46.202 -19.752  39.531  0.00  0.00     0.000 A 
ATOM     30  C   UNL d   1      46.629 -20.091  40.150  0.00  0.00     0.002 A 
BRANCH  23  31
ATOM     31  C   UNL d   1      45.870 -17.570  42.619  0.00  0.00     0.047 A 
ATOM     32  S   UNL d   1      46.200 -17.964  43.264  0.00  0.00    -0.085 SA
ATOM     33  C   UNL d   1      46.150 -17.478  43.928  0.00  0.00     0.035 A 
ATOM     34  C   UNL d   1      45.783 -16.779  43.681  0.00  0.00     0.007 A 
ATOM     35  C   UNL d   1      45.609 -16.831  42.879  0.00  0.00     0.009 A 
ENDBRANCH  23  31
ENDBRANCH   2  21
TORSDOF 7
ENDMDL
