MODEL 1
REMARK VINA RESULT:     105.5      0.000      0.000
REMARK  5 active torsions:
REMARK  status: ('A' for Active; 'I' for Inactive)
REMARK    1  A    between atoms: C_7  and  C_1 
REMARK    2  A    between atoms: C_6  and  O_13 
REMARK    3  A    between atoms: C_12  and  C_6 
REMARK    4  A    between atoms: O_13  and  C_10 
REMARK    5  A    between atoms: C_28  and  C_14 
ROOT
ATOM      1  C   UNL d   1      61.185  46.155  50.624  0.00  0.00     0.064 A 
ATOM      2  C   UNL d   1      61.063  47.568  50.490  0.00  0.00     0.062 A 
ATOM      3  C   UNL d   1      61.418  46.859  50.267  0.00  0.00     0.199 A 
ATOM      4  C   UNL d   1      60.598  46.159  51.202  0.00  0.00     0.126 A 
ATOM      5  C   UNL d   1      60.477  47.573  51.069  0.00  0.00     0.105 A 
ATOM      6  O   UNL d   1      60.243  46.868  51.425  0.00  0.00    -0.305 OA
ATOM      7  C   UNL d   1      61.297  48.273  50.133  0.00  0.00     0.007 A 
ATOM      8  C   UNL d   1      60.355  48.990  50.934  0.00  0.00     0.105 A 
ATOM      9  C   UNL d   1      60.122  48.281  51.292  0.00  0.00     0.050 A 
ATOM     10  C   UNL d   1      60.942  48.986  50.356  0.00  0.00     0.023 A 
ATOM     11  O   UNL d   1      62.005  46.855  49.688  0.00  0.00    -0.286 OA
ENDROOT
BRANCH   1  12
ATOM     12  C   UNL d   1      61.539  45.446  50.401  0.00  0.00     0.007 A 
ATOM     13  C   UNL d   1      61.568  44.804  50.934  0.00  0.00     0.027 A 
ATOM     14  C   UNL d   1      61.918  44.100  50.717  0.00  0.00     0.123 A 
ATOM     15  O   UNL d   1      61.944  43.471  51.247  0.00  0.00    -0.301 OA
ATOM     16  C   UNL d   1      62.253  44.016  49.954  0.00  0.00     0.123 A 
ATOM     17  C   UNL d   1      62.300  42.758  51.025  0.00  0.00     0.149 A 
ATOM     18  C   UNL d   1      62.631  42.671  50.274  0.00  0.00     0.149 A 
ATOM     19  O   UNL d   1      62.606  43.307  49.735  0.00  0.00    -0.301 OA
ATOM     20  C   UNL d   1      62.224  44.657  49.421  0.00  0.00     0.027 A 
ATOM     21  C   UNL d   1      61.870  45.366  49.645  0.00  0.00     0.002 A 
ENDBRANCH   1  12
BRANCH  10  22
ATOM     22  C   UNL d   1      61.174  49.699  49.998  0.00  0.00     0.002 C 
ATOM     23  C   UNL d   1      61.494  49.695  49.240  0.00  0.00     0.000 C 
ENDBRANCH  10  22
BRANCH   8  24
ATOM     24  O   UNL d   1      59.999  49.708  51.157  0.00  0.00    -0.271 OA
BRANCH  24  25
ATOM     25  C   UNL d   1      59.341  49.706  51.653  0.00  0.00     0.323 C 
ATOM     26  O   UNL d   1      59.432  49.706  52.468  0.00  0.00    -0.257 OA
BRANCH  25  27
ATOM     27  C   UNL d   1      58.579  49.705  51.327  0.00  0.00     0.163 A 
ATOM     28  O   UNL d   1      58.393  49.705  50.526  0.00  0.00    -0.300 OA
ATOM     29  C   UNL d   1      57.572  49.703  50.445  0.00  0.00     0.123 A 
ATOM     30  C   UNL d   1      57.248  49.703  51.209  0.00  0.00     0.029 A 
ATOM     31  C   UNL d   1      57.876  49.704  51.752  0.00  0.00     0.032 A 
ENDBRANCH  25  27
ENDBRANCH  24  25
ENDBRANCH   8  24
TORSDOF 5
ENDMDL
