MODEL 1
REMARK VINA RESULT:      38.4      0.000      0.000
REMARK  2 active torsions:
REMARK  status: ('A' for Active; 'I' for Inactive)
REMARK    1  A    between atoms: C_7  and  C_1 
REMARK    2  A    between atoms: C_11  and  C_7 
ROOT
ATOM      1  C   UNL d   1     -47.214  32.125  34.690  0.00  0.00     0.116 A 
ATOM      2  N   UNL d   1     -48.278  33.060  34.611  0.00  0.00    -0.152 NA
ATOM      3  N   UNL d   1     -47.506  32.741  33.431  0.00  0.00    -0.152 NA
ATOM      4  C   UNL d   1     -47.812  32.538  35.031  0.00  0.00     0.288 A 
ATOM      5  C   UNL d   1     -47.058  32.225  33.885  0.00  0.00     0.288 A 
ATOM      6  C   UNL d   1     -48.119  33.163  33.785  0.00  0.00     0.374 A 
ATOM      7  O   UNL d   1     -46.439  31.805  33.508  0.00  0.00    -0.265 OA
ATOM      8  O   UNL d   1     -47.962  32.428  35.849  0.00  0.00    -0.265 OA
ATOM      9  O   UNL d   1     -48.561  33.682  33.306  0.00  0.00    -0.242 OA
ENDROOT
BRANCH   1  10
ATOM     10  C   UNL d   1     -46.747  31.593  35.142  0.00  0.00     0.010 C 
BRANCH  10  11
ATOM     11  C   UNL d   1     -47.074  30.866  35.356  0.00  0.00     0.000 A 
ATOM     12  C   UNL d   1     -46.999  30.599  36.125  0.00  0.00     0.002 A 
ATOM     13  C   UNL d   1     -47.322  29.881  36.337  0.00  0.00     0.030 A 
ATOM     14  C   UNL d   1     -47.726  29.424  35.775  0.00  0.00     0.140 A 
ATOM     15  C   UNL d   1     -47.801  29.691  35.005  0.00  0.00     0.030 A 
ATOM     16  F   UNL d   1     -48.068  28.679  35.969  0.00  0.00    -0.204 F 
ATOM     17  C   UNL d   1     -47.477  30.409  34.793  0.00  0.00     0.002 A 
ENDBRANCH  10  11
ENDBRANCH   1  10
TORSDOF 2
ENDMDL
