MODEL 1
REMARK VINA RESULT:     -11.3      0.000      0.000
REMARK  1 active torsions:
REMARK  status: ('A' for Active; 'I' for Inactive)
REMARK    1  A    between atoms: C_12  and  N_2 
ROOT
ATOM      1  C   UNL d   1      53.687  32.387  54.316  0.00  0.00     0.267 A 
ATOM      2  N   UNL d   1      53.614  33.178  54.413  0.00  0.00    -0.271 N 
ATOM      3  C   UNL d   1      53.369  31.999  53.842  0.00  0.00     0.081 A 
ATOM      4  C   UNL d   1      52.834  32.155  53.236  0.00  0.00     0.105 A 
ATOM      5  O   UNL d   1      52.521  32.743  52.998  0.00  0.00    -0.305 OA
ATOM      6  C   UNL d   1      53.132  33.681  53.952  0.00  0.00     0.090 A 
ATOM      7  C   UNL d   1      52.627  33.485  53.299  0.00  0.00     0.116 A 
ATOM      8  C   UNL d   1      53.633  31.230  53.980  0.00  0.00     0.028 A 
ATOM      9  O   UNL d   1      54.194  31.997  54.834  0.00  0.00    -0.267 OA
ATOM     10  C   UNL d   1      52.559  31.542  52.763  0.00  0.00     0.026 A 
ATOM     11  C   UNL d   1      53.359  30.614  53.506  0.00  0.00     0.103 A 
ATOM     12  N   UNL d   1      53.618  29.847  53.638  0.00  0.00    -0.148 N 
ATOM     13  C   UNL d   1      52.819  30.771  52.894  0.00  0.00     0.023 A 
ATOM     14  C   UNL d   1      53.190  34.490  54.210  0.00  0.00     0.020 A 
ATOM     15  C   UNL d   1      52.182  34.088  52.904  0.00  0.00     0.026 A 
ATOM     16  C   UNL d   1      52.742  35.094  53.813  0.00  0.00     0.002 A 
ATOM     17  C   UNL d   1      52.236  34.889  53.157  0.00  0.00     0.002 A 
ENDROOT
BRANCH   2  18
ATOM     18  C   UNL d   1      54.049  33.524  55.016  0.00  0.00     0.083 C 
ATOM     19  C   UNL d   1      54.864  33.540  54.975  0.00  0.00     0.021 C 
ENDBRANCH   2  18
TORSDOF 1
ENDMDL
MODEL 2
REMARK VINA RESULT:     -10.9      0.754      2.022
REMARK  1 active torsions:
REMARK  status: ('A' for Active; 'I' for Inactive)
REMARK    1  A    between atoms: C_12  and  N_2 
ROOT
ATOM      1  C   UNL d   1      52.750  32.309  53.087  0.00  0.00     0.267 A 
ATOM      2  N   UNL d   1      52.884  33.045  53.368  0.00  0.00    -0.271 N 
ATOM      3  C   UNL d   1      53.034  31.722  53.314  0.00  0.00     0.081 A 
ATOM      4  C   UNL d   1      53.575  31.538  53.907  0.00  0.00     0.105 A 
ATOM      5  O   UNL d   1      53.930  31.923  54.384  0.00  0.00    -0.305 OA
ATOM      6  C   UNL d   1      53.400  33.239  53.996  0.00  0.00     0.090 A 
ATOM      7  C   UNL d   1      53.883  32.724  54.467  0.00  0.00     0.116 A 
ATOM      8  C   UNL d   1      52.713  31.128  52.841  0.00  0.00     0.028 A 
ATOM      9  O   UNL d   1      52.219  32.244  52.461  0.00  0.00    -0.267 OA
ATOM     10  C   UNL d   1      53.798  30.757  54.031  0.00  0.00     0.026 A 
ATOM     11  C   UNL d   1      52.936  30.344  52.964  0.00  0.00     0.103 A 
ATOM     12  N   UNL d   1      52.619  29.749  52.497  0.00  0.00    -0.148 N 
ATOM     13  C   UNL d   1      53.481  30.158  53.563  0.00  0.00     0.023 A 
ATOM     14  C   UNL d   1      53.406  34.077  54.147  0.00  0.00     0.020 A 
ATOM     15  C   UNL d   1      54.371  33.039  55.085  0.00  0.00     0.026 A 
ATOM     16  C   UNL d   1      53.896  34.391  54.767  0.00  0.00     0.002 A 
ATOM     17  C   UNL d   1      54.380  33.867  55.237  0.00  0.00     0.002 A 
ENDROOT
BRANCH   2  18
ATOM     18  C   UNL d   1      52.482  33.663  53.009  0.00  0.00     0.083 C 
ATOM     19  C   UNL d   1      51.673  33.726  53.091  0.00  0.00     0.021 C 
ENDBRANCH   2  18
TORSDOF 1
ENDMDL
MODEL 3
REMARK VINA RESULT:     -10.5      1.229      2.903
REMARK  1 active torsions:
REMARK  status: ('A' for Active; 'I' for Inactive)
REMARK    1  A    between atoms: C_12  and  N_2 
ROOT
ATOM      1  C   UNL d   1      52.742  32.867  53.066  0.00  0.00     0.267 A 
ATOM      2  N   UNL d   1      53.369  32.657  53.515  0.00  0.00    -0.271 N 
ATOM      3  C   UNL d   1      52.384  33.456  53.107  0.00  0.00     0.081 A 
ATOM      4  C   UNL d   1      52.435  34.128  53.580  0.00  0.00     0.105 A 
ATOM      5  O   UNL d   1      52.866  34.326  54.105  0.00  0.00    -0.305 OA
ATOM      6  C   UNL d   1      53.708  33.120  54.123  0.00  0.00     0.090 A 
ATOM      7  C   UNL d   1      53.479  33.890  54.398  0.00  0.00     0.116 A 
ATOM      8  C   UNL d   1      51.800  33.395  52.527  0.00  0.00     0.028 A 
ATOM      9  O   UNL d   1      52.498  32.325  52.496  0.00  0.00    -0.267 OA
ATOM     10  C   UNL d   1      51.902  34.744  53.476  0.00  0.00     0.026 A 
ATOM     11  C   UNL d   1      51.266  34.013  52.422  0.00  0.00     0.103 A 
ATOM     12  N   UNL d   1      50.683  33.958  51.847  0.00  0.00    -0.148 N 
ATOM     13  C   UNL d   1      51.317  34.691  52.899  0.00  0.00     0.023 A 
ATOM     14  C   UNL d   1      54.369  32.723  54.485  0.00  0.00     0.020 A 
ATOM     15  C   UNL d   1      53.903  34.264  55.029  0.00  0.00     0.026 A 
ATOM     16  C   UNL d   1      54.793  33.101  55.118  0.00  0.00     0.002 A 
ATOM     17  C   UNL d   1      54.557  33.875  55.389  0.00  0.00     0.002 A 
ENDROOT
BRANCH   2  18
ATOM     18  C   UNL d   1      53.709  31.926  53.367  0.00  0.00     0.083 C 
ATOM     19  C   UNL d   1      53.289  31.242  53.516  0.00  0.00     0.021 C 
ENDBRANCH   2  18
TORSDOF 1
ENDMDL
MODEL 4
REMARK VINA RESULT:     -10.1      1.093      3.349
REMARK  1 active torsions:
REMARK  status: ('A' for Active; 'I' for Inactive)
REMARK    1  A    between atoms: C_12  and  N_2 
ROOT
ATOM      1  C   UNL d   1      52.797  33.224  53.671  0.00  0.00     0.267 A 
ATOM      2  N   UNL d   1      52.551  32.576  53.272  0.00  0.00    -0.271 N 
ATOM      3  C   UNL d   1      53.316  33.256  54.126  0.00  0.00     0.081 A 
ATOM      4  C   UNL d   1      53.852  32.709  54.426  0.00  0.00     0.105 A 
ATOM      5  O   UNL d   1      53.959  32.017  54.318  0.00  0.00    -0.305 OA
ATOM      6  C   UNL d   1      52.883  31.811  53.336  0.00  0.00     0.090 A 
ATOM      7  C   UNL d   1      53.532  31.550  53.817  0.00  0.00     0.116 A 
ATOM      8  C   UNL d   1      53.338  34.043  54.373  0.00  0.00     0.028 A 
ATOM      9  O   UNL d   1      52.390  33.924  53.525  0.00  0.00    -0.267 OA
ATOM     10  C   UNL d   1      54.414  32.943  54.977  0.00  0.00     0.026 A 
ATOM     11  C   UNL d   1      53.902  34.280  54.925  0.00  0.00     0.103 A 
ATOM     12  N   UNL d   1      53.929  35.061  55.174  0.00  0.00    -0.148 N 
ATOM     13  C   UNL d   1      54.443  33.727  55.228  0.00  0.00     0.023 A 
ATOM     14  C   UNL d   1      52.483  31.255  52.831  0.00  0.00     0.020 A 
ATOM     15  C   UNL d   1      53.782  30.741  53.797  0.00  0.00     0.026 A 
ATOM     16  C   UNL d   1      52.735  30.443  52.813  0.00  0.00     0.002 A 
ATOM     17  C   UNL d   1      53.389  30.188  53.299  0.00  0.00     0.002 A 
ENDROOT
BRANCH   2  18
ATOM     18  C   UNL d   1      51.920  32.669  52.758  0.00  0.00     0.083 C 
ATOM     19  C   UNL d   1      51.195  32.914  53.041  0.00  0.00     0.021 C 
ENDBRANCH   2  18
TORSDOF 1
ENDMDL
MODEL 5
REMARK VINA RESULT:     -10.1      1.054      2.943
REMARK  1 active torsions:
REMARK  status: ('A' for Active; 'I' for Inactive)
REMARK    1  A    between atoms: C_12  and  N_2 
ROOT
ATOM      1  C   UNL d   1      53.194  33.250  53.842  0.00  0.00     0.267 A 
ATOM      2  N   UNL d   1      53.602  32.568  53.932  0.00  0.00    -0.271 N 
ATOM      3  C   UNL d   1      52.602  33.335  53.497  0.00  0.00     0.081 A 
ATOM      4  C   UNL d   1      52.107  32.832  53.074  0.00  0.00     0.105 A 
ATOM      5  O   UNL d   1      52.124  32.141  52.922  0.00  0.00    -0.305 OA
ATOM      6  C   UNL d   1      53.379  31.825  53.621  0.00  0.00     0.090 A 
ATOM      7  C   UNL d   1      52.699  31.624  53.155  0.00  0.00     0.116 A 
ATOM      8  C   UNL d   1      52.420  34.136  53.573  0.00  0.00     0.028 A 
ATOM      9  O   UNL d   1      53.515  33.921  54.196  0.00  0.00    -0.267 OA
ATOM     10  C   UNL d   1      51.425  33.126  52.723  0.00  0.00     0.026 A 
ATOM     11  C   UNL d   1      51.737  34.433  53.221  0.00  0.00     0.103 A 
ATOM     12  N   UNL d   1      51.550  35.228  53.294  0.00  0.00    -0.148 N 
ATOM     13  C   UNL d   1      51.236  33.925  52.794  0.00  0.00     0.023 A 
ATOM     14  C   UNL d   1      53.942  31.220  53.826  0.00  0.00     0.020 A 
ATOM     15  C   UNL d   1      52.578  30.827  52.893  0.00  0.00     0.026 A 
ATOM     16  C   UNL d   1      53.819  30.421  53.562  0.00  0.00     0.002 A 
ATOM     17  C   UNL d   1      53.132  30.226  53.094  0.00  0.00     0.002 A 
ENDROOT
BRANCH   2  18
ATOM     18  C   UNL d   1      54.296  32.600  54.367  0.00  0.00     0.083 C 
ATOM     19  C   UNL d   1      54.276  32.821  55.152  0.00  0.00     0.021 C 
ENDBRANCH   2  18
TORSDOF 1
ENDMDL
MODEL 6
REMARK VINA RESULT:      -9.8      1.130      2.615
REMARK  1 active torsions:
REMARK  status: ('A' for Active; 'I' for Inactive)
REMARK    1  A    between atoms: C_12  and  N_2 
ROOT
ATOM      1  C   UNL d   1      53.477  32.819  53.694  0.00  0.00     0.267 A 
ATOM      2  N   UNL d   1      52.848  32.729  53.207  0.00  0.00    -0.271 N 
ATOM      3  C   UNL d   1      53.601  33.353  54.113  0.00  0.00     0.081 A 
ATOM      4  C   UNL d   1      53.207  34.056  54.280  0.00  0.00     0.105 A 
ATOM      5  O   UNL d   1      52.604  34.347  54.049  0.00  0.00    -0.305 OA
ATOM      6  C   UNL d   1      52.222  33.275  53.118  0.00  0.00     0.090 A 
ATOM      7  C   UNL d   1      52.106  34.022  53.504  0.00  0.00     0.116 A 
ATOM      8  C   UNL d   1      54.313  33.173  54.488  0.00  0.00     0.028 A 
ATOM      9  O   UNL d   1      54.032  32.211  53.696  0.00  0.00    -0.267 OA
ATOM     10  C   UNL d   1      53.522  34.584  54.825  0.00  0.00     0.026 A 
ATOM     11  C   UNL d   1      54.630  33.701  55.035  0.00  0.00     0.103 A 
ATOM     12  N   UNL d   1      55.338  33.527  55.411  0.00  0.00    -0.148 N 
ATOM     13  C   UNL d   1      54.232  34.411  55.204  0.00  0.00     0.023 A 
ATOM     14  C   UNL d   1      51.647  32.999  52.553  0.00  0.00     0.020 A 
ATOM     15  C   UNL d   1      51.424  34.493  53.330  0.00  0.00     0.026 A 
ATOM     16  C   UNL d   1      50.963  33.474  52.380  0.00  0.00     0.002 A 
ATOM     17  C   UNL d   1      50.853  34.225  52.772  0.00  0.00     0.002 A 
ENDROOT
BRANCH   2  18
ATOM     18  C   UNL d   1      52.816  32.044  52.758  0.00  0.00     0.083 C 
ATOM     19  C   UNL d   1      52.753  31.318  53.125  0.00  0.00     0.021 C 
ENDBRANCH   2  18
TORSDOF 1
ENDMDL
MODEL 7
REMARK VINA RESULT:      -9.6      1.656      2.918
REMARK  1 active torsions:
REMARK  status: ('A' for Active; 'I' for Inactive)
REMARK    1  A    between atoms: C_12  and  N_2 
ROOT
ATOM      1  C   UNL d   1      52.389  34.678  53.696  0.00  0.00     0.267 A 
ATOM      2  N   UNL d   1      53.078  34.650  54.101  0.00  0.00    -0.271 N 
ATOM      3  C   UNL d   1      52.018  34.139  53.476  0.00  0.00     0.081 A 
ATOM      4  C   UNL d   1      52.106  33.322  53.525  0.00  0.00     0.105 A 
ATOM      5  O   UNL d   1      52.596  32.898  53.811  0.00  0.00    -0.305 OA
ATOM      6  C   UNL d   1      53.477  33.954  54.334  0.00  0.00     0.090 A 
ATOM      7  C   UNL d   1      53.258  33.144  54.202  0.00  0.00     0.116 A 
ATOM      8  C   UNL d   1      51.365  34.468  53.093  0.00  0.00     0.028 A 
ATOM      9  O   UNL d   1      52.092  35.427  53.524  0.00  0.00    -0.267 OA
ATOM     10  C   UNL d   1      51.542  32.828  53.191  0.00  0.00     0.026 A 
ATOM     11  C   UNL d   1      50.799  33.973  52.758  0.00  0.00     0.103 A 
ATOM     12  N   UNL d   1      50.148  34.294  52.376  0.00  0.00    -0.148 N 
ATOM     13  C   UNL d   1      50.888  33.148  52.807  0.00  0.00     0.023 A 
ATOM     14  C   UNL d   1      54.195  34.132  54.756  0.00  0.00     0.020 A 
ATOM     15  C   UNL d   1      53.748  32.515  54.487  0.00  0.00     0.026 A 
ATOM     16  C   UNL d   1      54.685  33.498  55.042  0.00  0.00     0.002 A 
ATOM     17  C   UNL d   1      54.458  32.687  54.906  0.00  0.00     0.002 A 
ENDROOT
BRANCH   2  18
ATOM     18  C   UNL d   1      53.423  35.366  54.306  0.00  0.00     0.083 C 
ATOM     19  C   UNL d   1      53.034  35.876  54.811  0.00  0.00     0.021 C 
ENDBRANCH   2  18
TORSDOF 1
ENDMDL
MODEL 8
REMARK VINA RESULT:      -8.6      1.610      2.521
REMARK  1 active torsions:
REMARK  status: ('A' for Active; 'I' for Inactive)
REMARK    1  A    between atoms: C_12  and  N_2 
ROOT
ATOM      1  C   UNL d   1      53.346  34.568  54.383  0.00  0.00     0.267 A 
ATOM      2  N   UNL d   1      52.682  34.751  53.976  0.00  0.00    -0.271 N 
ATOM      3  C   UNL d   1      53.612  33.937  54.476  0.00  0.00     0.081 A 
ATOM      4  C   UNL d   1      53.392  33.180  54.239  0.00  0.00     0.105 A 
ATOM      5  O   UNL d   1      52.854  32.923  53.858  0.00  0.00    -0.305 OA
ATOM      6  C   UNL d   1      52.185  34.205  53.586  0.00  0.00     0.090 A 
ATOM      7  C   UNL d   1      52.261  33.361  53.529  0.00  0.00     0.116 A 
ATOM      8  C   UNL d   1      54.291  34.054  54.930  0.00  0.00     0.028 A 
ATOM      9  O   UNL d   1      53.754  35.195  54.726  0.00  0.00    -0.267 OA
ATOM     10  C   UNL d   1      53.850  32.533  54.454  0.00  0.00     0.026 A 
ATOM     11  C   UNL d   1      54.751  33.406  55.146  0.00  0.00     0.103 A 
ATOM     12  N   UNL d   1      55.427  33.515  55.598  0.00  0.00    -0.148 N 
ATOM     13  C   UNL d   1      54.529  32.641  54.907  0.00  0.00     0.023 A 
ATOM     14  C   UNL d   1      51.528  34.594  53.210  0.00  0.00     0.020 A 
ATOM     15  C   UNL d   1      51.688  32.907  53.101  0.00  0.00     0.026 A 
ATOM     16  C   UNL d   1      50.954  34.136  52.781  0.00  0.00     0.002 A 
ATOM     17  C   UNL d   1      51.037  33.288  52.728  0.00  0.00     0.002 A 
ENDROOT
BRANCH   2  18
ATOM     18  C   UNL d   1      52.471  35.543  53.939  0.00  0.00     0.083 C 
ATOM     19  C   UNL d   1      52.406  35.981  54.625  0.00  0.00     0.021 C 
ENDBRANCH   2  18
TORSDOF 1
ENDMDL
