MODEL 1
REMARK VINA RESULT:      -8.0      0.000      0.000
REMARK  2 active torsions:
REMARK  status: ('A' for Active; 'I' for Inactive)
REMARK    1  A    between atoms: N_10  and  C_1 
REMARK       I    between atoms: C_12  and  N_10 
REMARK    2  A    between atoms: C_17  and  C_12 
ROOT
ATOM      1  C   UNL d   1     -46.394  11.972  23.406  0.00  0.00     0.197 A 
ATOM      2  C   UNL d   1     -47.278  12.797  22.861  0.00  0.00     0.057 A 
ATOM      3  C   UNL d   1     -47.909  13.152  22.514  0.00  0.00     0.056 A 
ATOM      4  N   UNL d   1     -46.059  12.701  23.429  0.00  0.00    -0.221 NA
ATOM      5  S   UNL d   1     -47.155  11.991  23.060  0.00  0.00    -0.046 SA
ATOM      6  N   UNL d   1     -48.604  14.166  22.021  0.00  0.00    -0.238 NA
ATOM      7  S   UNL d   1     -48.621  12.873  22.242  0.00  0.00    -0.066 SA
ATOM      8  C   UNL d   1     -46.614  13.227  23.085  0.00  0.00     0.090 A 
ATOM      9  C   UNL d   1     -47.907  13.968  22.371  0.00  0.00     0.088 A 
ATOM     10  C   UNL d   1     -49.070  13.536  21.922  0.00  0.00     0.111 A 
ATOM     11  C   UNL d   1     -46.595  14.040  22.950  0.00  0.00     0.021 A 
ATOM     12  C   UNL d   1     -47.255  14.422  22.585  0.00  0.00     0.021 A 
ATOM     13  C   UNL d   1     -49.835  13.521  21.579  0.00  0.00     0.028 C 
ENDROOT
BRANCH   1  14
ATOM     14  N   UNL d   1     -46.028  11.256  23.698  0.00  0.00    -0.183 NA
ATOM     15  C   UNL d   1     -45.280  11.061  23.429  0.00  0.00     0.281 C 
ATOM     16  O   UNL d   1     -44.926  11.604  22.870  0.00  0.00    -0.265 OA
BRANCH  15  17
ATOM     17  C   UNL d   1     -44.943  10.401  23.698  0.00  0.00     0.063 C 
ATOM     18  C   UNL d   1     -44.009  10.262  23.547  0.00  0.00     0.005 C 
ENDBRANCH  15  17
ENDBRANCH   1  14
TORSDOF 2
ENDMDL
MODEL 2
REMARK VINA RESULT:      -7.9      1.794      4.152
REMARK  2 active torsions:
REMARK  status: ('A' for Active; 'I' for Inactive)
REMARK    1  A    between atoms: N_10  and  C_1 
REMARK       I    between atoms: C_12  and  N_10 
REMARK    2  A    between atoms: C_17  and  C_12 
ROOT
ATOM      1  C   UNL d   1     -48.744  13.992  22.781  0.00  0.00     0.197 A 
ATOM      2  C   UNL d   1     -47.623  13.320  23.002  0.00  0.00     0.057 A 
ATOM      3  C   UNL d   1     -47.052  12.781  23.168  0.00  0.00     0.056 A 
ATOM      4  N   UNL d   1     -48.147  14.515  22.662  0.00  0.00    -0.221 NA
ATOM      5  S   UNL d   1     -48.457  13.236  22.995  0.00  0.00    -0.046 SA
ATOM      6  N   UNL d   1     -45.810  12.347  23.329  0.00  0.00    -0.238 NA
ATOM      7  S   UNL d   1     -47.074  11.997  23.378  0.00  0.00    -0.066 SA
ATOM      8  C   UNL d   1     -47.435  14.095  22.800  0.00  0.00     0.090 A 
ATOM      9  C   UNL d   1     -46.250  12.993  23.139  0.00  0.00     0.088 A 
ATOM     10  C   UNL d   1     -46.264  11.719  23.482  0.00  0.00     0.111 A 
ATOM     11  C   UNL d   1     -46.643  14.323  22.767  0.00  0.00     0.021 A 
ATOM     12  C   UNL d   1     -46.035  13.762  22.940  0.00  0.00     0.021 A 
ATOM     13  C   UNL d   1     -46.008  10.950  23.698  0.00  0.00     0.028 C 
ENDROOT
BRANCH   1  14
ATOM     14  N   UNL d   1     -49.577  14.174  22.702  0.00  0.00    -0.183 NA
ATOM     15  C   UNL d   1     -49.869  14.840  23.077  0.00  0.00     0.281 C 
ATOM     16  O   UNL d   1     -49.302  15.303  23.521  0.00  0.00    -0.265 OA
BRANCH  15  17
ATOM     17  C   UNL d   1     -50.636  15.008  23.004  0.00  0.00     0.063 C 
ATOM     18  C   UNL d   1     -51.064  15.529  23.682  0.00  0.00     0.005 C 
ENDBRANCH  15  17
ENDBRANCH   1  14
TORSDOF 2
ENDMDL
MODEL 3
REMARK VINA RESULT:      -7.4      1.956      4.212
REMARK  2 active torsions:
REMARK  status: ('A' for Active; 'I' for Inactive)
REMARK    1  A    between atoms: N_10  and  C_1 
REMARK       I    between atoms: C_12  and  N_10 
REMARK    2  A    between atoms: C_17  and  C_12 
ROOT
ATOM      1  C   UNL d   1     -49.039  13.515  22.744  0.00  0.00     0.197 A 
ATOM      2  C   UNL d   1     -47.769  13.142  22.807  0.00  0.00     0.057 A 
ATOM      3  C   UNL d   1     -46.975  13.049  22.736  0.00  0.00     0.056 A 
ATOM      4  N   UNL d   1     -49.019  12.885  23.240  0.00  0.00    -0.221 NA
ATOM      5  S   UNL d   1     -48.279  13.706  22.453  0.00  0.00    -0.046 SA
ATOM      6  N   UNL d   1     -45.799  12.484  22.968  0.00  0.00    -0.238 NA
ATOM      7  S   UNL d   1     -46.406  13.447  22.316  0.00  0.00    -0.066 SA
ATOM      8  C   UNL d   1     -48.217  12.645  23.284  0.00  0.00     0.090 A 
ATOM      9  C   UNL d   1     -46.583  12.443  23.145  0.00  0.00     0.088 A 
ATOM     10  C   UNL d   1     -45.642  13.077  22.470  0.00  0.00     0.111 A 
ATOM     11  C   UNL d   1     -47.843  12.037  23.697  0.00  0.00     0.021 A 
ATOM     12  C   UNL d   1     -47.008  11.931  23.628  0.00  0.00     0.021 A 
ATOM     13  C   UNL d   1     -44.893  13.294  22.161  0.00  0.00     0.028 C 
ENDROOT
BRANCH   1  14
ATOM     14  N   UNL d   1     -49.747  13.948  22.531  0.00  0.00    -0.183 NA
ATOM     15  C   UNL d   1     -49.986  14.566  23.010  0.00  0.00     0.281 C 
ATOM     16  O   UNL d   1     -49.497  14.726  23.694  0.00  0.00    -0.265 OA
BRANCH  15  17
ATOM     17  C   UNL d   1     -50.637  14.965  22.813  0.00  0.00     0.063 C 
ATOM     18  C   UNL d   1     -51.063  15.513  23.471  0.00  0.00     0.005 C 
ENDBRANCH  15  17
ENDBRANCH   1  14
TORSDOF 2
ENDMDL
MODEL 4
REMARK VINA RESULT:      -7.3      1.648      2.126
REMARK  2 active torsions:
REMARK  status: ('A' for Active; 'I' for Inactive)
REMARK    1  A    between atoms: N_10  and  C_1 
REMARK       I    between atoms: C_12  and  N_10 
REMARK    2  A    between atoms: C_17  and  C_12 
ROOT
ATOM      1  C   UNL d   1     -47.026  13.681  23.001  0.00  0.00     0.197 A 
ATOM      2  C   UNL d   1     -48.352  13.709  22.985  0.00  0.00     0.057 A 
ATOM      3  C   UNL d   1     -49.139  13.558  23.019  0.00  0.00     0.056 A 
ATOM      4  N   UNL d   1     -47.228  14.432  22.803  0.00  0.00    -0.221 NA
ATOM      5  S   UNL d   1     -47.699  13.200  23.123  0.00  0.00    -0.046 SA
ATOM      6  N   UNL d   1     -50.430  13.848  22.935  0.00  0.00    -0.238 NA
ATOM      7  S   UNL d   1     -49.569  12.892  23.192  0.00  0.00    -0.066 SA
ATOM      8  C   UNL d   1     -48.066  14.455  22.791  0.00  0.00     0.090 A 
ATOM      9  C   UNL d   1     -49.690  14.157  22.858  0.00  0.00     0.088 A 
ATOM     10  C   UNL d   1     -50.407  13.084  23.135  0.00  0.00     0.111 A 
ATOM     11  C   UNL d   1     -48.601  15.062  22.628  0.00  0.00     0.021 A 
ATOM     12  C   UNL d   1     -49.431  14.912  22.662  0.00  0.00     0.021 A 
ATOM     13  C   UNL d   1     -51.062  12.576  23.265  0.00  0.00     0.028 C 
ENDROOT
BRANCH   1  14
ATOM     14  N   UNL d   1     -46.223  13.395  23.082  0.00  0.00    -0.183 NA
ATOM     15  C   UNL d   1     -45.811  13.191  22.405  0.00  0.00     0.281 C 
ATOM     16  O   UNL d   1     -46.230  13.284  21.665  0.00  0.00    -0.265 OA
BRANCH  15  17
ATOM     17  C   UNL d   1     -45.072  12.928  22.479  0.00  0.00     0.063 C 
ATOM     18  C   UNL d   1     -44.507  12.905  21.708  0.00  0.00     0.005 C 
ENDBRANCH  15  17
ENDBRANCH   1  14
TORSDOF 2
ENDMDL
MODEL 5
REMARK VINA RESULT:      -7.2      1.620      2.545
REMARK  2 active torsions:
REMARK  status: ('A' for Active; 'I' for Inactive)
REMARK    1  A    between atoms: N_10  and  C_1 
REMARK       I    between atoms: C_12  and  N_10 
REMARK    2  A    between atoms: C_17  and  C_12 
ROOT
ATOM      1  C   UNL d   1     -47.867  13.128  22.566  0.00  0.00     0.197 A 
ATOM      2  C   UNL d   1     -49.000  13.814  22.609  0.00  0.00     0.057 A 
ATOM      3  C   UNL d   1     -49.605  14.321  22.759  0.00  0.00     0.056 A 
ATOM      4  N   UNL d   1     -48.348  12.793  22.017  0.00  0.00    -0.221 NA
ATOM      5  S   UNL d   1     -48.238  13.768  22.956  0.00  0.00    -0.046 SA
ATOM      6  N   UNL d   1     -50.817  14.835  22.606  0.00  0.00    -0.238 NA
ATOM      7  S   UNL d   1     -49.693  14.941  23.275  0.00  0.00    -0.066 SA
ATOM      8  C   UNL d   1     -49.067  13.224  22.040  0.00  0.00     0.090 A 
ATOM      9  C   UNL d   1     -50.318  14.261  22.340  0.00  0.00     0.088 A 
ATOM     10  C   UNL d   1     -50.482  15.272  23.172  0.00  0.00     0.111 A 
ATOM     11  C   UNL d   1     -49.769  13.151  21.615  0.00  0.00     0.021 A 
ATOM     12  C   UNL d   1     -50.411  13.679  21.766  0.00  0.00     0.021 A 
ATOM     13  C   UNL d   1     -50.827  15.918  23.582  0.00  0.00     0.028 C 
ENDROOT
BRANCH   1  14
ATOM     14  N   UNL d   1     -47.069  12.870  22.740  0.00  0.00    -0.183 NA
ATOM     15  C   UNL d   1     -46.966  12.213  23.217  0.00  0.00     0.281 C 
ATOM     16  O   UNL d   1     -47.680  11.838  23.503  0.00  0.00    -0.265 OA
BRANCH  15  17
ATOM     17  C   UNL d   1     -46.232  11.976  23.377  0.00  0.00     0.063 C 
ATOM     18  C   UNL d   1     -46.090  11.086  23.698  0.00  0.00     0.005 C 
ENDBRANCH  15  17
ENDBRANCH   1  14
TORSDOF 2
ENDMDL
MODEL 6
REMARK VINA RESULT:      -5.7      8.576      8.805
REMARK  2 active torsions:
REMARK  status: ('A' for Active; 'I' for Inactive)
REMARK    1  A    between atoms: N_10  and  C_1 
REMARK       I    between atoms: C_12  and  N_10 
REMARK    2  A    between atoms: C_17  and  C_12 
ROOT
ATOM      1  C   UNL d   1     -38.922  15.225  19.860  0.00  0.00     0.197 A 
ATOM      2  C   UNL d   1     -39.649  15.072  18.762  0.00  0.00     0.057 A 
ATOM      3  C   UNL d   1     -40.134  15.144  18.127  0.00  0.00     0.056 A 
ATOM      4  N   UNL d   1     -38.793  14.472  19.613  0.00  0.00    -0.221 NA
ATOM      5  S   UNL d   1     -39.450  15.631  19.355  0.00  0.00    -0.046 SA
ATOM      6  N   UNL d   1     -40.758  14.739  17.030  0.00  0.00    -0.238 NA
ATOM      7  S   UNL d   1     -40.587  15.755  17.842  0.00  0.00    -0.066 SA
ATOM      8  C   UNL d   1     -39.251  14.370  18.918  0.00  0.00     0.090 A 
ATOM      9  C   UNL d   1     -40.248  14.507  17.608  0.00  0.00     0.088 A 
ATOM     10  C   UNL d   1     -40.991  15.487  17.129  0.00  0.00     0.111 A 
ATOM     11  C   UNL d   1     -39.352  13.726  18.413  0.00  0.00     0.021 A 
ATOM     12  C   UNL d   1     -39.862  13.794  17.742  0.00  0.00     0.021 A 
ATOM     13  C   UNL d   1     -41.518  15.922  16.642  0.00  0.00     0.028 C 
ENDROOT
BRANCH   1  14
ATOM     14  N   UNL d   1     -38.568  15.580  20.553  0.00  0.00    -0.183 NA
ATOM     15  C   UNL d   1     -38.929  15.466  21.279  0.00  0.00     0.281 C 
ATOM     16  O   UNL d   1     -39.642  14.993  21.276  0.00  0.00    -0.265 OA
BRANCH  15  17
ATOM     17  C   UNL d   1     -38.603  15.794  21.917  0.00  0.00     0.063 C 
ATOM     18  C   UNL d   1     -39.139  15.920  22.700  0.00  0.00     0.005 C 
ENDBRANCH  15  17
ENDBRANCH   1  14
TORSDOF 2
ENDMDL
MODEL 7
REMARK VINA RESULT:      -5.6      8.314      9.099
REMARK  2 active torsions:
REMARK  status: ('A' for Active; 'I' for Inactive)
REMARK    1  A    between atoms: N_10  and  C_1 
REMARK       I    between atoms: C_12  and  N_10 
REMARK    2  A    between atoms: C_17  and  C_12 
ROOT
ATOM      1  C   UNL d   1     -40.084  14.677  19.646  0.00  0.00     0.197 A 
ATOM      2  C   UNL d   1     -39.739  14.541  18.373  0.00  0.00     0.057 A 
ATOM      3  C   UNL d   1     -39.398  14.368  17.668  0.00  0.00     0.056 A 
ATOM      4  N   UNL d   1     -40.640  15.072  19.224  0.00  0.00    -0.221 NA
ATOM      5  S   UNL d   1     -39.505  14.333  19.151  0.00  0.00    -0.046 SA
ATOM      6  N   UNL d   1     -39.277  14.382  16.348  0.00  0.00    -0.238 NA
ATOM      7  S   UNL d   1     -38.735  13.947  17.461  0.00  0.00    -0.066 SA
ATOM      8  C   UNL d   1     -40.427  14.990  18.417  0.00  0.00     0.090 A 
ATOM      9  C   UNL d   1     -39.734  14.638  16.959  0.00  0.00     0.088 A 
ATOM     10  C   UNL d   1     -38.660  13.959  16.603  0.00  0.00     0.111 A 
ATOM     11  C   UNL d   1     -40.774  15.267  17.722  0.00  0.00     0.021 A 
ATOM     12  C   UNL d   1     -40.422  15.088  16.975  0.00  0.00     0.021 A 
ATOM     13  C   UNL d   1     -38.064  13.601  16.133  0.00  0.00     0.028 C 
ENDROOT
BRANCH   1  14
ATOM     14  N   UNL d   1     -40.073  14.610  20.499  0.00  0.00    -0.183 NA
ATOM     15  C   UNL d   1     -39.789  15.240  20.938  0.00  0.00     0.281 C 
ATOM     16  O   UNL d   1     -39.523  15.921  20.493  0.00  0.00    -0.265 OA
BRANCH  15  17
ATOM     17  C   UNL d   1     -39.778  15.177  21.723  0.00  0.00     0.063 C 
ATOM     18  C   UNL d   1     -39.281  15.815  22.234  0.00  0.00     0.005 C 
ENDBRANCH  15  17
ENDBRANCH   1  14
TORSDOF 2
ENDMDL
MODEL 8
REMARK VINA RESULT:      -5.3      8.272      9.117
REMARK  2 active torsions:
REMARK  status: ('A' for Active; 'I' for Inactive)
REMARK    1  A    between atoms: N_10  and  C_1 
REMARK       I    between atoms: C_12  and  N_10 
REMARK    2  A    between atoms: C_17  and  C_12 
ROOT
ATOM      1  C   UNL d   1     -39.528  15.688  18.337  0.00  0.00     0.197 A 
ATOM      2  C   UNL d   1     -39.680  15.777  19.651  0.00  0.00     0.057 A 
ATOM      3  C   UNL d   1     -39.598  15.825  20.448  0.00  0.00     0.056 A 
ATOM      4  N   UNL d   1     -40.319  15.727  18.465  0.00  0.00    -0.221 NA
ATOM      5  S   UNL d   1     -39.095  15.716  19.052  0.00  0.00    -0.046 SA
ATOM      6  N   UNL d   1     -40.016  15.921  21.702  0.00  0.00    -0.238 NA
ATOM      7  S   UNL d   1     -38.952  15.831  20.940  0.00  0.00    -0.066 SA
ATOM      8  C   UNL d   1     -40.421  15.784  19.296  0.00  0.00     0.090 A 
ATOM      9  C   UNL d   1     -40.265  15.882  20.938  0.00  0.00     0.088 A 
ATOM     10  C   UNL d   1     -39.228  15.893  21.754  0.00  0.00     0.111 A 
ATOM     11  C   UNL d   1     -41.095  15.841  19.767  0.00  0.00     0.021 A 
ATOM     12  C   UNL d   1     -41.018  15.891  20.607  0.00  0.00     0.021 A 
ATOM     13  C   UNL d   1     -38.766  15.920  22.453  0.00  0.00     0.028 C 
ENDROOT
BRANCH   1  14
ATOM     14  N   UNL d   1     -39.159  15.624  17.567  0.00  0.00    -0.183 NA
ATOM     15  C   UNL d   1     -39.159  14.896  17.192  0.00  0.00     0.281 C 
ATOM     16  O   UNL d   1     -39.536  14.254  17.614  0.00  0.00    -0.265 OA
BRANCH  15  17
ATOM     17  C   UNL d   1     -38.819  14.838  16.484  0.00  0.00     0.063 C 
ATOM     18  C   UNL d   1     -38.529  13.979  16.177  0.00  0.00     0.005 C 
ENDBRANCH  15  17
ENDBRANCH   1  14
TORSDOF 2
ENDMDL
MODEL 9
REMARK VINA RESULT:      -5.1      8.352      9.399
REMARK  2 active torsions:
REMARK  status: ('A' for Active; 'I' for Inactive)
REMARK    1  A    between atoms: N_10  and  C_1 
REMARK       I    between atoms: C_12  and  N_10 
REMARK    2  A    between atoms: C_17  and  C_12 
ROOT
ATOM      1  C   UNL d   1     -39.628  15.196  18.345  0.00  0.00     0.197 A 
ATOM      2  C   UNL d   1     -39.144  14.553  19.399  0.00  0.00     0.057 A 
ATOM      3  C   UNL d   1     -38.965  14.260  20.124  0.00  0.00     0.056 A 
ATOM      4  N   UNL d   1     -39.066  14.700  18.061  0.00  0.00    -0.221 NA
ATOM      5  S   UNL d   1     -39.706  15.134  19.175  0.00  0.00    -0.046 SA
ATOM      6  N   UNL d   1     -38.322  13.494  20.993  0.00  0.00    -0.238 NA
ATOM      7  S   UNL d   1     -39.251  14.413  20.869  0.00  0.00    -0.066 SA
ATOM      8  C   UNL d   1     -38.756  14.290  18.723  0.00  0.00     0.090 A 
ATOM      9  C   UNL d   1     -38.380  13.679  20.212  0.00  0.00     0.088 A 
ATOM     10  C   UNL d   1     -38.830  13.913  21.431  0.00  0.00     0.111 A 
ATOM     11  C   UNL d   1     -38.171  13.713  18.793  0.00  0.00     0.021 A 
ATOM     12  C   UNL d   1     -37.977  13.399  19.553  0.00  0.00     0.021 A 
ATOM     13  C   UNL d   1     -38.932  13.874  22.262  0.00  0.00     0.028 C 
ENDROOT
BRANCH   1  14
ATOM     14  N   UNL d   1     -40.097  15.729  17.867  0.00  0.00    -0.183 NA
ATOM     15  C   UNL d   1     -40.751  15.431  17.475  0.00  0.00     0.281 C 
ATOM     16  O   UNL d   1     -40.907  14.596  17.582  0.00  0.00    -0.265 OA
BRANCH  15  17
ATOM     17  C   UNL d   1     -41.183  15.921  17.036  0.00  0.00     0.063 C 
ATOM     18  C   UNL d   1     -41.700  15.566  16.314  0.00  0.00     0.005 C 
ENDBRANCH  15  17
ENDBRANCH   1  14
TORSDOF 2
ENDMDL
