MODEL 1
REMARK VINA RESULT:      -2.5      0.000      0.000
REMARK  6 active torsions:
REMARK  status: ('A' for Active; 'I' for Inactive)
REMARK    1  A    between atoms: C_6  and  N_1 
REMARK    2  A    between atoms: S_7  and  C_2 
REMARK    3  A    between atoms: C_12  and  S_7 
REMARK    4  A    between atoms: C_8  and  O_9 
REMARK    5  A    between atoms: O_9  and  C_13 
REMARK    6  A    between atoms: C_13  and  C_12 
ROOT
ATOM      1  N   UNL d   1      32.679  22.243 -21.044  0.00  0.00    -0.186 N 
ATOM      2  C   UNL d   1      32.819  21.448 -21.129  0.00  0.00     0.219 A 
ATOM      3  N   UNL d   1      32.834  21.107 -20.358  0.00  0.00    -0.101 NA
ATOM      4  N   UNL d   1      32.704  21.687 -19.815  0.00  0.00    -0.022 NA
ATOM      5  N   UNL d   1      32.605  22.399 -20.219  0.00  0.00    -0.038 NA
ENDROOT
BRANCH   2   6
ATOM      6  S   UNL d   1      32.932  21.030 -21.864  0.00  0.00    -0.044 SA
BRANCH   6   7
ATOM      7  C   UNL d   1      32.911  20.205 -21.870  0.00  0.00     0.065 C 
BRANCH   7   8
ATOM      8  C   UNL d   1      32.798  19.794 -22.592  0.00  0.00     0.130 C 
BRANCH   8   9
ATOM      9  O   UNL d   1      32.863  18.977 -22.608  0.00  0.00    -0.305 OA
BRANCH   9  10
ATOM     10  C   UNL d   1      32.730  18.545 -23.309  0.00  0.00     0.100 A 
ATOM     11  C   UNL d   1      32.620  17.718 -23.260  0.00  0.00     0.025 A 
ATOM     12  C   UNL d   1      32.488  17.274 -23.943  0.00  0.00     0.002 A 
ATOM     13  C   UNL d   1      32.464  17.644 -24.675  0.00  0.00     0.000 A 
ATOM     14  C   UNL d   1      32.572  18.457 -24.732  0.00  0.00     0.002 A 
ATOM     15  C   UNL d   1      32.706  18.917 -24.048  0.00  0.00     0.025 A 
ENDBRANCH   9  10
ENDBRANCH   8   9
ENDBRANCH   7   8
ENDBRANCH   6   7
ENDBRANCH   2   6
BRANCH   1  16
ATOM     16  C   UNL d   1      32.633  22.732 -21.725  0.00  0.00     0.087 A 
ATOM     17  C   UNL d   1      31.942  23.228 -21.838  0.00  0.00     0.019 A 
ATOM     18  C   UNL d   1      31.916  23.702 -22.513  0.00  0.00     0.002 A 
ATOM     19  C   UNL d   1      32.544  23.701 -23.072  0.00  0.00     0.000 A 
ATOM     20  C   UNL d   1      33.195  23.220 -22.945  0.00  0.00     0.002 A 
ATOM     21  C   UNL d   1      33.240  22.739 -22.276  0.00  0.00     0.019 A 
ENDBRANCH   1  16
TORSDOF 6
ENDMDL
MODEL 2
REMARK VINA RESULT:      -1.4      3.747      4.999
REMARK  6 active torsions:
REMARK  status: ('A' for Active; 'I' for Inactive)
REMARK    1  A    between atoms: C_6  and  N_1 
REMARK    2  A    between atoms: S_7  and  C_2 
REMARK    3  A    between atoms: C_12  and  S_7 
REMARK    4  A    between atoms: C_8  and  O_9 
REMARK    5  A    between atoms: O_9  and  C_13 
REMARK    6  A    between atoms: C_13  and  C_12 
ROOT
ATOM      1  N   UNL d   1      32.788  17.334 -23.593  0.00  0.00    -0.186 N 
ATOM      2  C   UNL d   1      32.123  17.022 -23.939  0.00  0.00     0.219 A 
ATOM      3  N   UNL d   1      32.157  16.184 -23.851  0.00  0.00    -0.101 NA
ATOM      4  N   UNL d   1      32.833  15.992 -23.457  0.00  0.00    -0.022 NA
ATOM      5  N   UNL d   1      33.239  16.689 -23.288  0.00  0.00    -0.038 NA
ENDROOT
BRANCH   2   6
ATOM      6  S   UNL d   1      31.499  17.461 -24.323  0.00  0.00    -0.044 SA
BRANCH   6   7
ATOM      7  C   UNL d   1      30.804  17.074 -24.539  0.00  0.00     0.065 C 
BRANCH   7   8
ATOM      8  C   UNL d   1      30.069  17.475 -24.492  0.00  0.00     0.130 C 
BRANCH   8   9
ATOM      9  O   UNL d   1      29.407  17.152 -24.850  0.00  0.00    -0.305 OA
BRANCH   9  10
ATOM     10  C   UNL d   1      28.842  16.722 -24.412  0.00  0.00     0.100 A 
ATOM     11  C   UNL d   1      28.418  17.111 -23.806  0.00  0.00     0.025 A 
ATOM     12  C   UNL d   1      27.856  16.701 -23.363  0.00  0.00     0.002 A 
ATOM     13  C   UNL d   1      27.710  15.908 -23.517  0.00  0.00     0.000 A 
ATOM     14  C   UNL d   1      28.123  15.518 -24.111  0.00  0.00     0.002 A 
ATOM     15  C   UNL d   1      28.695  15.923 -24.567  0.00  0.00     0.025 A 
ENDBRANCH   9  10
ENDBRANCH   8   9
ENDBRANCH   7   8
ENDBRANCH   6   7
ENDBRANCH   2   6
BRANCH   1  16
ATOM     16  C   UNL d   1      32.907  18.165 -23.594  0.00  0.00     0.087 A 
ATOM     17  C   UNL d   1      32.809  18.603 -22.863  0.00  0.00     0.019 A 
ATOM     18  C   UNL d   1      32.931  19.419 -22.884  0.00  0.00     0.002 A 
ATOM     19  C   UNL d   1      33.144  19.809 -23.598  0.00  0.00     0.000 A 
ATOM     20  C   UNL d   1      33.233  19.373 -24.286  0.00  0.00     0.002 A 
ATOM     21  C   UNL d   1      33.115  18.556 -24.284  0.00  0.00     0.019 A 
ENDBRANCH   1  16
TORSDOF 6
ENDMDL
MODEL 3
REMARK VINA RESULT:      -0.9      1.591      2.284
REMARK  6 active torsions:
REMARK  status: ('A' for Active; 'I' for Inactive)
REMARK    1  A    between atoms: C_6  and  N_1 
REMARK    2  A    between atoms: S_7  and  C_2 
REMARK    3  A    between atoms: C_12  and  S_7 
REMARK    4  A    between atoms: C_8  and  O_9 
REMARK    5  A    between atoms: O_9  and  C_13 
REMARK    6  A    between atoms: C_13  and  C_12 
ROOT
ATOM      1  N   UNL d   1      32.965  21.668 -22.747  0.00  0.00    -0.186 N 
ATOM      2  C   UNL d   1      33.071  21.064 -23.279  0.00  0.00     0.219 A 
ATOM      3  N   UNL d   1      33.241  21.410 -24.029  0.00  0.00    -0.101 NA
ATOM      4  N   UNL d   1      33.238  22.212 -23.951  0.00  0.00    -0.022 NA
ATOM      5  N   UNL d   1      33.069  22.393 -23.165  0.00  0.00    -0.038 NA
ENDROOT
BRANCH   2   6
ATOM      6  S   UNL d   1      33.019  20.229 -23.112  0.00  0.00    -0.044 SA
BRANCH   6   7
ATOM      7  C   UNL d   1      32.784  19.710 -23.709  0.00  0.00     0.065 C 
BRANCH   7   8
ATOM      8  C   UNL d   1      32.868  18.882 -23.600  0.00  0.00     0.130 C 
BRANCH   8   9
ATOM      9  O   UNL d   1      32.204  18.402 -23.614  0.00  0.00    -0.305 OA
BRANCH   9  10
ATOM     10  C   UNL d   1      32.245  17.611 -23.874  0.00  0.00     0.100 A 
ATOM     11  C   UNL d   1      32.359  17.005 -23.311  0.00  0.00     0.025 A 
ATOM     12  C   UNL d   1      32.402  16.216 -23.551  0.00  0.00     0.002 A 
ATOM     13  C   UNL d   1      32.333  16.024 -24.345  0.00  0.00     0.000 A 
ATOM     14  C   UNL d   1      32.220  16.614 -24.906  0.00  0.00     0.002 A 
ATOM     15  C   UNL d   1      32.175  17.417 -24.676  0.00  0.00     0.025 A 
ENDBRANCH   9  10
ENDBRANCH   8   9
ENDBRANCH   7   8
ENDBRANCH   6   7
ENDBRANCH   2   6
BRANCH   1  16
ATOM     16  C   UNL d   1      32.787  21.491 -21.945  0.00  0.00     0.087 A 
ATOM     17  C   UNL d   1      32.121  21.880 -21.569  0.00  0.00     0.019 A 
ATOM     18  C   UNL d   1      31.961  21.693 -20.782  0.00  0.00     0.002 A 
ATOM     19  C   UNL d   1      32.434  21.140 -20.361  0.00  0.00     0.000 A 
ATOM     20  C   UNL d   1      33.065  20.779 -20.738  0.00  0.00     0.002 A 
ATOM     21  C   UNL d   1      33.241  20.953 -21.525  0.00  0.00     0.019 A 
ENDBRANCH   1  16
TORSDOF 6
ENDMDL
