MODEL 1
REMARK VINA RESULT:      -4.1      0.000      0.000
REMARK  3 active torsions:
REMARK  status: ('A' for Active; 'I' for Inactive)
REMARK    1  A    between atoms: C_11  and  C_8 
REMARK       I    between atoms: N_14  and  C_11 
REMARK    2  A    between atoms: C_20  and  N_14 
REMARK    3  A    between atoms: C_21  and  C_20 
ROOT
ATOM      1  C   UNL d   1      57.700  -0.001  31.610  0.00  0.00     0.154 A 
ATOM      2  C   UNL d   1      57.203  -0.637  31.439  0.00  0.00     0.093 A 
ATOM      3  N   UNL d   1      57.582   0.439  32.303  0.00  0.00    -0.210 NA
ATOM      4  N   UNL d   1      56.475  -0.393  32.649  0.00  0.00    -0.258 N 
ATOM      5  C   UNL d   1      56.588  -0.832  31.961  0.00  0.00     0.269 A 
ATOM      6  N   UNL d   1      58.252   0.065  31.005  0.00  0.00    -0.285 N 
ATOM      7  C   UNL d   1      56.972   0.243  32.820  0.00  0.00     0.152 A 
ATOM      8  C   UNL d   1      58.100  -0.528  30.456  0.00  0.00     0.124 A 
ATOM      9  C   UNL d   1      57.448  -0.962  30.729  0.00  0.00     0.030 A 
ATOM     10  C   UNL d   1      55.864  -0.590  33.165  0.00  0.00     0.084 A 
ATOM     11  C   UNL d   1      56.858   0.682  33.506  0.00  0.00     0.038 A 
ATOM     12  C   UNL d   1      55.751  -0.150  33.852  0.00  0.00     0.018 A 
ATOM     13  C   UNL d   1      56.248   0.486  34.023  0.00  0.00     0.005 A 
ATOM     14  O   UNL d   1      56.091  -1.468  31.790  0.00  0.00    -0.266 OA
ATOM     15  C   UNL d   1      58.858   0.629  30.950  0.00  0.00     0.101 C 
ATOM     16  C   UNL d   1      55.134  -0.345  34.379  0.00  0.00     0.002 C 
ENDROOT
BRANCH   8  17
ATOM     17  C   UNL d   1      58.522  -0.665  29.761  0.00  0.00     0.295 C 
ATOM     18  N   UNL d   1      58.888  -1.398  29.642  0.00  0.00    -0.203 NA
ATOM     19  O   UNL d   1      58.579  -0.079  29.186  0.00  0.00    -0.264 OA
BRANCH  18  20
ATOM     20  C   UNL d   1      59.310  -1.539  28.947  0.00  0.00     0.127 C 
BRANCH  20  21
ATOM     21  C   UNL d   1      59.688  -2.262  28.834  0.00  0.00     0.119 A 
ATOM     22  O   UNL d   1      59.431  -3.046  28.934  0.00  0.00    -0.304 OA
ATOM     23  C   UNL d   1      60.057  -3.545  28.734  0.00  0.00     0.123 A 
ATOM     24  C   UNL d   1      60.697  -3.085  28.512  0.00  0.00     0.029 A 
ATOM     25  C   UNL d   1      60.475  -2.286  28.573  0.00  0.00     0.028 A 
ENDBRANCH  20  21
ENDBRANCH  18  20
ENDBRANCH   8  17
TORSDOF 3
ENDMDL
