MODEL 1
REMARK VINA RESULT:      -5.4      0.000      0.000
REMARK  5 active torsions:
REMARK  status: ('A' for Active; 'I' for Inactive)
REMARK    1  A    between atoms: C_8  and  N_1 
REMARK       I    between atoms: N_2  and  C_4 
REMARK    2  A    between atoms: C_3  and  N_2 
REMARK    3  A    between atoms: N_6  and  C_3 
REMARK    4  A    between atoms: C_4  and  C_12 
REMARK    5  A    between atoms: C_7  and  N_6 
ROOT
ATOM      1  N   UNL d   1      57.772  -0.525  30.247  0.00  0.00    -0.168 NA
ATOM      2  C   UNL d   1      57.789   0.016  30.869  0.00  0.00     0.282 C 
ATOM      3  O   UNL d   1      58.390   0.572  30.915  0.00  0.00    -0.265 OA
ENDROOT
BRANCH   2   4
ATOM      4  C   UNL d   1      57.198  -0.004  31.447  0.00  0.00     0.058 A 
ATOM      5  C   UNL d   1      56.981  -0.733  31.781  0.00  0.00     0.006 A 
ATOM      6  C   UNL d   1      56.397  -0.758  32.353  0.00  0.00     0.024 A 
ATOM      7  C   UNL d   1      56.025  -0.059  32.598  0.00  0.00     0.127 A 
ATOM      8  C   UNL d   1      56.246   0.662  32.262  0.00  0.00     0.024 A 
ATOM      9  C   UNL d   1      56.836   0.682  31.684  0.00  0.00     0.006 A 
BRANCH   7  10
ATOM     10  N   UNL d   1      55.439  -0.086  33.173  0.00  0.00    -0.114 N 
ATOM     11  O   UNL d   1      55.070  -0.802  33.359  0.00  0.00    -0.532 OA
ATOM     12  O   UNL d   1      55.220   0.601  33.562  0.00  0.00    -0.532 OA
ENDBRANCH   7  10
ENDBRANCH   2   4
BRANCH   1  13
ATOM     13  C   UNL d   1      58.356  -0.511  29.668  0.00  0.00     0.275 C 
ATOM     14  S   UNL d   1      58.536   0.198  29.288  0.00  0.00    -0.023 SA
BRANCH  13  15
ATOM     15  N   UNL d   1      58.762  -1.198  29.466  0.00  0.00    -0.369 NA
BRANCH  15  16
ATOM     16  C   UNL d   1      59.163  -1.869  29.267  0.00  0.00     0.180 A 
ATOM     17  C   UNL d   1      58.969  -2.571  29.152  0.00  0.00     0.255 A 
ATOM     18  S   UNL d   1      59.488  -3.072  28.969  0.00  0.00    -0.043 SA
ATOM     19  O   UNL d   1      58.270  -2.778  29.217  0.00  0.00    -0.277 OA
ATOM     20  C   UNL d   1      60.187  -2.864  28.905  0.00  0.00     0.041 A 
ATOM     21  C   UNL d   1      60.381  -2.163  29.019  0.00  0.00     0.043 A 
ENDBRANCH  15  16
ENDBRANCH  13  15
ENDBRANCH   1  13
TORSDOF 5
ENDMDL
MODEL 2
REMARK VINA RESULT:      -4.4      1.582      2.080
REMARK  5 active torsions:
REMARK  status: ('A' for Active; 'I' for Inactive)
REMARK    1  A    between atoms: C_8  and  N_1 
REMARK       I    between atoms: N_2  and  C_4 
REMARK    2  A    between atoms: C_3  and  N_2 
REMARK    3  A    between atoms: N_6  and  C_3 
REMARK    4  A    between atoms: C_4  and  C_12 
REMARK    5  A    between atoms: C_7  and  N_6 
ROOT
ATOM      1  N   UNL d   1      57.738  -0.096  30.732  0.00  0.00    -0.168 NA
ATOM      2  C   UNL d   1      57.313  -0.660  31.160  0.00  0.00     0.282 C 
ATOM      3  O   UNL d   1      57.367  -1.454  30.962  0.00  0.00    -0.265 OA
ENDROOT
BRANCH   2   4
ATOM      4  C   UNL d   1      56.833  -0.421  31.789  0.00  0.00     0.058 A 
ATOM      5  C   UNL d   1      56.828   0.378  32.016  0.00  0.00     0.006 A 
ATOM      6  C   UNL d   1      56.355   0.620  32.638  0.00  0.00     0.024 A 
ATOM      7  C   UNL d   1      55.883   0.068  33.039  0.00  0.00     0.127 A 
ATOM      8  C   UNL d   1      55.893  -0.725  32.808  0.00  0.00     0.024 A 
ATOM      9  C   UNL d   1      56.373  -0.963  32.180  0.00  0.00     0.006 A 
BRANCH   7  10
ATOM     10  N   UNL d   1      55.408   0.313  33.663  0.00  0.00    -0.114 N 
ATOM     11  O   UNL d   1      55.749   0.618  34.351  0.00  0.00    -0.532 OA
ATOM     12  O   UNL d   1      54.593   0.252  33.601  0.00  0.00    -0.532 OA
ENDBRANCH   7  10
ENDBRANCH   2   4
BRANCH   1  13
ATOM     13  C   UNL d   1      58.218  -0.327  30.105  0.00  0.00     0.275 C 
ATOM     14  S   UNL d   1      57.910  -0.809  29.512  0.00  0.00    -0.023 SA
BRANCH  13  15
ATOM     15  N   UNL d   1      59.002  -0.079  30.065  0.00  0.00    -0.369 NA
BRANCH  15  16
ATOM     16  C   UNL d   1      59.772   0.161  30.030  0.00  0.00     0.180 A 
ATOM     17  C   UNL d   1      60.283   0.179  29.500  0.00  0.00     0.255 A 
ATOM     18  S   UNL d   1      60.962   0.442  29.651  0.00  0.00    -0.043 SA
ATOM     19  O   UNL d   1      60.126  -0.060  28.827  0.00  0.00    -0.277 OA
ATOM     20  C   UNL d   1      61.118   0.681  30.326  0.00  0.00     0.041 A 
ATOM     21  C   UNL d   1      60.608   0.664  30.855  0.00  0.00     0.043 A 
ENDBRANCH  15  16
ENDBRANCH  13  15
ENDBRANCH   1  13
TORSDOF 5
ENDMDL
MODEL 3
REMARK VINA RESULT:      -4.3      1.638      4.822
REMARK  5 active torsions:
REMARK  status: ('A' for Active; 'I' for Inactive)
REMARK    1  A    between atoms: C_8  and  N_1 
REMARK       I    between atoms: N_2  and  C_4 
REMARK    2  A    between atoms: C_3  and  N_2 
REMARK    3  A    between atoms: N_6  and  C_3 
REMARK    4  A    between atoms: C_4  and  C_12 
REMARK    5  A    between atoms: C_7  and  N_6 
ROOT
ATOM      1  N   UNL d   1      57.913  -0.666  30.509  0.00  0.00    -0.168 NA
ATOM      2  C   UNL d   1      58.371  -0.534  29.835  0.00  0.00     0.282 C 
ATOM      3  O   UNL d   1      58.369   0.202  29.473  0.00  0.00    -0.265 OA
ENDROOT
BRANCH   2   4
ATOM      4  C   UNL d   1      58.834  -1.146  29.527  0.00  0.00     0.058 A 
ATOM      5  C   UNL d   1      58.522  -1.915  29.498  0.00  0.00     0.006 A 
ATOM      6  C   UNL d   1      58.975  -2.525  29.194  0.00  0.00     0.024 A 
ATOM      7  C   UNL d   1      59.742  -2.373  28.916  0.00  0.00     0.127 A 
ATOM      8  C   UNL d   1      60.045  -1.606  28.949  0.00  0.00     0.024 A 
ATOM      9  C   UNL d   1      59.583  -0.995  29.257  0.00  0.00     0.006 A 
BRANCH   7  10
ATOM     10  N   UNL d   1      60.196  -2.986  28.611  0.00  0.00    -0.114 N 
ATOM     11  O   UNL d   1      59.853  -3.721  28.455  0.00  0.00    -0.532 OA
ATOM     12  O   UNL d   1      60.993  -2.865  28.462  0.00  0.00    -0.532 OA
ENDBRANCH   7  10
ENDBRANCH   2   4
BRANCH   1  13
ATOM     13  C   UNL d   1      57.450  -0.062  30.821  0.00  0.00     0.275 C 
ATOM     14  S   UNL d   1      57.431   0.671  30.446  0.00  0.00    -0.023 SA
BRANCH  13  15
ATOM     15  N   UNL d   1      57.008  -0.184  31.504  0.00  0.00    -0.369 NA
BRANCH  15  16
ATOM     16  C   UNL d   1      56.574  -0.308  32.173  0.00  0.00     0.180 A 
ATOM     17  C   UNL d   1      56.245  -0.895  32.473  0.00  0.00     0.255 A 
ATOM     18  S   UNL d   1      55.876  -0.823  33.115  0.00  0.00    -0.043 SA
ATOM     19  O   UNL d   1      56.279  -1.547  32.143  0.00  0.00    -0.277 OA
ATOM     20  C   UNL d   1      55.843  -0.170  33.445  0.00  0.00     0.041 A 
ATOM     21  C   UNL d   1      56.171   0.416  33.145  0.00  0.00     0.043 A 
ENDBRANCH  15  16
ENDBRANCH  13  15
ENDBRANCH   1  13
TORSDOF 5
ENDMDL
MODEL 4
REMARK VINA RESULT:      -3.2      2.284      5.084
REMARK  5 active torsions:
REMARK  status: ('A' for Active; 'I' for Inactive)
REMARK    1  A    between atoms: C_8  and  N_1 
REMARK       I    between atoms: N_2  and  C_4 
REMARK    2  A    between atoms: C_3  and  N_2 
REMARK    3  A    between atoms: N_6  and  C_3 
REMARK    4  A    between atoms: C_4  and  C_12 
REMARK    5  A    between atoms: C_7  and  N_6 
ROOT
ATOM      1  N   UNL d   1      56.684  -0.459  32.018  0.00  0.00    -0.168 NA
ATOM      2  C   UNL d   1      57.032  -0.934  31.441  0.00  0.00     0.282 C 
ATOM      3  O   UNL d   1      56.867  -1.737  31.413  0.00  0.00    -0.265 OA
ENDROOT
BRANCH   2   4
ATOM      4  C   UNL d   1      57.550  -0.598  30.890  0.00  0.00     0.058 A 
ATOM      5  C   UNL d   1      58.022  -1.095  30.421  0.00  0.00     0.006 A 
ATOM      6  C   UNL d   1      58.535  -0.767  29.874  0.00  0.00     0.024 A 
ATOM      7  C   UNL d   1      58.583   0.057  29.791  0.00  0.00     0.127 A 
ATOM      8  C   UNL d   1      58.110   0.544  30.261  0.00  0.00     0.024 A 
ATOM      9  C   UNL d   1      57.594   0.208  30.811  0.00  0.00     0.006 A 
BRANCH   7  10
ATOM     10  N   UNL d   1      59.099   0.384  29.242  0.00  0.00    -0.114 N 
ATOM     11  O   UNL d   1      59.909   0.415  29.399  0.00  0.00    -0.532 OA
ATOM     12  O   UNL d   1      58.806   0.681  28.536  0.00  0.00    -0.532 OA
ENDBRANCH   7  10
ENDBRANCH   2   4
BRANCH   1  13
ATOM     13  C   UNL d   1      56.168  -0.787  32.569  0.00  0.00     0.275 C 
ATOM     14  S   UNL d   1      55.845  -1.532  32.431  0.00  0.00    -0.023 SA
BRANCH  13  15
ATOM     15  N   UNL d   1      55.974  -0.376  33.255  0.00  0.00    -0.369 NA
BRANCH  15  16
ATOM     16  C   UNL d   1      55.779   0.024  33.929  0.00  0.00     0.180 A 
ATOM     17  C   UNL d   1      55.167   0.350  34.177  0.00  0.00     0.255 A 
ATOM     18  S   UNL d   1      55.169   0.682  34.842  0.00  0.00    -0.043 SA
ATOM     19  O   UNL d   1      54.557   0.350  33.771  0.00  0.00    -0.277 OA
ATOM     20  C   UNL d   1      55.779   0.682  35.247  0.00  0.00     0.041 A 
ATOM     21  C   UNL d   1      56.391   0.356  35.000  0.00  0.00     0.043 A 
ENDBRANCH  15  16
ENDBRANCH  13  15
ENDBRANCH   1  13
TORSDOF 5
ENDMDL
