MODEL 1
REMARK VINA RESULT:      -2.5      0.000      0.000
REMARK  6 active torsions:
REMARK  status: ('A' for Active; 'I' for Inactive)
REMARK       I    between atoms: C_5  and  N_1 
REMARK    1  A    between atoms: C_10  and  C_5 
REMARK    2  A    between atoms: C_7  and  C_13 
REMARK       I    between atoms: N_8  and  C_7 
REMARK    3  A    between atoms: C_12  and  N_8 
REMARK    4  A    between atoms: C_13  and  C_10 
REMARK    5  A    between atoms: O_20  and  C_14 
REMARK    6  A    between atoms: C_22  and  O_20 
ROOT
ATOM      1  C   UNL d   1      32.584  16.782 -23.700  0.00  0.00     0.279 C 
ATOM      2  N   UNL d   1      33.241  17.208 -23.471  0.00  0.00    -0.208 NA
ATOM      3  O   UNL d   1      32.667  15.999 -23.986  0.00  0.00    -0.265 OA
ENDROOT
BRANCH   1   4
ATOM      4  C   UNL d   1      31.848  17.118 -23.650  0.00  0.00     0.068 C 
BRANCH   4   5
ATOM      5  C   UNL d   1      31.232  16.841 -24.117  0.00  0.00     0.068 C 
BRANCH   5   6
ATOM      6  C   UNL d   1      30.511  16.632 -23.775  0.00  0.00     0.281 C 
ATOM      7  N   UNL d   1      29.809  16.996 -24.037  0.00  0.00    -0.195 N 
ATOM      8  N   UNL d   1      29.654  17.563 -24.605  0.00  0.00    -0.163 NA
ATOM      9  C   UNL d   1      29.092  16.784 -23.691  0.00  0.00     0.088 A 
ATOM     10  C   UNL d   1      28.824  17.707 -24.614  0.00  0.00     0.103 A 
ATOM     11  C   UNL d   1      28.409  18.234 -25.097  0.00  0.00     0.022 C 
ATOM     12  C   UNL d   1      28.496  17.224 -24.050  0.00  0.00     0.040 A 
ATOM     13  C   UNL d   1      28.978  16.225 -23.084  0.00  0.00     0.021 C 
ATOM     14  O   UNL d   1      30.488  16.063 -23.173  0.00  0.00    -0.265 OA
ENDBRANCH   5   6
ENDBRANCH   4   5
ENDBRANCH   1   4
BRANCH   2  15
ATOM     15  C   UNL d   1      33.156  17.980 -23.188  0.00  0.00     0.085 A 
ATOM     16  C   UNL d   1      33.097  18.617 -23.722  0.00  0.00     0.021 A 
ATOM     17  C   UNL d   1      33.012  19.390 -23.440  0.00  0.00     0.026 A 
ATOM     18  C   UNL d   1      32.988  19.523 -22.640  0.00  0.00     0.100 A 
ATOM     19  C   UNL d   1      33.047  18.892 -22.102  0.00  0.00     0.026 A 
ATOM     20  C   UNL d   1      33.131  18.121 -22.375  0.00  0.00     0.021 A 
BRANCH  18  21
ATOM     21  O   UNL d   1      32.902  20.304 -22.373  0.00  0.00    -0.305 OA
BRANCH  21  22
ATOM     22  C   UNL d   1      32.698  20.458 -21.597  0.00  0.00     0.123 C 
ATOM     23  C   UNL d   1      32.940  21.153 -21.235  0.00  0.00     0.029 C 
ENDBRANCH  21  22
ENDBRANCH  18  21
ENDBRANCH   2  15
TORSDOF 6
ENDMDL
MODEL 2
REMARK VINA RESULT:      -2.3      1.899      4.599
REMARK  6 active torsions:
REMARK  status: ('A' for Active; 'I' for Inactive)
REMARK       I    between atoms: C_5  and  N_1 
REMARK    1  A    between atoms: C_10  and  C_5 
REMARK    2  A    between atoms: C_7  and  C_13 
REMARK       I    between atoms: N_8  and  C_7 
REMARK    3  A    between atoms: C_12  and  N_8 
REMARK    4  A    between atoms: C_13  and  C_10 
REMARK    5  A    between atoms: O_20  and  C_14 
REMARK    6  A    between atoms: C_22  and  O_20 
ROOT
ATOM      1  C   UNL d   1      32.800  19.801 -24.574  0.00  0.00     0.279 C 
ATOM      2  N   UNL d   1      32.488  19.256 -25.095  0.00  0.00    -0.208 NA
ATOM      3  O   UNL d   1      33.027  20.561 -24.844  0.00  0.00    -0.265 OA
ENDROOT
BRANCH   1   4
ATOM      4  C   UNL d   1      32.890  19.606 -23.792  0.00  0.00     0.068 C 
BRANCH   4   5
ATOM      5  C   UNL d   1      33.241  20.134 -23.270  0.00  0.00     0.068 C 
BRANCH   5   6
ATOM      6  C   UNL d   1      33.134  20.048 -22.456  0.00  0.00     0.281 C 
ATOM      7  N   UNL d   1      32.920  20.709 -21.996  0.00  0.00    -0.195 N 
ATOM      8  N   UNL d   1      32.778  21.493 -22.179  0.00  0.00    -0.163 NA
ATOM      9  C   UNL d   1      32.815  20.616 -21.184  0.00  0.00     0.088 A 
ATOM     10  C   UNL d   1      32.581  21.897 -21.467  0.00  0.00     0.103 A 
ATOM     11  C   UNL d   1      32.393  22.698 -21.377  0.00  0.00     0.022 C 
ATOM     12  C   UNL d   1      32.608  21.348 -20.870  0.00  0.00     0.040 A 
ATOM     13  C   UNL d   1      32.900  19.912 -20.748  0.00  0.00     0.021 C 
ATOM     14  O   UNL d   1      33.240  19.307 -22.101  0.00  0.00    -0.265 OA
ENDBRANCH   5   6
ENDBRANCH   4   5
ENDBRANCH   1   4
BRANCH   2  15
ATOM     15  C   UNL d   1      32.264  18.507 -24.826  0.00  0.00     0.085 A 
ATOM     16  C   UNL d   1      32.829  17.898 -24.768  0.00  0.00     0.021 A 
ATOM     17  C   UNL d   1      32.605  17.148 -24.499  0.00  0.00     0.026 A 
ATOM     18  C   UNL d   1      31.833  17.011 -24.293  0.00  0.00     0.100 A 
ATOM     19  C   UNL d   1      31.264  17.615 -24.348  0.00  0.00     0.026 A 
ATOM     20  C   UNL d   1      31.479  18.362 -24.614  0.00  0.00     0.021 A 
BRANCH  18  21
ATOM     21  O   UNL d   1      31.625  16.253 -24.025  0.00  0.00    -0.305 OA
BRANCH  21  22
ATOM     22  C   UNL d   1      31.551  16.100 -23.226  0.00  0.00     0.123 C 
ATOM     23  C   UNL d   1      31.023  15.533 -22.960  0.00  0.00     0.029 C 
ENDBRANCH  21  22
ENDBRANCH  18  21
ENDBRANCH   2  15
TORSDOF 6
ENDMDL
MODEL 3
REMARK VINA RESULT:      -1.5      1.092      1.492
REMARK  6 active torsions:
REMARK  status: ('A' for Active; 'I' for Inactive)
REMARK       I    between atoms: C_5  and  N_1 
REMARK    1  A    between atoms: C_10  and  C_5 
REMARK    2  A    between atoms: C_7  and  C_13 
REMARK       I    between atoms: N_8  and  C_7 
REMARK    3  A    between atoms: C_12  and  N_8 
REMARK    4  A    between atoms: C_13  and  C_10 
REMARK    5  A    between atoms: O_20  and  C_14 
REMARK    6  A    between atoms: C_22  and  O_20 
ROOT
ATOM      1  C   UNL d   1      32.679  17.601 -22.973  0.00  0.00     0.279 C 
ATOM      2  N   UNL d   1      33.235  18.089 -22.629  0.00  0.00    -0.208 NA
ATOM      3  O   UNL d   1      32.733  16.770 -22.885  0.00  0.00    -0.265 OA
ENDROOT
BRANCH   1   4
ATOM      4  C   UNL d   1      32.071  17.924 -23.401  0.00  0.00     0.068 C 
BRANCH   4   5
ATOM      5  C   UNL d   1      31.428  17.462 -23.623  0.00  0.00     0.068 C 
BRANCH   5   6
ATOM      6  C   UNL d   1      30.835  17.778 -24.102  0.00  0.00     0.281 C 
ATOM      7  N   UNL d   1      30.118  17.364 -24.198  0.00  0.00    -0.195 N 
ATOM      8  N   UNL d   1      29.841  16.654 -23.901  0.00  0.00    -0.163 NA
ATOM      9  C   UNL d   1      29.530  17.684 -24.677  0.00  0.00     0.088 A 
ATOM     10  C   UNL d   1      29.064  16.529 -24.202  0.00  0.00     0.103 A 
ATOM     11  C   UNL d   1      28.563  15.888 -24.055  0.00  0.00     0.022 C 
ATOM     12  C   UNL d   1      28.890  17.166 -24.674  0.00  0.00     0.040 A 
ATOM     13  C   UNL d   1      29.565  18.402 -25.097  0.00  0.00     0.021 C 
ATOM     14  O   UNL d   1      30.954  18.503 -24.485  0.00  0.00    -0.265 OA
ENDBRANCH   5   6
ENDBRANCH   4   5
ENDBRANCH   1   4
BRANCH   2  15
ATOM     15  C   UNL d   1      33.180  18.909 -22.716  0.00  0.00     0.085 A 
ATOM     16  C   UNL d   1      33.241  19.253 -23.472  0.00  0.00     0.021 A 
ATOM     17  C   UNL d   1      33.185  20.074 -23.560  0.00  0.00     0.026 A 
ATOM     18  C   UNL d   1      33.071  20.540 -22.905  0.00  0.00     0.100 A 
ATOM     19  C   UNL d   1      33.009  20.201 -22.149  0.00  0.00     0.026 A 
ATOM     20  C   UNL d   1      33.063  19.387 -22.054  0.00  0.00     0.021 A 
BRANCH  18  21
ATOM     21  O   UNL d   1      33.017  21.361 -23.011  0.00  0.00    -0.305 OA
BRANCH  21  22
ATOM     22  C   UNL d   1      32.897  21.856 -22.372  0.00  0.00     0.123 C 
ATOM     23  C   UNL d   1      33.150  22.635 -22.398  0.00  0.00     0.029 C 
ENDBRANCH  21  22
ENDBRANCH  18  21
ENDBRANCH   2  15
TORSDOF 6
ENDMDL
MODEL 4
REMARK VINA RESULT:      -1.1      2.969      5.278
REMARK  6 active torsions:
REMARK  status: ('A' for Active; 'I' for Inactive)
REMARK       I    between atoms: C_5  and  N_1 
REMARK    1  A    between atoms: C_10  and  C_5 
REMARK    2  A    between atoms: C_7  and  C_13 
REMARK       I    between atoms: N_8  and  C_7 
REMARK    3  A    between atoms: C_12  and  N_8 
REMARK    4  A    between atoms: C_13  and  C_10 
REMARK    5  A    between atoms: O_20  and  C_14 
REMARK    6  A    between atoms: C_22  and  O_20 
ROOT
ATOM      1  C   UNL d   1      32.822  22.715 -21.839  0.00  0.00     0.279 C 
ATOM      2  N   UNL d   1      32.712  23.342 -21.328  0.00  0.00    -0.208 NA
ATOM      3  O   UNL d   1      32.941  22.852 -22.656  0.00  0.00    -0.265 OA
ENDROOT
BRANCH   1   4
ATOM      4  C   UNL d   1      32.816  21.957 -21.552  0.00  0.00     0.068 C 
BRANCH   4   5
ATOM      5  C   UNL d   1      32.709  21.321 -22.061  0.00  0.00     0.068 C 
BRANCH   5   6
ATOM      6  C   UNL d   1      32.885  20.554 -21.812  0.00  0.00     0.281 C 
ATOM      7  N   UNL d   1      32.772  19.915 -22.334  0.00  0.00    -0.195 N 
ATOM      8  N   UNL d   1      32.504  19.865 -23.104  0.00  0.00    -0.163 NA
ATOM      9  C   UNL d   1      32.949  19.152 -22.079  0.00  0.00     0.088 A 
ATOM     10  C   UNL d   1      32.514  19.055 -23.334  0.00  0.00     0.103 A 
ATOM     11  C   UNL d   1      32.291  18.735 -24.064  0.00  0.00     0.022 C 
ATOM     12  C   UNL d   1      32.788  18.633 -22.698  0.00  0.00     0.040 A 
ATOM     13  C   UNL d   1      33.241  18.931 -21.331  0.00  0.00     0.021 C 
ATOM     14  O   UNL d   1      33.173  20.424 -21.046  0.00  0.00    -0.265 OA
ENDBRANCH   5   6
ENDBRANCH   4   5
ENDBRANCH   1   4
BRANCH   2  15
ATOM     15  C   UNL d   1      32.596  23.205 -20.522  0.00  0.00     0.085 A 
ATOM     16  C   UNL d   1      33.237  22.985 -20.038  0.00  0.00     0.021 A 
ATOM     17  C   UNL d   1      33.121  22.848 -19.230  0.00  0.00     0.026 A 
ATOM     18  C   UNL d   1      32.378  22.929 -18.914  0.00  0.00     0.100 A 
ATOM     19  C   UNL d   1      31.734  23.148 -19.392  0.00  0.00     0.026 A 
ATOM     20  C   UNL d   1      31.842  23.286 -20.195  0.00  0.00     0.021 A 
BRANCH  18  21
ATOM     21  O   UNL d   1      32.278  22.788 -18.102  0.00  0.00    -0.305 OA
BRANCH  21  22
ATOM     22  C   UNL d   1      32.462  23.364 -17.554  0.00  0.00     0.123 C 
ATOM     23  C   UNL d   1      32.743  23.156 -16.812  0.00  0.00     0.029 C 
ENDBRANCH  21  22
ENDBRANCH  18  21
ENDBRANCH   2  15
TORSDOF 6
ENDMDL
MODEL 5
REMARK VINA RESULT:       0.4      2.092      3.677
REMARK  6 active torsions:
REMARK  status: ('A' for Active; 'I' for Inactive)
REMARK       I    between atoms: C_5  and  N_1 
REMARK    1  A    between atoms: C_10  and  C_5 
REMARK    2  A    between atoms: C_7  and  C_13 
REMARK       I    between atoms: N_8  and  C_7 
REMARK    3  A    between atoms: C_12  and  N_8 
REMARK    4  A    between atoms: C_13  and  C_10 
REMARK    5  A    between atoms: O_20  and  C_14 
REMARK    6  A    between atoms: C_22  and  O_20 
ROOT
ATOM      1  C   UNL d   1      32.948  19.970 -21.504  0.00  0.00     0.279 C 
ATOM      2  N   UNL d   1      32.963  20.727 -21.200  0.00  0.00    -0.208 NA
ATOM      3  O   UNL d   1      33.026  19.310 -20.996  0.00  0.00    -0.265 OA
ENDROOT
BRANCH   1   4
ATOM      4  C   UNL d   1      32.858  19.858 -22.302  0.00  0.00     0.068 C 
BRANCH   4   5
ATOM      5  C   UNL d   1      32.994  19.120 -22.636  0.00  0.00     0.068 C 
BRANCH   5   6
ATOM      6  C   UNL d   1      32.484  18.824 -23.213  0.00  0.00     0.281 C 
ATOM      7  N   UNL d   1      32.508  18.014 -23.408  0.00  0.00    -0.195 N 
ATOM      8  N   UNL d   1      32.959  17.389 -23.136  0.00  0.00    -0.163 NA
ATOM      9  C   UNL d   1      31.996  17.725 -23.984  0.00  0.00     0.088 A 
ATOM     10  C   UNL d   1      32.723  16.695 -23.553  0.00  0.00     0.103 A 
ATOM     11  C   UNL d   1      33.023  15.929 -23.466  0.00  0.00     0.022 C 
ATOM     12  C   UNL d   1      32.136  16.917 -24.066  0.00  0.00     0.040 A 
ATOM     13  C   UNL d   1      31.433  18.161 -24.416  0.00  0.00     0.021 C 
ATOM     14  O   UNL d   1      31.952  19.331 -23.595  0.00  0.00    -0.265 OA
ENDBRANCH   5   6
ENDBRANCH   4   5
ENDBRANCH   1   4
BRANCH   2  15
ATOM     15  C   UNL d   1      32.886  21.378 -21.704  0.00  0.00     0.085 A 
ATOM     16  C   UNL d   1      33.233  21.364 -22.461  0.00  0.00     0.021 A 
ATOM     17  C   UNL d   1      33.156  22.015 -22.966  0.00  0.00     0.026 A 
ATOM     18  C   UNL d   1      32.742  22.667 -22.717  0.00  0.00     0.100 A 
ATOM     19  C   UNL d   1      32.394  22.687 -21.962  0.00  0.00     0.026 A 
ATOM     20  C   UNL d   1      32.466  22.044 -21.456  0.00  0.00     0.021 A 
BRANCH  18  21
ATOM     21  O   UNL d   1      32.674  23.312 -23.235  0.00  0.00    -0.305 OA
BRANCH  21  22
ATOM     22  C   UNL d   1      32.460  23.198 -24.015  0.00  0.00     0.123 C 
ATOM     23  C   UNL d   1      32.763  23.682 -24.603  0.00  0.00     0.029 C 
ENDBRANCH  21  22
ENDBRANCH  18  21
ENDBRANCH   2  15
TORSDOF 6
ENDMDL
