MODEL 1
REMARK VINA RESULT:      -6.1      0.000      0.000
REMARK  5 active torsions:
REMARK  status: ('A' for Active; 'I' for Inactive)
REMARK    1  A    between atoms: S_2  and  C_1 
REMARK    2  A    between atoms: C_7  and  S_2 
REMARK    3  A    between atoms: N_8  and  C_5 
REMARK    4  A    between atoms: C_14  and  N_8 
REMARK    5  A    between atoms: O_23  and  C_15 
ROOT
ATOM      1  C   UNL d   1     -40.207  15.329  20.318  0.00  0.00     0.187 A 
ATOM      2  N   UNL d   1     -39.991  15.260  19.532  0.00  0.00    -0.208 NA
ATOM      3  C   UNL d   1     -40.915  15.734  20.367  0.00  0.00     0.118 A 
ATOM      4  C   UNL d   1     -40.570  15.626  19.076  0.00  0.00     0.196 A 
ATOM      5  S   UNL d   1     -41.145  15.922  19.583  0.00  0.00    -0.035 SA
ATOM      6 CL   UNL d   1     -41.325  15.921  21.078  0.00  0.00    -0.073 Cl
ENDROOT
BRANCH   1   7
ATOM      7  S   UNL d   1     -39.809  15.052  21.003  0.00  0.00     0.228 S 
ATOM      8  O   UNL d   1     -39.273  15.683  20.913  0.00  0.00    -0.216 OA
ATOM      9  O   UNL d   1     -40.356  14.431  21.071  0.00  0.00    -0.216 OA
BRANCH   7  10
ATOM     10  C   UNL d   1     -39.423  14.782  21.669  0.00  0.00     0.089 A 
ATOM     11  C   UNL d   1     -39.108  15.310  22.233  0.00  0.00     0.011 A 
ATOM     12  C   UNL d   1     -38.720  15.029  22.901  0.00  0.00     0.001 A 
ATOM     13  C   UNL d   1     -38.631  14.212  23.033  0.00  0.00     0.000 A 
ATOM     14  C   UNL d   1     -38.949  13.680  22.464  0.00  0.00     0.001 A 
ATOM     15  C   UNL d   1     -38.244  13.928  23.698  0.00  0.00     0.000 C 
ATOM     16  C   UNL d   1     -39.333  13.951  21.801  0.00  0.00     0.011 A 
ENDBRANCH   7  10
ENDBRANCH   1   7
BRANCH   4  17
ATOM     17  N   UNL d   1     -40.663  15.737  18.262  0.00  0.00    -0.221 NA
BRANCH  17  18
ATOM     18  C   UNL d   1     -40.150  15.365  17.736  0.00  0.00     0.084 A 
ATOM     19  C   UNL d   1     -39.520  15.789  17.409  0.00  0.00     0.021 A 
ATOM     20  C   UNL d   1     -39.005  15.433  16.887  0.00  0.00     0.026 A 
ATOM     21  C   UNL d   1     -39.117  14.645  16.685  0.00  0.00     0.094 A 
ATOM     22  C   UNL d   1     -39.755  14.212  17.014  0.00  0.00     0.026 A 
ATOM     23  C   UNL d   1     -40.262  14.573  17.533  0.00  0.00     0.021 A 
BRANCH  21  24
ATOM     24  O   UNL d   1     -38.599  14.284  16.159  0.00  0.00    -0.328 OA
ATOM     25  C   UNL d   1     -38.162  13.622  16.410  0.00  0.00     0.181 C 
ENDBRANCH  21  24
ENDBRANCH  17  18
ENDBRANCH   4  17
TORSDOF 5
ENDMDL
MODEL 2
REMARK VINA RESULT:      -6.0      1.343      4.677
REMARK  5 active torsions:
REMARK  status: ('A' for Active; 'I' for Inactive)
REMARK    1  A    between atoms: S_2  and  C_1 
REMARK    2  A    between atoms: C_7  and  S_2 
REMARK    3  A    between atoms: N_8  and  C_5 
REMARK    4  A    between atoms: C_14  and  N_8 
REMARK    5  A    between atoms: O_23  and  C_15 
ROOT
ATOM      1  C   UNL d   1     -39.980  15.178  18.649  0.00  0.00     0.187 A 
ATOM      2  N   UNL d   1     -39.830  15.054  19.443  0.00  0.00    -0.208 NA
ATOM      3  C   UNL d   1     -40.632  15.662  18.570  0.00  0.00     0.118 A 
ATOM      4  C   UNL d   1     -40.397  15.466  19.874  0.00  0.00     0.196 A 
ATOM      5  S   UNL d   1     -40.897  15.845  19.343  0.00  0.00    -0.035 SA
ATOM      6 CL   UNL d   1     -40.966  15.921  17.842  0.00  0.00    -0.073 Cl
ENDROOT
BRANCH   1   7
ATOM      7  S   UNL d   1     -39.566  14.883  17.979  0.00  0.00     0.228 S 
ATOM      8  O   UNL d   1     -40.117  14.258  17.950  0.00  0.00    -0.216 OA
ATOM      9  O   UNL d   1     -39.030  15.514  18.030  0.00  0.00    -0.216 OA
BRANCH   7  10
ATOM     10  C   UNL d   1     -39.165  14.596  17.330  0.00  0.00     0.089 A 
ATOM     11  C   UNL d   1     -38.868  15.107  16.741  0.00  0.00     0.011 A 
ATOM     12  C   UNL d   1     -38.465  14.808  16.090  0.00  0.00     0.001 A 
ATOM     13  C   UNL d   1     -38.341  13.990  16.000  0.00  0.00     0.000 A 
ATOM     14  C   UNL d   1     -38.641  13.475  16.594  0.00  0.00     0.001 A 
ATOM     15  C   UNL d   1     -37.940  13.689  15.352  0.00  0.00     0.000 C 
ATOM     16  C   UNL d   1     -39.040  13.764  17.241  0.00  0.00     0.011 A 
ENDBRANCH   7  10
ENDBRANCH   1   7
BRANCH   4  17
ATOM     17  N   UNL d   1     -40.536  15.556  20.684  0.00  0.00    -0.221 NA
BRANCH  17  18
ATOM     18  C   UNL d   1     -39.992  15.264  21.230  0.00  0.00     0.084 A 
ATOM     19  C   UNL d   1     -39.432  15.773  21.562  0.00  0.00     0.021 A 
ATOM     20  C   UNL d   1     -38.888  15.497  22.103  0.00  0.00     0.026 A 
ATOM     21  C   UNL d   1     -38.899  14.704  22.317  0.00  0.00     0.094 A 
ATOM     22  C   UNL d   1     -39.466  14.185  21.982  0.00  0.00     0.026 A 
ATOM     23  C   UNL d   1     -40.003  14.468  21.445  0.00  0.00     0.021 A 
BRANCH  21  24
ATOM     24  O   UNL d   1     -38.352  14.424  22.862  0.00  0.00    -0.328 OA
ATOM     25  C   UNL d   1     -38.454  13.664  23.186  0.00  0.00     0.181 C 
ENDBRANCH  21  24
ENDBRANCH  17  18
ENDBRANCH   4  17
TORSDOF 5
ENDMDL
MODEL 3
REMARK VINA RESULT:      -5.8      7.767      9.043
REMARK  5 active torsions:
REMARK  status: ('A' for Active; 'I' for Inactive)
REMARK    1  A    between atoms: S_2  and  C_1 
REMARK    2  A    between atoms: C_7  and  S_2 
REMARK    3  A    between atoms: N_8  and  C_5 
REMARK    4  A    between atoms: C_14  and  N_8 
REMARK    5  A    between atoms: O_23  and  C_15 
ROOT
ATOM      1  C   UNL d   1     -46.509  13.351  22.747  0.00  0.00     0.187 A 
ATOM      2  N   UNL d   1     -47.310  13.358  22.583  0.00  0.00    -0.208 NA
ATOM      3  C   UNL d   1     -46.228  14.118  22.745  0.00  0.00     0.118 A 
ATOM      4  C   UNL d   1     -47.540  14.141  22.476  0.00  0.00     0.196 A 
ATOM      5  S   UNL d   1     -46.879  14.617  22.574  0.00  0.00    -0.035 SA
ATOM      6 CL   UNL d   1     -45.431  14.349  22.889  0.00  0.00    -0.073 Cl
ENDROOT
BRANCH   1   7
ATOM      7  S   UNL d   1     -46.005  12.697  22.899  0.00  0.00     0.228 S 
ATOM      8  O   UNL d   1     -45.794  12.708  22.094  0.00  0.00    -0.216 OA
ATOM      9  O   UNL d   1     -46.231  12.707  23.698  0.00  0.00    -0.216 OA
BRANCH   7  10
ATOM     10  C   UNL d   1     -45.515  12.062  23.047  0.00  0.00     0.089 A 
ATOM     11  C   UNL d   1     -45.748  11.442  23.555  0.00  0.00     0.011 A 
ATOM     12  C   UNL d   1     -45.247  10.806  23.698  0.00  0.00     0.001 A 
ATOM     13  C   UNL d   1     -44.497  10.762  23.342  0.00  0.00     0.000 A 
ATOM     14  C   UNL d   1     -44.262  11.387  22.830  0.00  0.00     0.001 A 
ATOM     15  C   UNL d   1     -43.995  10.129  23.482  0.00  0.00     0.000 C 
ATOM     16  C   UNL d   1     -44.753  12.019  22.684  0.00  0.00     0.011 A 
ENDBRANCH   7  10
ENDBRANCH   1   7
BRANCH   4  17
ATOM     17  N   UNL d   1     -48.265  14.498  22.301  0.00  0.00    -0.221 NA
BRANCH  17  18
ATOM     18  C   UNL d   1     -48.968  14.091  22.440  0.00  0.00     0.084 A 
ATOM     19  C   UNL d   1     -49.253  13.560  21.874  0.00  0.00     0.021 A 
ATOM     20  C   UNL d   1     -49.947  13.151  21.999  0.00  0.00     0.026 A 
ATOM     21  C   UNL d   1     -50.365  13.271  22.696  0.00  0.00     0.094 A 
ATOM     22  C   UNL d   1     -50.079  13.808  23.272  0.00  0.00     0.026 A 
ATOM     23  C   UNL d   1     -49.388  14.210  23.140  0.00  0.00     0.021 A 
BRANCH  21  24
ATOM     24  O   UNL d   1     -51.064  12.859  22.823  0.00  0.00    -0.328 OA
ATOM     25  C   UNL d   1     -51.035  12.113  23.192  0.00  0.00     0.181 C 
ENDBRANCH  21  24
ENDBRANCH  17  18
ENDBRANCH   4  17
TORSDOF 5
ENDMDL
MODEL 4
REMARK VINA RESULT:      -5.5      7.635      9.003
REMARK  5 active torsions:
REMARK  status: ('A' for Active; 'I' for Inactive)
REMARK    1  A    between atoms: S_2  and  C_1 
REMARK    2  A    between atoms: C_7  and  S_2 
REMARK    3  A    between atoms: N_8  and  C_5 
REMARK    4  A    between atoms: C_14  and  N_8 
REMARK    5  A    between atoms: O_23  and  C_15 
ROOT
ATOM      1  C   UNL d   1     -47.647  12.635  23.002  0.00  0.00     0.187 A 
ATOM      2  N   UNL d   1     -46.873  12.897  22.971  0.00  0.00    -0.208 NA
ATOM      3  C   UNL d   1     -47.677  11.932  23.416  0.00  0.00     0.118 A 
ATOM      4  C   UNL d   1     -46.405  12.352  23.373  0.00  0.00     0.196 A 
ATOM      5  S   UNL d   1     -46.893  11.753  23.651  0.00  0.00    -0.035 SA
ATOM      6 CL   UNL d   1     -48.371  11.483  23.571  0.00  0.00    -0.073 Cl
ENDROOT
BRANCH   1   7
ATOM      7  S   UNL d   1     -48.339  12.986  22.679  0.00  0.00     0.228 S 
ATOM      8  O   UNL d   1     -48.319  13.533  23.307  0.00  0.00    -0.216 OA
ATOM      9  O   UNL d   1     -48.337  12.429  22.064  0.00  0.00    -0.216 OA
BRANCH   7  10
ATOM     10  C   UNL d   1     -49.010  13.327  22.366  0.00  0.00     0.089 A 
ATOM     11  C   UNL d   1     -49.400  12.996  21.707  0.00  0.00     0.011 A 
ATOM     12  C   UNL d   1     -50.076  13.348  21.399  0.00  0.00     0.001 A 
ATOM     13  C   UNL d   1     -50.390  14.042  21.735  0.00  0.00     0.000 A 
ATOM     14  C   UNL d   1     -49.996  14.375  22.400  0.00  0.00     0.001 A 
ATOM     15  C   UNL d   1     -51.064  14.395  21.430  0.00  0.00     0.000 C 
ATOM     16  C   UNL d   1     -49.327  14.033  22.709  0.00  0.00     0.011 A 
ENDBRANCH   7  10
ENDBRANCH   1   7
BRANCH   4  17
ATOM     17  N   UNL d   1     -45.595  12.310  23.530  0.00  0.00    -0.221 NA
BRANCH  17  18
ATOM     18  C   UNL d   1     -45.052  12.384  22.914  0.00  0.00     0.084 A 
ATOM     19  C   UNL d   1     -44.497  11.785  22.784  0.00  0.00     0.021 A 
ATOM     20  C   UNL d   1     -43.955  11.845  22.178  0.00  0.00     0.026 A 
ATOM     21  C   UNL d   1     -43.963  12.508  21.694  0.00  0.00     0.094 A 
ATOM     22  C   UNL d   1     -44.524  13.117  21.823  0.00  0.00     0.026 A 
ATOM     23  C   UNL d   1     -45.060  13.050  22.428  0.00  0.00     0.021 A 
BRANCH  21  24
ATOM     24  O   UNL d   1     -43.417  12.571  21.083  0.00  0.00    -0.328 OA
ATOM     25  C   UNL d   1     -42.825  13.154  21.126  0.00  0.00     0.181 C 
ENDBRANCH  21  24
ENDBRANCH  17  18
ENDBRANCH   4  17
TORSDOF 5
ENDMDL
MODEL 5
REMARK VINA RESULT:      -5.2      8.166      9.482
REMARK  5 active torsions:
REMARK  status: ('A' for Active; 'I' for Inactive)
REMARK    1  A    between atoms: S_2  and  C_1 
REMARK    2  A    between atoms: C_7  and  S_2 
REMARK    3  A    between atoms: N_8  and  C_5 
REMARK    4  A    between atoms: C_14  and  N_8 
REMARK    5  A    between atoms: O_23  and  C_15 
ROOT
ATOM      1  C   UNL d   1     -47.232  12.351  23.079  0.00  0.00     0.187 A 
ATOM      2  N   UNL d   1     -47.929  12.780  23.083  0.00  0.00    -0.208 NA
ATOM      3  C   UNL d   1     -47.354  11.636  23.453  0.00  0.00     0.118 A 
ATOM      4  C   UNL d   1     -48.501  12.329  23.466  0.00  0.00     0.196 A 
ATOM      5  S   UNL d   1     -48.155  11.621  23.698  0.00  0.00    -0.035 SA
ATOM      6 CL   UNL d   1     -46.775  11.036  23.565  0.00  0.00    -0.073 Cl
ENDROOT
BRANCH   1   7
ATOM      7  S   UNL d   1     -46.484  12.560  22.759  0.00  0.00     0.228 S 
ATOM      8  O   UNL d   1     -46.238  12.750  23.531  0.00  0.00    -0.216 OA
ATOM      9  O   UNL d   1     -46.753  12.363  21.999  0.00  0.00    -0.216 OA
BRANCH   7  10
ATOM     10  C   UNL d   1     -45.757  12.762  22.448  0.00  0.00     0.089 A 
ATOM     11  C   UNL d   1     -45.137  12.206  22.396  0.00  0.00     0.011 A 
ATOM     12  C   UNL d   1     -44.408  12.420  22.081  0.00  0.00     0.001 A 
ATOM     13  C   UNL d   1     -44.269  13.193  21.806  0.00  0.00     0.000 A 
ATOM     14  C   UNL d   1     -44.895  13.752  21.859  0.00  0.00     0.001 A 
ATOM     15  C   UNL d   1     -43.543  13.409  21.492  0.00  0.00     0.000 C 
ATOM     16  C   UNL d   1     -45.618  13.548  22.169  0.00  0.00     0.011 A 
ENDBRANCH   7  10
ENDBRANCH   1   7
BRANCH   4  17
ATOM     17  N   UNL d   1     -49.298  12.459  23.642  0.00  0.00    -0.221 NA
BRANCH  17  18
ATOM     18  C   UNL d   1     -49.744  12.970  23.174  0.00  0.00     0.084 A 
ATOM     19  C   UNL d   1     -49.695  13.787  23.298  0.00  0.00     0.021 A 
ATOM     20  C   UNL d   1     -50.130  14.304  22.842  0.00  0.00     0.026 A 
ATOM     21  C   UNL d   1     -50.623  14.007  22.255  0.00  0.00     0.094 A 
ATOM     22  C   UNL d   1     -50.675  13.181  22.127  0.00  0.00     0.026 A 
ATOM     23  C   UNL d   1     -50.239  12.674  22.585  0.00  0.00     0.021 A 
BRANCH  21  24
ATOM     24  O   UNL d   1     -51.062  14.526  21.796  0.00  0.00    -0.328 OA
ATOM     25  C   UNL d   1     -51.025  14.465  20.966  0.00  0.00     0.181 C 
ENDBRANCH  21  24
ENDBRANCH  17  18
ENDBRANCH   4  17
TORSDOF 5
ENDMDL
MODEL 6
REMARK VINA RESULT:      -4.4      1.982      5.075
REMARK  5 active torsions:
REMARK  status: ('A' for Active; 'I' for Inactive)
REMARK    1  A    between atoms: S_2  and  C_1 
REMARK    2  A    between atoms: C_7  and  S_2 
REMARK    3  A    between atoms: N_8  and  C_5 
REMARK    4  A    between atoms: C_14  and  N_8 
REMARK    5  A    between atoms: O_23  and  C_15 
ROOT
ATOM      1  C   UNL d   1     -39.354  14.540  18.379  0.00  0.00     0.187 A 
ATOM      2  N   UNL d   1     -39.037  14.890  19.047  0.00  0.00    -0.208 NA
ATOM      3  C   UNL d   1     -38.983  13.824  18.248  0.00  0.00     0.118 A 
ATOM      4  C   UNL d   1     -38.457  14.388  19.344  0.00  0.00     0.196 A 
ATOM      5  S   UNL d   1     -38.417  13.727  18.858  0.00  0.00    -0.035 SA
ATOM      6 CL   UNL d   1     -39.150  13.294  17.617  0.00  0.00    -0.073 Cl
ENDROOT
BRANCH   1   7
ATOM      7  S   UNL d   1     -39.961  14.821  17.871  0.00  0.00     0.228 S 
ATOM      8  O   UNL d   1     -39.454  15.448  17.660  0.00  0.00    -0.216 OA
ATOM      9  O   UNL d   1     -40.447  14.188  18.097  0.00  0.00    -0.216 OA
BRANCH   7  10
ATOM     10  C   UNL d   1     -40.550  15.095  17.377  0.00  0.00     0.089 A 
ATOM     11  C   UNL d   1     -41.182  15.555  17.668  0.00  0.00     0.011 A 
ATOM     12  C   UNL d   1     -41.771  15.826  17.162  0.00  0.00     0.001 A 
ATOM     13  C   UNL d   1     -41.754  15.650  16.349  0.00  0.00     0.000 A 
ATOM     14  C   UNL d   1     -41.116  15.186  16.057  0.00  0.00     0.001 A 
ATOM     15  C   UNL d   1     -42.339  15.919  15.842  0.00  0.00     0.000 C 
ATOM     16  C   UNL d   1     -40.530  14.914  16.551  0.00  0.00     0.011 A 
ENDBRANCH   7  10
ENDBRANCH   1   7
BRANCH   4  17
ATOM     17  N   UNL d   1     -37.950  14.433  19.996  0.00  0.00    -0.221 NA
BRANCH  17  18
ATOM     18  C   UNL d   1     -38.256  14.378  20.759  0.00  0.00     0.084 A 
ATOM     19  C   UNL d   1     -38.472  13.638  21.060  0.00  0.00     0.021 A 
ATOM     20  C   UNL d   1     -38.776  13.569  21.814  0.00  0.00     0.026 A 
ATOM     21  C   UNL d   1     -38.867  14.242  22.275  0.00  0.00     0.094 A 
ATOM     22  C   UNL d   1     -38.649  14.993  21.973  0.00  0.00     0.026 A 
ATOM     23  C   UNL d   1     -38.347  15.053  21.223  0.00  0.00     0.021 A 
BRANCH  21  24
ATOM     24  O   UNL d   1     -39.172  14.174  23.034  0.00  0.00    -0.328 OA
ATOM     25  C   UNL d   1     -38.649  14.142  23.681  0.00  0.00     0.181 C 
ENDBRANCH  21  24
ENDBRANCH  17  18
ENDBRANCH   4  17
TORSDOF 5
ENDMDL
MODEL 7
REMARK VINA RESULT:      -4.0      1.887      2.241
REMARK  5 active torsions:
REMARK  status: ('A' for Active; 'I' for Inactive)
REMARK    1  A    between atoms: S_2  and  C_1 
REMARK    2  A    between atoms: C_7  and  S_2 
REMARK    3  A    between atoms: N_8  and  C_5 
REMARK    4  A    between atoms: C_14  and  N_8 
REMARK    5  A    between atoms: O_23  and  C_15 
ROOT
ATOM      1  C   UNL d   1     -38.716  14.612  19.449  0.00  0.00     0.187 A 
ATOM      2  N   UNL d   1     -39.018  15.304  19.134  0.00  0.00    -0.208 NA
ATOM      3  C   UNL d   1     -38.395  14.161  18.849  0.00  0.00     0.118 A 
ATOM      4  C   UNL d   1     -38.887  15.290  18.322  0.00  0.00     0.196 A 
ATOM      5  S   UNL d   1     -38.503  14.589  18.137  0.00  0.00    -0.035 SA
ATOM      6 CL   UNL d   1     -38.029  13.409  18.942  0.00  0.00    -0.073 Cl
ENDROOT
BRANCH   1   7
ATOM      7  S   UNL d   1     -38.706  14.353  20.248  0.00  0.00     0.228 S 
ATOM      8  O   UNL d   1     -38.071  14.875  20.380  0.00  0.00    -0.216 OA
ATOM      9  O   UNL d   1     -39.340  13.841  20.092  0.00  0.00    -0.216 OA
BRANCH   7  10
ATOM     10  C   UNL d   1     -38.697  14.102  21.024  0.00  0.00     0.089 A 
ATOM     11  C   UNL d   1     -39.398  14.058  21.476  0.00  0.00     0.011 A 
ATOM     12  C   UNL d   1     -39.378  13.803  22.257  0.00  0.00     0.001 A 
ATOM     13  C   UNL d   1     -38.661  13.584  22.619  0.00  0.00     0.000 A 
ATOM     14  C   UNL d   1     -37.955  13.629  22.163  0.00  0.00     0.001 A 
ATOM     15  C   UNL d   1     -38.638  13.330  23.398  0.00  0.00     0.000 C 
ATOM     16  C   UNL d   1     -37.968  13.879  21.390  0.00  0.00     0.011 A 
ENDBRANCH   7  10
ENDBRANCH   1   7
BRANCH   4  17
ATOM     17  N   UNL d   1     -39.063  15.821  17.713  0.00  0.00    -0.221 NA
BRANCH  17  18
ATOM     18  C   UNL d   1     -39.823  15.846  17.396  0.00  0.00     0.084 A 
ATOM     19  C   UNL d   1     -39.925  15.847  16.575  0.00  0.00     0.021 A 
ATOM     20  C   UNL d   1     -40.672  15.872  16.249  0.00  0.00     0.026 A 
ATOM     21  C   UNL d   1     -41.327  15.896  16.743  0.00  0.00     0.094 A 
ATOM     22  C   UNL d   1     -41.228  15.895  17.575  0.00  0.00     0.026 A 
ATOM     23  C   UNL d   1     -40.482  15.871  17.892  0.00  0.00     0.021 A 
BRANCH  21  24
ATOM     24  O   UNL d   1     -42.080  15.921  16.416  0.00  0.00    -0.328 OA
ATOM     25  C   UNL d   1     -42.273  15.395  15.800  0.00  0.00     0.181 C 
ENDBRANCH  21  24
ENDBRANCH  17  18
ENDBRANCH   4  17
TORSDOF 5
ENDMDL
MODEL 8
REMARK VINA RESULT:      -4.0      1.888      4.734
REMARK  5 active torsions:
REMARK  status: ('A' for Active; 'I' for Inactive)
REMARK    1  A    between atoms: S_2  and  C_1 
REMARK    2  A    between atoms: C_7  and  S_2 
REMARK    3  A    between atoms: N_8  and  C_5 
REMARK    4  A    between atoms: C_14  and  N_8 
REMARK    5  A    between atoms: O_23  and  C_15 
ROOT
ATOM      1  C   UNL d   1     -39.117  15.037  18.993  0.00  0.00     0.187 A 
ATOM      2  N   UNL d   1     -39.761  14.851  19.461  0.00  0.00    -0.208 NA
ATOM      3  C   UNL d   1     -38.653  15.587  19.380  0.00  0.00     0.118 A 
ATOM      4  C   UNL d   1     -39.705  15.289  20.155  0.00  0.00     0.196 A 
ATOM      5  S   UNL d   1     -39.024  15.746  20.114  0.00  0.00    -0.035 SA
ATOM      6 CL   UNL d   1     -37.940  15.922  19.084  0.00  0.00    -0.073 Cl
ENDROOT
BRANCH   1   7
ATOM      7  S   UNL d   1     -38.912  14.745  18.232  0.00  0.00     0.228 S 
ATOM      8  O   UNL d   1     -38.430  14.181  18.609  0.00  0.00    -0.216 OA
ATOM      9  O   UNL d   1     -39.399  15.318  17.879  0.00  0.00    -0.216 OA
BRANCH   7  10
ATOM     10  C   UNL d   1     -38.714  14.462  17.493  0.00  0.00     0.089 A 
ATOM     11  C   UNL d   1     -38.341  13.721  17.398  0.00  0.00     0.011 A 
ATOM     12  C   UNL d   1     -38.145  13.444  16.649  0.00  0.00     0.001 A 
ATOM     13  C   UNL d   1     -38.312  13.892  15.968  0.00  0.00     0.000 A 
ATOM     14  C   UNL d   1     -38.688  14.639  16.065  0.00  0.00     0.001 A 
ATOM     15  C   UNL d   1     -38.117  13.619  15.220  0.00  0.00     0.000 C 
ATOM     16  C   UNL d   1     -38.884  14.919  16.802  0.00  0.00     0.011 A 
ENDBRANCH   7  10
ENDBRANCH   1   7
BRANCH   4  17
ATOM     17  N   UNL d   1     -40.179  15.341  20.830  0.00  0.00    -0.221 NA
BRANCH  17  18
ATOM     18  C   UNL d   1     -40.724  14.746  20.997  0.00  0.00     0.084 A 
ATOM     19  C   UNL d   1     -40.513  14.129  21.506  0.00  0.00     0.021 A 
ATOM     20  C   UNL d   1     -41.042  13.534  21.680  0.00  0.00     0.026 A 
ATOM     21  C   UNL d   1     -41.792  13.551  21.344  0.00  0.00     0.094 A 
ATOM     22  C   UNL d   1     -42.009  14.175  20.828  0.00  0.00     0.026 A 
ATOM     23  C   UNL d   1     -41.476  14.762  20.661  0.00  0.00     0.021 A 
BRANCH  21  24
ATOM     24  O   UNL d   1     -42.327  12.952  21.517  0.00  0.00    -0.328 OA
ATOM     25  C   UNL d   1     -43.113  13.021  21.252  0.00  0.00     0.181 C 
ENDBRANCH  21  24
ENDBRANCH  17  18
ENDBRANCH   4  17
TORSDOF 5
ENDMDL
MODEL 9
REMARK VINA RESULT:      -3.1      5.928      7.206
REMARK  5 active torsions:
REMARK  status: ('A' for Active; 'I' for Inactive)
REMARK    1  A    between atoms: S_2  and  C_1 
REMARK    2  A    between atoms: C_7  and  S_2 
REMARK    3  A    between atoms: N_8  and  C_5 
REMARK    4  A    between atoms: C_14  and  N_8 
REMARK    5  A    between atoms: O_23  and  C_15 
ROOT
ATOM      1  C   UNL d   1     -45.799  12.813  22.655  0.00  0.00     0.187 A 
ATOM      2  N   UNL d   1     -45.099  12.848  22.234  0.00  0.00    -0.208 NA
ATOM      3  C   UNL d   1     -45.800  12.143  23.121  0.00  0.00     0.118 A 
ATOM      4  C   UNL d   1     -44.649  12.190  22.436  0.00  0.00     0.196 A 
ATOM      5  S   UNL d   1     -45.073  11.749  22.983  0.00  0.00    -0.035 SA
ATOM      6 CL   UNL d   1     -46.420  11.905  23.638  0.00  0.00    -0.073 Cl
ENDROOT
BRANCH   1   7
ATOM      7  S   UNL d   1     -46.448  13.348  22.651  0.00  0.00     0.228 S 
ATOM      8  O   UNL d   1     -46.086  13.746  23.286  0.00  0.00    -0.216 OA
ATOM      9  O   UNL d   1     -46.788  12.933  22.017  0.00  0.00    -0.216 OA
BRANCH   7  10
ATOM     10  C   UNL d   1     -47.077  13.866  22.647  0.00  0.00     0.089 A 
ATOM     11  C   UNL d   1     -47.865  13.594  22.644  0.00  0.00     0.011 A 
ATOM     12  C   UNL d   1     -48.493  14.126  22.640  0.00  0.00     0.001 A 
ATOM     13  C   UNL d   1     -48.360  14.947  22.639  0.00  0.00     0.000 A 
ATOM     14  C   UNL d   1     -47.564  15.221  22.643  0.00  0.00     0.001 A 
ATOM     15  C   UNL d   1     -48.983  15.479  22.636  0.00  0.00     0.000 C 
ATOM     16  C   UNL d   1     -46.939  14.701  22.646  0.00  0.00     0.011 A 
ENDBRANCH   7  10
ENDBRANCH   1   7
BRANCH   4  17
ATOM     17  N   UNL d   1     -43.903  11.921  22.201  0.00  0.00    -0.221 NA
BRANCH  17  18
ATOM     18  C   UNL d   1     -43.391  12.428  21.801  0.00  0.00     0.084 A 
ATOM     19  C   UNL d   1     -42.675  12.647  22.153  0.00  0.00     0.021 A 
ATOM     20  C   UNL d   1     -42.159  13.147  21.769  0.00  0.00     0.026 A 
ATOM     21  C   UNL d   1     -42.355  13.435  21.025  0.00  0.00     0.094 A 
ATOM     22  C   UNL d   1     -43.079  13.215  20.665  0.00  0.00     0.026 A 
ATOM     23  C   UNL d   1     -43.587  12.717  21.054  0.00  0.00     0.021 A 
BRANCH  21  24
ATOM     24  O   UNL d   1     -41.836  13.939  20.637  0.00  0.00    -0.328 OA
ATOM     25  C   UNL d   1     -41.171  14.229  21.044  0.00  0.00     0.181 C 
ENDBRANCH  21  24
ENDBRANCH  17  18
ENDBRANCH   4  17
TORSDOF 5
ENDMDL
