MODEL 1
REMARK VINA RESULT:      -1.0      0.000      0.000
REMARK  4 active torsions:
REMARK  status: ('A' for Active; 'I' for Inactive)
REMARK    1  A    between atoms: N_6  and  C_1 
REMARK       I    between atoms: C_9  and  N_6 
REMARK    2  A    between atoms: C_15  and  C_9 
REMARK    3  A    between atoms: C_13  and  C_16 
REMARK    4  A    between atoms: C_19  and  C_13 
ROOT
ATOM      1  C   UNL d   1      32.468  18.749 -23.292  0.00  0.00     0.123 A 
ATOM      2  C   UNL d   1      32.018  18.436 -23.909  0.00  0.00     0.092 A 
ATOM      3  C   UNL d   1      32.122  17.622 -23.904  0.00  0.00     0.013 A 
ATOM      4  C   UNL d   1      32.628  17.427 -23.295  0.00  0.00     0.029 A 
ATOM      5  S   UNL d   1      32.848  18.125 -22.909  0.00  0.00    -0.070 SA
ATOM      6  C   UNL d   1      32.835  16.635 -23.156  0.00  0.00     0.104 A 
ATOM      7  N   UNL d   1      32.526  16.043 -23.637  0.00  0.00    -0.294 NA
ATOM      8  C   UNL d   1      31.555  18.872 -24.425  0.00  0.00     0.103 C 
ATOM      9  C   UNL d   1      32.012  16.241 -24.255  0.00  0.00     0.099 A 
ATOM     10  C   UNL d   1      31.808  17.031 -24.391  0.00  0.00    -0.004 A 
ATOM     11  N   UNL d   1      31.094  19.300 -24.941  0.00  0.00    -0.191 NA
ATOM     12  C   UNL d   1      33.240  17.062 -22.578  0.00  0.00     0.029 C 
ATOM     13  C   UNL d   1      33.151  15.927 -22.867  0.00  0.00     0.029 C 
ATOM     14  C   UNL d   1      32.212  15.453 -24.125  0.00  0.00     0.029 C 
ATOM     15  C   UNL d   1      31.499  16.439 -24.873  0.00  0.00     0.029 C 
ENDROOT
BRANCH   1  16
ATOM     16  N   UNL d   1      32.531  19.549 -23.088  0.00  0.00    -0.201 NA
ATOM     17  C   UNL d   1      32.695  19.765 -22.309  0.00  0.00     0.280 C 
ATOM     18  O   UNL d   1      32.797  19.191 -21.731  0.00  0.00    -0.265 OA
BRANCH  17  19
ATOM     19  C   UNL d   1      32.757  20.553 -22.109  0.00  0.00     0.058 A 
ATOM     20  C   UNL d   1      32.756  20.779 -21.315  0.00  0.00     0.005 A 
ATOM     21  C   UNL d   1      32.819  21.579 -21.111  0.00  0.00     0.003 A 
ATOM     22  C   UNL d   1      32.884  22.152 -21.702  0.00  0.00     0.039 A 
ATOM     23  C   UNL d   1      32.885  21.924 -22.483  0.00  0.00     0.003 A 
ATOM     24  C   UNL d   1      32.821  21.124 -22.687  0.00  0.00     0.005 A 
BRANCH  22  25
ATOM     25  C   UNL d   1      32.946  22.947 -21.495  0.00  0.00     0.196 C 
ATOM     26  O   UNL d   1      33.240  23.488 -22.033  0.00  0.00    -0.287 OA
BRANCH  25  27
ATOM     27  C   UNL d   1      32.713  23.195 -20.747  0.00  0.00     0.039 A 
ATOM     28  C   UNL d   1      33.241  23.194 -20.123  0.00  0.00     0.003 A 
ATOM     29  C   UNL d   1      33.007  23.441 -19.375  0.00  0.00     0.000 A 
ATOM     30  C   UNL d   1      32.229  23.693 -19.253  0.00  0.00     0.000 A 
ATOM     31  C   UNL d   1      31.692  23.696 -19.881  0.00  0.00     0.000 A 
ATOM     32  C   UNL d   1      31.935  23.447 -20.625  0.00  0.00     0.003 A 
ENDBRANCH  25  27
ENDBRANCH  22  25
ENDBRANCH  17  19
ENDBRANCH   1  16
TORSDOF 4
ENDMDL
