MODEL 1
REMARK VINA RESULT:      -2.4      0.000      0.000
REMARK  7 active torsions:
REMARK  status: ('A' for Active; 'I' for Inactive)
REMARK    1  A    between atoms: O_8  and  C_1 
REMARK    2  A    between atoms: C_10  and  C_5 
REMARK    3  A    between atoms: C_12  and  O_8 
REMARK    4  A    between atoms: N_9  and  C_10 
REMARK    5  A    between atoms: C_25  and  N_14 
REMARK    6  A    between atoms: O_24  and  C_17 
REMARK    7  A    between atoms: C_29  and  C_25 
ROOT
ATOM      1  C   UNL d   1      57.192   0.556  32.018  0.00  0.00     0.161 A 
ATOM      2  C   UNL d   1      58.186   0.588  30.681  0.00  0.00     0.108 A 
ATOM      3  C   UNL d   1      57.354   0.618  30.591  0.00  0.00     0.064 A 
ATOM      4  C   UNL d   1      56.862   0.602  31.251  0.00  0.00     0.222 A 
ATOM      5  C   UNL d   1      58.671   0.604  30.013  0.00  0.00     0.079 A 
ATOM      6  O   UNL d   1      58.517   0.542  31.436  0.00  0.00    -0.305 OA
ATOM      7  C   UNL d   1      58.020   0.527  32.108  0.00  0.00     0.126 A 
ATOM      8  C   UNL d   1      57.028   0.664  29.825  0.00  0.00     0.009 A 
ATOM      9  C   UNL d   1      58.351   0.649  29.259  0.00  0.00     0.199 A 
ATOM     10  O   UNL d   1      56.042   0.632  31.166  0.00  0.00    -0.284 OA
ATOM     11  C   UNL d   1      57.520   0.679  29.164  0.00  0.00     0.042 A 
ATOM     12  O   UNL d   1      58.830   0.665  28.598  0.00  0.00    -0.286 OA
ATOM     13  C   UNL d   1      58.348   0.481  32.862  0.00  0.00     0.029 C 
ENDROOT
BRANCH   5  14
ATOM     14  C   UNL d   1      59.485   0.574  30.106  0.00  0.00     0.086 C 
BRANCH  14  15
ATOM     15  N   UNL d   1      59.898  -0.116  29.914  0.00  0.00    -0.300 N 
ATOM     16  C   UNL d   1      60.541  -0.349  30.374  0.00  0.00     0.100 A 
ATOM     17  C   UNL d   1      60.953  -1.036  30.184  0.00  0.00     0.100 A 
ATOM     18  N   UNL d   1      60.722  -1.490  29.533  0.00  0.00    -0.297 N 
ATOM     19  C   UNL d   1      60.078  -1.254  29.075  0.00  0.00     0.100 A 
ATOM     20  C   UNL d   1      59.658  -0.561  29.263  0.00  0.00     0.100 A 
BRANCH  18  21
ATOM     21  C   UNL d   1      61.133  -2.178  29.342  0.00  0.00     0.126 C 
BRANCH  21  22
ATOM     22  C   UNL d   1      60.721  -2.868  29.157  0.00  0.00     0.253 C 
ATOM     23  O   UNL d   1      61.120  -3.595  29.139  0.00  0.00    -0.281 OA
ENDBRANCH  21  22
ENDBRANCH  18  21
ENDBRANCH  14  15
ENDBRANCH   5  14
BRANCH   1  24
ATOM     24  O   UNL d   1      56.701   0.541  32.678  0.00  0.00    -0.300 OA
BRANCH  24  25
ATOM     25  C   UNL d   1      56.309  -0.148  32.875  0.00  0.00     0.122 A 
ATOM     26  C   UNL d   1      55.743  -0.143  33.464  0.00  0.00     0.117 A 
ATOM     27  C   UNL d   1      55.348  -0.835  33.662  0.00  0.00     0.026 A 
ATOM     28  C   UNL d   1      55.528  -1.535  33.261  0.00  0.00     0.002 A 
ATOM     29  C   UNL d   1      56.094  -1.541  32.672  0.00  0.00     0.002 A 
ATOM     30  C   UNL d   1      56.490  -0.845  32.474  0.00  0.00     0.027 A 
BRANCH  26  31
ATOM     31  O   UNL d   1      55.572   0.561  33.855  0.00  0.00    -0.326 OA
ATOM     32  C   UNL d   1      55.237   0.544  34.609  0.00  0.00     0.181 C 
ENDBRANCH  26  31
ENDBRANCH  24  25
ENDBRANCH   1  24
TORSDOF 7
ENDMDL
