MODEL 1
REMARK VINA RESULT:      -7.0      0.000      0.000
REMARK  5 active torsions:
REMARK  status: ('A' for Active; 'I' for Inactive)
REMARK    1  A    between atoms: N_2  and  S_1 
REMARK    2  A    between atoms: C_3  and  S_1 
REMARK    3  A    between atoms: C_8  and  N_2 
REMARK    4  A    between atoms: C_12  and  C_8 
REMARK    5  A    between atoms: O_13  and  C_9 
ROOT
ATOM      1  S   UNL d   1     -48.207  13.139  22.983  0.00  0.00     0.285 S 
ATOM      2  O   UNL d   1     -47.775  13.752  22.640  0.00  0.00    -0.198 OA
ATOM      3  O   UNL d   1     -48.645  12.520  23.329  0.00  0.00    -0.198 OA
ENDROOT
BRANCH   1   4
ATOM      4  N   UNL d   1     -48.904  13.565  22.865  0.00  0.00    -0.157 NA
BRANCH   4   5
ATOM      5  C   UNL d   1     -48.913  14.380  22.977  0.00  0.00     0.112 C 
BRANCH   5   6
ATOM      6  C   UNL d   1     -49.631  14.782  23.028  0.00  0.00     0.020 A 
ATOM      7  C   UNL d   1     -50.216  14.649  22.467  0.00  0.00     0.002 A 
ATOM      8  C   UNL d   1     -50.934  15.051  22.518  0.00  0.00     0.000 A 
ATOM      9  C   UNL d   1     -51.064  15.585  23.130  0.00  0.00     0.000 A 
ATOM     10  C   UNL d   1     -50.469  15.714  23.691  0.00  0.00     0.000 A 
ATOM     11  C   UNL d   1     -49.751  15.311  23.640  0.00  0.00     0.002 A 
ENDBRANCH   5   6
ENDBRANCH   4   5
ENDBRANCH   1   4
BRANCH   1  12
ATOM     12  C   UNL d   1     -47.511  12.713  23.101  0.00  0.00     0.105 A 
ATOM     13  C   UNL d   1     -46.811  12.960  22.745  0.00  0.00     0.015 A 
ATOM     14  C   UNL d   1     -46.111  12.532  22.864  0.00  0.00     0.025 A 
ATOM     15  C   UNL d   1     -46.114  11.859  23.337  0.00  0.00     0.094 A 
ATOM     16  C   UNL d   1     -46.818  11.606  23.698  0.00  0.00     0.025 A 
ATOM     17  C   UNL d   1     -47.518  12.034  23.579  0.00  0.00     0.015 A 
BRANCH  15  18
ATOM     18  O   UNL d   1     -45.417  11.434  23.455  0.00  0.00    -0.328 OA
ATOM     19  C   UNL d   1     -45.454  10.621  23.623  0.00  0.00     0.181 C 
ENDBRANCH  15  18
ENDBRANCH   1  12
TORSDOF 5
ENDMDL
MODEL 2
REMARK VINA RESULT:      -6.6      1.747      2.287
REMARK  5 active torsions:
REMARK  status: ('A' for Active; 'I' for Inactive)
REMARK    1  A    between atoms: N_2  and  S_1 
REMARK    2  A    between atoms: C_3  and  S_1 
REMARK    3  A    between atoms: C_8  and  N_2 
REMARK    4  A    between atoms: C_12  and  C_8 
REMARK    5  A    between atoms: O_13  and  C_9 
ROOT
ATOM      1  S   UNL d   1     -47.407  13.000  23.091  0.00  0.00     0.285 S 
ATOM      2  O   UNL d   1     -47.575  13.792  22.932  0.00  0.00    -0.198 OA
ATOM      3  O   UNL d   1     -47.238  12.200  23.253  0.00  0.00    -0.198 OA
ENDROOT
BRANCH   1   4
ATOM      4  N   UNL d   1     -48.178  12.893  23.366  0.00  0.00    -0.157 NA
BRANCH   4   5
ATOM      5  C   UNL d   1     -48.786  12.736  22.836  0.00  0.00     0.112 C 
BRANCH   5   6
ATOM      6  C   UNL d   1     -49.547  12.579  23.114  0.00  0.00     0.020 A 
ATOM      7  C   UNL d   1     -50.118  13.168  23.097  0.00  0.00     0.002 A 
ATOM      8  C   UNL d   1     -50.879  13.011  23.376  0.00  0.00     0.000 A 
ATOM      9  C   UNL d   1     -51.064  12.265  23.670  0.00  0.00     0.000 A 
ATOM     10  C   UNL d   1     -50.481  11.677  23.683  0.00  0.00     0.000 A 
ATOM     11  C   UNL d   1     -49.721  11.834  23.405  0.00  0.00     0.002 A 
ENDBRANCH   5   6
ENDBRANCH   4   5
ENDBRANCH   1   4
BRANCH   1  12
ATOM     12  C   UNL d   1     -46.637  13.108  22.816  0.00  0.00     0.105 A 
ATOM     13  C   UNL d   1     -46.114  12.472  22.793  0.00  0.00     0.015 A 
ATOM     14  C   UNL d   1     -45.340  12.580  22.517  0.00  0.00     0.025 A 
ATOM     15  C   UNL d   1     -45.092  13.323  22.265  0.00  0.00     0.094 A 
ATOM     16  C   UNL d   1     -45.616  13.967  22.286  0.00  0.00     0.025 A 
ATOM     17  C   UNL d   1     -46.390  13.859  22.563  0.00  0.00     0.015 A 
BRANCH  15  18
ATOM     18  O   UNL d   1     -44.322  13.430  21.990  0.00  0.00    -0.328 OA
ATOM     19  C   UNL d   1     -43.967  12.846  21.518  0.00  0.00     0.181 C 
ENDBRANCH  15  18
ENDBRANCH   1  12
TORSDOF 5
ENDMDL
MODEL 3
REMARK VINA RESULT:      -6.4      1.464      5.060
REMARK  5 active torsions:
REMARK  status: ('A' for Active; 'I' for Inactive)
REMARK    1  A    between atoms: N_2  and  S_1 
REMARK    2  A    between atoms: C_3  and  S_1 
REMARK    3  A    between atoms: C_8  and  N_2 
REMARK    4  A    between atoms: C_12  and  C_8 
REMARK    5  A    between atoms: O_13  and  C_9 
ROOT
ATOM      1  S   UNL d   1     -46.563  12.667  23.348  0.00  0.00     0.285 S 
ATOM      2  O   UNL d   1     -46.932  12.016  23.001  0.00  0.00    -0.198 OA
ATOM      3  O   UNL d   1     -46.189  13.326  23.698  0.00  0.00    -0.198 OA
ENDROOT
BRANCH   1   4
ATOM      4  N   UNL d   1     -45.907  12.200  23.528  0.00  0.00    -0.157 NA
BRANCH   4   5
ATOM      5  C   UNL d   1     -45.777  11.498  23.120  0.00  0.00     0.112 C 
BRANCH   5   6
ATOM      6  C   UNL d   1     -45.063  11.094  23.210  0.00  0.00     0.020 A 
ATOM      7  C   UNL d   1     -45.047  10.376  23.608  0.00  0.00     0.002 A 
ATOM      8  C   UNL d   1     -44.333   9.972  23.698  0.00  0.00     0.000 A 
ATOM      9  C   UNL d   1     -43.639  10.288  23.389  0.00  0.00     0.000 A 
ATOM     10  C   UNL d   1     -43.665  11.012  22.989  0.00  0.00     0.000 A 
ATOM     11  C   UNL d   1     -44.379  11.416  22.899  0.00  0.00     0.002 A 
ENDBRANCH   5   6
ENDBRANCH   4   5
ENDBRANCH   1   4
BRANCH   1  12
ATOM     12  C   UNL d   1     -47.218  13.135  23.167  0.00  0.00     0.105 A 
ATOM     13  C   UNL d   1     -47.978  12.850  23.303  0.00  0.00     0.015 A 
ATOM     14  C   UNL d   1     -48.637  13.320  23.122  0.00  0.00     0.025 A 
ATOM     15  C   UNL d   1     -48.532  14.072  22.806  0.00  0.00     0.094 A 
ATOM     16  C   UNL d   1     -47.767  14.364  22.667  0.00  0.00     0.025 A 
ATOM     17  C   UNL d   1     -47.108  13.894  22.848  0.00  0.00     0.015 A 
BRANCH  15  18
ATOM     18  O   UNL d   1     -49.187  14.540  22.625  0.00  0.00    -0.328 OA
ATOM     19  C   UNL d   1     -49.261  15.295  22.963  0.00  0.00     0.181 C 
ENDBRANCH  15  18
ENDBRANCH   1  12
TORSDOF 5
ENDMDL
MODEL 4
REMARK VINA RESULT:      -6.4      1.308      4.634
REMARK  5 active torsions:
REMARK  status: ('A' for Active; 'I' for Inactive)
REMARK    1  A    between atoms: N_2  and  S_1 
REMARK    2  A    between atoms: C_3  and  S_1 
REMARK    3  A    between atoms: C_8  and  N_2 
REMARK    4  A    between atoms: C_12  and  C_8 
REMARK    5  A    between atoms: O_13  and  C_9 
ROOT
ATOM      1  S   UNL d   1     -48.018  13.780  22.628  0.00  0.00     0.285 S 
ATOM      2  O   UNL d   1     -47.717  14.076  23.336  0.00  0.00    -0.198 OA
ATOM      3  O   UNL d   1     -48.322  13.481  21.911  0.00  0.00    -0.198 OA
ENDROOT
BRANCH   1   4
ATOM      4  N   UNL d   1     -47.354  13.297  22.547  0.00  0.00    -0.157 NA
BRANCH   4   5
ATOM      5  C   UNL d   1     -46.624  13.550  22.832  0.00  0.00     0.112 C 
BRANCH   5   6
ATOM      6  C   UNL d   1     -45.945  13.109  22.674  0.00  0.00     0.020 A 
ATOM      7  C   UNL d   1     -45.828  12.388  23.050  0.00  0.00     0.002 A 
ATOM      8  C   UNL d   1     -45.149  11.948  22.893  0.00  0.00     0.000 A 
ATOM      9  C   UNL d   1     -44.589  12.230  22.360  0.00  0.00     0.000 A 
ATOM     10  C   UNL d   1     -44.715  12.958  21.986  0.00  0.00     0.000 A 
ATOM     11  C   UNL d   1     -45.394  13.399  22.144  0.00  0.00     0.002 A 
ENDBRANCH   5   6
ENDBRANCH   4   5
ENDBRANCH   1   4
BRANCH   1  12
ATOM     12  C   UNL d   1     -48.682  14.263  22.708  0.00  0.00     0.105 A 
ATOM     13  C   UNL d   1     -48.640  15.060  22.505  0.00  0.00     0.015 A 
ATOM     14  C   UNL d   1     -49.308  15.545  22.586  0.00  0.00     0.025 A 
ATOM     15  C   UNL d   1     -50.013  15.231  22.869  0.00  0.00     0.094 A 
ATOM     16  C   UNL d   1     -50.060  14.428  23.075  0.00  0.00     0.025 A 
ATOM     17  C   UNL d   1     -49.393  13.943  22.995  0.00  0.00     0.015 A 
BRANCH  15  18
ATOM     18  O   UNL d   1     -50.678  15.714  22.949  0.00  0.00    -0.328 OA
ATOM     19  C   UNL d   1     -51.022  15.821  23.698  0.00  0.00     0.181 C 
ENDBRANCH  15  18
ENDBRANCH   1  12
TORSDOF 5
ENDMDL
MODEL 5
REMARK VINA RESULT:      -5.8      9.043      9.848
REMARK  5 active torsions:
REMARK  status: ('A' for Active; 'I' for Inactive)
REMARK    1  A    between atoms: N_2  and  S_1 
REMARK    2  A    between atoms: C_3  and  S_1 
REMARK    3  A    between atoms: C_8  and  N_2 
REMARK    4  A    between atoms: C_12  and  C_8 
REMARK    5  A    between atoms: O_13  and  C_9 
ROOT
ATOM      1  S   UNL d   1     -39.883  15.061  19.728  0.00  0.00     0.285 S 
ATOM      2  O   UNL d   1     -40.624  15.169  20.074  0.00  0.00    -0.198 OA
ATOM      3  O   UNL d   1     -39.134  14.952  19.377  0.00  0.00    -0.198 OA
ENDROOT
BRANCH   1   4
ATOM      4  N   UNL d   1     -39.538  15.023  20.476  0.00  0.00    -0.157 NA
BRANCH   4   5
ATOM      5  C   UNL d   1     -39.812  14.479  21.029  0.00  0.00     0.112 C 
BRANCH   5   6
ATOM      6  C   UNL d   1     -39.410  14.377  21.742  0.00  0.00     0.020 A 
ATOM      7  C   UNL d   1     -39.186  15.032  22.183  0.00  0.00     0.002 A 
ATOM      8  C   UNL d   1     -38.784  14.930  22.896  0.00  0.00     0.000 A 
ATOM      9  C   UNL d   1     -38.608  14.172  23.165  0.00  0.00     0.000 A 
ATOM     10  C   UNL d   1     -38.838  13.517  22.714  0.00  0.00     0.000 A 
ATOM     11  C   UNL d   1     -39.240  13.620  22.001  0.00  0.00     0.002 A 
ENDBRANCH   5   6
ENDBRANCH   4   5
ENDBRANCH   1   4
BRANCH   1  12
ATOM     12  C   UNL d   1     -40.228  15.099  18.979  0.00  0.00     0.105 A 
ATOM     13  C   UNL d   1     -40.279  14.422  18.513  0.00  0.00     0.015 A 
ATOM     14  C   UNL d   1     -40.625  14.460  17.761  0.00  0.00     0.025 A 
ATOM     15  C   UNL d   1     -40.919  15.175  17.479  0.00  0.00     0.094 A 
ATOM     16  C   UNL d   1     -40.870  15.860  17.945  0.00  0.00     0.025 A 
ATOM     17  C   UNL d   1     -40.523  15.822  18.697  0.00  0.00     0.015 A 
BRANCH  15  18
ATOM     18  O   UNL d   1     -41.264  15.213  16.730  0.00  0.00    -0.328 OA
ATOM     19  C   UNL d   1     -41.621  15.918  16.475  0.00  0.00     0.181 C 
ENDBRANCH  15  18
ENDBRANCH   1  12
TORSDOF 5
ENDMDL
MODEL 6
REMARK VINA RESULT:      -5.4      9.074      9.544
REMARK  5 active torsions:
REMARK  status: ('A' for Active; 'I' for Inactive)
REMARK    1  A    between atoms: N_2  and  S_1 
REMARK    2  A    between atoms: C_3  and  S_1 
REMARK    3  A    between atoms: C_8  and  N_2 
REMARK    4  A    between atoms: C_12  and  C_8 
REMARK    5  A    between atoms: O_13  and  C_9 
ROOT
ATOM      1  S   UNL d   1     -39.360  14.485  20.306  0.00  0.00     0.285 S 
ATOM      2  O   UNL d   1     -38.598  14.561  19.999  0.00  0.00    -0.198 OA
ATOM      3  O   UNL d   1     -40.130  14.407  20.616  0.00  0.00    -0.198 OA
ENDROOT
BRANCH   1   4
ATOM      4  N   UNL d   1     -39.665  14.878  19.648  0.00  0.00    -0.157 NA
BRANCH   4   5
ATOM      5  C   UNL d   1     -40.207  14.502  19.157  0.00  0.00     0.112 C 
BRANCH   5   6
ATOM      6  C   UNL d   1     -40.424  14.847  18.440  0.00  0.00     0.020 A 
ATOM      7  C   UNL d   1     -40.270  14.456  17.734  0.00  0.00     0.002 A 
ATOM      8  C   UNL d   1     -40.487  14.802  17.017  0.00  0.00     0.000 A 
ATOM      9  C   UNL d   1     -40.859  15.536  17.009  0.00  0.00     0.000 A 
ATOM     10  C   UNL d   1     -41.010  15.922  17.726  0.00  0.00     0.000 A 
ATOM     11  C   UNL d   1     -40.793  15.577  18.443  0.00  0.00     0.002 A 
ENDBRANCH   5   6
ENDBRANCH   4   5
ENDBRANCH   1   4
BRANCH   1  12
ATOM     12  C   UNL d   1     -39.055  14.091  20.964  0.00  0.00     0.105 A 
ATOM     13  C   UNL d   1     -39.419  14.171  21.698  0.00  0.00     0.015 A 
ATOM     14  C   UNL d   1     -39.113  13.775  22.359  0.00  0.00     0.025 A 
ATOM     15  C   UNL d   1     -38.444  13.302  22.283  0.00  0.00     0.094 A 
ATOM     16  C   UNL d   1     -38.074  13.219  21.544  0.00  0.00     0.025 A 
ATOM     17  C   UNL d   1     -38.380  13.614  20.883  0.00  0.00     0.015 A 
BRANCH  15  18
ATOM     18  O   UNL d   1     -38.140  12.908  22.941  0.00  0.00    -0.328 OA
ATOM     19  C   UNL d   1     -38.219  13.245  23.696  0.00  0.00     0.181 C 
ENDBRANCH  15  18
ENDBRANCH   1  12
TORSDOF 5
ENDMDL
MODEL 7
REMARK VINA RESULT:      -5.3      8.781     10.285
REMARK  5 active torsions:
REMARK  status: ('A' for Active; 'I' for Inactive)
REMARK    1  A    between atoms: N_2  and  S_1 
REMARK    2  A    between atoms: C_3  and  S_1 
REMARK    3  A    between atoms: C_8  and  N_2 
REMARK    4  A    between atoms: C_12  and  C_8 
REMARK    5  A    between atoms: O_13  and  C_9 
ROOT
ATOM      1  S   UNL d   1     -39.695  14.741  18.104  0.00  0.00     0.285 S 
ATOM      2  O   UNL d   1     -40.242  14.129  18.018  0.00  0.00    -0.198 OA
ATOM      3  O   UNL d   1     -39.142  15.359  18.191  0.00  0.00    -0.198 OA
ENDROOT
BRANCH   1   4
ATOM      4  N   UNL d   1     -40.132  15.043  18.736  0.00  0.00    -0.157 NA
BRANCH   4   5
ATOM      5  C   UNL d   1     -40.055  14.713  19.485  0.00  0.00     0.112 C 
BRANCH   5   6
ATOM      6  C   UNL d   1     -40.340  15.117  20.146  0.00  0.00     0.020 A 
ATOM      7  C   UNL d   1     -41.139  15.301  20.199  0.00  0.00     0.002 A 
ATOM      8  C   UNL d   1     -41.424  15.704  20.859  0.00  0.00     0.000 A 
ATOM      9  C   UNL d   1     -40.910  15.922  21.463  0.00  0.00     0.000 A 
ATOM     10  C   UNL d   1     -40.107  15.732  21.401  0.00  0.00     0.000 A 
ATOM     11  C   UNL d   1     -39.821  15.328  20.741  0.00  0.00     0.002 A 
ENDBRANCH   5   6
ENDBRANCH   4   5
ENDBRANCH   1   4
BRANCH   1  12
ATOM     12  C   UNL d   1     -39.258  14.439  17.473  0.00  0.00     0.105 A 
ATOM     13  C   UNL d   1     -38.929  13.686  17.521  0.00  0.00     0.015 A 
ATOM     14  C   UNL d   1     -38.490  13.382  16.887  0.00  0.00     0.025 A 
ATOM     15  C   UNL d   1     -38.382  13.833  16.207  0.00  0.00     0.094 A 
ATOM     16  C   UNL d   1     -38.712  14.593  16.154  0.00  0.00     0.025 A 
ATOM     17  C   UNL d   1     -39.151  14.897  16.788  0.00  0.00     0.015 A 
BRANCH  15  18
ATOM     18  O   UNL d   1     -37.945  13.531  15.576  0.00  0.00    -0.328 OA
ATOM     19  C   UNL d   1     -38.216  13.638  14.798  0.00  0.00     0.181 C 
ENDBRANCH  15  18
ENDBRANCH   1  12
TORSDOF 5
ENDMDL
