MODEL 1
REMARK VINA RESULT:      -5.0      0.000      0.000
REMARK  4 active torsions:
REMARK  status: ('A' for Active; 'I' for Inactive)
REMARK    1  A    between atoms: C_2  and  N_1 
REMARK    2  A    between atoms: C_4  and  C_2 
REMARK    3  A    between atoms: C_10  and  C_4 
REMARK    4  A    between atoms: N_7  and  C_6 
ROOT
ATOM      1  C   UNL d   1      55.614   0.191  33.498  0.00  0.00     0.064 A 
ATOM      2  C   UNL d   1      56.125   0.681  33.073  0.00  0.00     0.018 A 
ATOM      3  C   UNL d   1      55.548  -0.609  33.306  0.00  0.00     0.018 A 
ATOM      4  C   UNL d   1      56.503  -0.437  32.264  0.00  0.00     0.002 A 
ATOM      5  C   UNL d   1      55.992  -0.924  32.689  0.00  0.00     0.002 A 
ATOM      6  C   UNL d   1      56.570   0.366  32.455  0.00  0.00     0.002 A 
ENDROOT
BRANCH   4   7
ATOM      7  C   UNL d   1      56.949  -0.754  31.644  0.00  0.00     0.025 C 
BRANCH   7   8
ATOM      8  C   UNL d   1      57.354  -0.253  31.136  0.00  0.00     0.148 C 
BRANCH   8   9
ATOM      9  N   UNL d   1      57.692  -0.559  30.449  0.00  0.00    -0.112 N 
ATOM     10  O   UNL d   1      57.840  -1.359  30.399  0.00  0.00    -0.532 OA
ATOM     11  O   UNL d   1      57.869  -0.048  29.837  0.00  0.00    -0.532 OA
ENDBRANCH   8   9
ENDBRANCH   7   8
ENDBRANCH   4   7
BRANCH   1  12
ATOM     12  N   UNL d   1      55.169   0.518  34.120  0.00  0.00    -0.301 N 
ATOM     13  C   UNL d   1      55.535   0.682  34.845  0.00  0.00     0.100 C 
ATOM     14  C   UNL d   1      54.363   0.681  34.023  0.00  0.00     0.100 C 
ENDBRANCH   1  12
TORSDOF 4
ENDMDL
MODEL 2
REMARK VINA RESULT:      -4.8      2.354      3.738
REMARK  4 active torsions:
REMARK  status: ('A' for Active; 'I' for Inactive)
REMARK    1  A    between atoms: C_2  and  N_1 
REMARK    2  A    between atoms: C_4  and  C_2 
REMARK    3  A    between atoms: C_10  and  C_4 
REMARK    4  A    between atoms: N_7  and  C_6 
ROOT
ATOM      1  C   UNL d   1      57.008  -0.147  31.657  0.00  0.00     0.064 A 
ATOM      2  C   UNL d   1      56.660   0.589  31.800  0.00  0.00     0.018 A 
ATOM      3  C   UNL d   1      56.778  -0.808  32.095  0.00  0.00     0.018 A 
ATOM      4  C   UNL d   1      55.852  -0.005  32.821  0.00  0.00     0.002 A 
ATOM      5  C   UNL d   1      56.201  -0.738  32.677  0.00  0.00     0.002 A 
ATOM      6  C   UNL d   1      56.082   0.659  32.383  0.00  0.00     0.002 A 
ENDROOT
BRANCH   4   7
ATOM      7  C   UNL d   1      55.272   0.065  33.406  0.00  0.00     0.025 C 
BRANCH   7   8
ATOM      8  C   UNL d   1      55.315   0.676  33.951  0.00  0.00     0.148 C 
BRANCH   8   9
ATOM      9  N   UNL d   1      54.815   0.670  34.607  0.00  0.00    -0.112 N 
ATOM     10  O   UNL d   1      55.139   0.681  35.355  0.00  0.00    -0.532 OA
ATOM     11  O   UNL d   1      54.008   0.652  34.486  0.00  0.00    -0.532 OA
ENDBRANCH   8   9
ENDBRANCH   7   8
ENDBRANCH   4   7
BRANCH   1  12
ATOM     12  N   UNL d   1      57.590  -0.208  31.068  0.00  0.00    -0.301 N 
ATOM     13  C   UNL d   1      57.652  -0.905  30.622  0.00  0.00     0.100 C 
ATOM     14  C   UNL d   1      58.110   0.419  30.920  0.00  0.00     0.100 C 
ENDBRANCH   1  12
TORSDOF 4
ENDMDL
MODEL 3
REMARK VINA RESULT:      -4.1      2.086      3.855
REMARK  4 active torsions:
REMARK  status: ('A' for Active; 'I' for Inactive)
REMARK    1  A    between atoms: C_2  and  N_1 
REMARK    2  A    between atoms: C_4  and  C_2 
REMARK    3  A    between atoms: C_10  and  C_4 
REMARK    4  A    between atoms: N_7  and  C_6 
ROOT
ATOM      1  C   UNL d   1      57.678  -0.017  30.793  0.00  0.00     0.064 A 
ATOM      2  C   UNL d   1      57.347  -0.728  31.054  0.00  0.00     0.018 A 
ATOM      3  C   UNL d   1      57.574   0.675  31.231  0.00  0.00     0.018 A 
ATOM      4  C   UNL d   1      56.808  -0.045  32.191  0.00  0.00     0.002 A 
ATOM      5  C   UNL d   1      57.140   0.662  31.928  0.00  0.00     0.002 A 
ATOM      6  C   UNL d   1      56.912  -0.741  31.753  0.00  0.00     0.002 A 
ENDROOT
BRANCH   4   7
ATOM      7  C   UNL d   1      56.371  -0.058  32.893  0.00  0.00     0.025 C 
BRANCH   7   8
ATOM      8  C   UNL d   1      55.726   0.440  32.979  0.00  0.00     0.148 C 
BRANCH   8   9
ATOM      9  N   UNL d   1      55.284   0.413  33.676  0.00  0.00    -0.112 N 
ATOM     10  O   UNL d   1      54.482   0.280  33.635  0.00  0.00    -0.532 OA
ATOM     11  O   UNL d   1      55.668   0.522  34.388  0.00  0.00    -0.532 OA
ENDBRANCH   8   9
ENDBRANCH   7   8
ENDBRANCH   4   7
BRANCH   1  12
ATOM     12  N   UNL d   1      58.116  -0.013  30.087  0.00  0.00    -0.301 N 
ATOM     13  C   UNL d   1      58.164   0.682  29.638  0.00  0.00     0.100 C 
ATOM     14  C   UNL d   1      58.504  -0.696  29.826  0.00  0.00     0.100 C 
ENDBRANCH   1  12
TORSDOF 4
ENDMDL
MODEL 4
REMARK VINA RESULT:      -3.2      1.279      2.001
REMARK  4 active torsions:
REMARK  status: ('A' for Active; 'I' for Inactive)
REMARK    1  A    between atoms: C_2  and  N_1 
REMARK    2  A    between atoms: C_4  and  C_2 
REMARK    3  A    between atoms: C_10  and  C_4 
REMARK    4  A    between atoms: N_7  and  C_6 
ROOT
ATOM      1  C   UNL d   1      57.139   0.458  32.582  0.00  0.00     0.064 A 
ATOM      2  C   UNL d   1      56.671   0.201  31.952  0.00  0.00     0.018 A 
ATOM      3  C   UNL d   1      57.924   0.682  32.454  0.00  0.00     0.018 A 
ATOM      4  C   UNL d   1      57.779   0.395  31.067  0.00  0.00     0.002 A 
ATOM      5  C   UNL d   1      58.244   0.650  31.698  0.00  0.00     0.002 A 
ATOM      6  C   UNL d   1      56.992   0.170  31.194  0.00  0.00     0.002 A 
ENDROOT
BRANCH   4   7
ATOM      7  C   UNL d   1      58.102   0.363  30.306  0.00  0.00     0.025 C 
BRANCH   7   8
ATOM      8  C   UNL d   1      58.241  -0.364  29.953  0.00  0.00     0.148 C 
BRANCH   8   9
ATOM      9  N   UNL d   1      58.566  -0.390  29.195  0.00  0.00    -0.112 N 
ATOM     10  O   UNL d   1      59.305  -0.717  29.089  0.00  0.00    -0.532 OA
ATOM     11  O   UNL d   1      58.135  -0.086  28.572  0.00  0.00    -0.532 OA
ENDBRANCH   8   9
ENDBRANCH   7   8
ENDBRANCH   4   7
BRANCH   1  12
ATOM     12  N   UNL d   1      56.808   0.487  33.344  0.00  0.00    -0.301 N 
ATOM     13  C   UNL d   1      56.002   0.319  33.448  0.00  0.00     0.100 C 
ATOM     14  C   UNL d   1      57.273   0.682  34.001  0.00  0.00     0.100 C 
ENDBRANCH   1  12
TORSDOF 4
ENDMDL
