MODEL 1
REMARK VINA RESULT:      -8.5      0.000      0.000
REMARK  3 active torsions:
REMARK  status: ('A' for Active; 'I' for Inactive)
REMARK    1  A    between atoms: N_7  and  C_1 
REMARK    2  A    between atoms: N_10  and  N_7 
REMARK    3  A    between atoms: C_17  and  N_10 
ROOT
ATOM      1  N   UNL d   1     -47.717  13.289  22.577  0.00  0.00    -0.148 NA
ENDROOT
BRANCH   1   2
ATOM      2  N   UNL d   1     -47.458  13.060  23.339  0.00  0.00    -0.138 NA
BRANCH   2   3
ATOM      3  C   UNL d   1     -46.861  12.527  23.404  0.00  0.00     0.218 A 
ATOM      4  C   UNL d   1     -46.103  12.736  23.301  0.00  0.00     0.307 A 
ATOM      5  N   UNL d   1     -45.511  12.181  23.371  0.00  0.00    -0.150 NA
ATOM      6  O   UNL d   1     -45.920  13.533  23.121  0.00  0.00    -0.263 OA
ATOM      7  C   UNL d   1     -45.649  11.438  23.537  0.00  0.00     0.374 A 
ATOM      8  N   UNL d   1     -46.436  11.200  23.648  0.00  0.00    -0.150 NA
ATOM      9  O   UNL d   1     -45.005  10.896  23.600  0.00  0.00    -0.242 OA
ATOM     10  C   UNL d   1     -47.044  11.730  23.585  0.00  0.00     0.307 A 
ATOM     11  O   UNL d   1     -47.830  11.481  23.698  0.00  0.00    -0.263 OA
ENDBRANCH   2   3
ENDBRANCH   1   2
BRANCH   1  12
ATOM     12  C   UNL d   1     -48.392  13.772  22.513  0.00  0.00     0.105 A 
ATOM     13  C   UNL d   1     -49.001  13.461  22.069  0.00  0.00     0.048 A 
ATOM     14  C   UNL d   1     -49.692  13.903  21.977  0.00  0.00     0.124 A 
ATOM     15  O   UNL d   1     -50.301  13.592  21.532  0.00  0.00    -0.301 OA
ATOM     16  C   UNL d   1     -49.764  14.659  22.335  0.00  0.00     0.123 A 
ATOM     17  C   UNL d   1     -50.992  14.034  21.440  0.00  0.00     0.149 A 
ATOM     18  C   UNL d   1     -51.064  14.790  21.798  0.00  0.00     0.149 A 
ATOM     19  O   UNL d   1     -50.444  15.095  22.245  0.00  0.00    -0.301 OA
ATOM     20  C   UNL d   1     -49.144  14.964  22.782  0.00  0.00     0.028 A 
ATOM     21  C   UNL d   1     -48.464  14.528  22.872  0.00  0.00     0.023 A 
ENDBRANCH   1  12
TORSDOF 3
ENDMDL
MODEL 2
REMARK VINA RESULT:      -8.4      0.110      1.078
REMARK  3 active torsions:
REMARK  status: ('A' for Active; 'I' for Inactive)
REMARK    1  A    between atoms: N_7  and  C_1 
REMARK    2  A    between atoms: N_10  and  N_7 
REMARK    3  A    between atoms: C_17  and  N_10 
ROOT
ATOM      1  N   UNL d   1     -47.801  13.123  22.569  0.00  0.00    -0.148 NA
ENDROOT
BRANCH   1   2
ATOM      2  N   UNL d   1     -47.487  12.981  23.332  0.00  0.00    -0.138 NA
BRANCH   2   3
ATOM      3  C   UNL d   1     -46.907  12.433  23.419  0.00  0.00     0.218 A 
ATOM      4  C   UNL d   1     -47.071  11.678  23.597  0.00  0.00     0.307 A 
ATOM      5  N   UNL d   1     -46.469  11.136  23.681  0.00  0.00    -0.150 NA
ATOM      6  O   UNL d   1     -47.870  11.446  23.698  0.00  0.00    -0.263 OA
ATOM      7  C   UNL d   1     -45.723  11.320  23.594  0.00  0.00     0.374 A 
ATOM      8  N   UNL d   1     -45.531  12.106  23.407  0.00  0.00    -0.150 NA
ATOM      9  O   UNL d   1     -45.130  10.726  23.690  0.00  0.00    -0.242 OA
ATOM     10  C   UNL d   1     -46.109  12.665  23.318  0.00  0.00     0.307 A 
ATOM     11  O   UNL d   1     -45.906  13.450  23.130  0.00  0.00    -0.263 OA
ENDBRANCH   2   3
ENDBRANCH   1   2
BRANCH   1  12
ATOM     12  C   UNL d   1     -48.447  13.644  22.494  0.00  0.00     0.105 A 
ATOM     13  C   UNL d   1     -49.083  13.351  22.076  0.00  0.00     0.048 A 
ATOM     14  C   UNL d   1     -49.747  13.831  21.974  0.00  0.00     0.124 A 
ATOM     15  O   UNL d   1     -50.383  13.538  21.556  0.00  0.00    -0.301 OA
ATOM     16  C   UNL d   1     -49.764  14.606  22.297  0.00  0.00     0.123 A 
ATOM     17  C   UNL d   1     -51.047  14.018  21.454  0.00  0.00     0.149 A 
ATOM     18  C   UNL d   1     -51.064  14.793  21.777  0.00  0.00     0.149 A 
ATOM     19  O   UNL d   1     -50.418  15.079  22.197  0.00  0.00    -0.301 OA
ATOM     20  C   UNL d   1     -49.117  14.892  22.717  0.00  0.00     0.028 A 
ATOM     21  C   UNL d   1     -48.464  14.419  22.816  0.00  0.00     0.023 A 
ENDBRANCH   1  12
TORSDOF 3
ENDMDL
MODEL 3
REMARK VINA RESULT:      -7.8      1.247      1.554
REMARK  3 active torsions:
REMARK  status: ('A' for Active; 'I' for Inactive)
REMARK    1  A    between atoms: N_7  and  C_1 
REMARK    2  A    between atoms: N_10  and  N_7 
REMARK    3  A    between atoms: C_17  and  N_10 
ROOT
ATOM      1  N   UNL d   1     -47.963  13.502  22.742  0.00  0.00    -0.148 NA
ENDROOT
BRANCH   1   2
ATOM      2  N   UNL d   1     -47.350  13.479  23.311  0.00  0.00    -0.138 NA
BRANCH   2   3
ATOM      3  C   UNL d   1     -46.625  13.211  23.093  0.00  0.00     0.218 A 
ATOM      4  C   UNL d   1     -46.112  13.669  22.701  0.00  0.00     0.307 A 
ATOM      5  N   UNL d   1     -45.381  13.379  22.488  0.00  0.00    -0.150 NA
ATOM      6  O   UNL d   1     -46.330  14.455  22.508  0.00  0.00    -0.263 OA
ATOM      7  C   UNL d   1     -45.151  12.659  22.652  0.00  0.00     0.374 A 
ATOM      8  N   UNL d   1     -45.675  12.163  23.063  0.00  0.00    -0.150 NA
ATOM      9  O   UNL d   1     -44.384  12.398  22.413  0.00  0.00    -0.242 OA
ATOM     10  C   UNL d   1     -46.407  12.425  23.286  0.00  0.00     0.307 A 
ATOM     11  O   UNL d   1     -46.925  11.920  23.697  0.00  0.00    -0.263 OA
ENDBRANCH   2   3
ENDBRANCH   1   2
BRANCH   1  12
ATOM     12  C   UNL d   1     -48.723  13.740  22.983  0.00  0.00     0.105 A 
ATOM     13  C   UNL d   1     -48.847  14.546  23.000  0.00  0.00     0.048 A 
ATOM     14  C   UNL d   1     -49.585  14.831  23.232  0.00  0.00     0.124 A 
ATOM     15  O   UNL d   1     -49.709  15.637  23.250  0.00  0.00    -0.301 OA
ATOM     16  C   UNL d   1     -50.198  14.297  23.447  0.00  0.00     0.123 A 
ATOM     17  C   UNL d   1     -50.447  15.922  23.482  0.00  0.00     0.149 A 
ATOM     18  C   UNL d   1     -51.060  15.389  23.697  0.00  0.00     0.149 A 
ATOM     19  O   UNL d   1     -50.926  14.577  23.677  0.00  0.00    -0.301 OA
ATOM     20  C   UNL d   1     -50.063  13.486  23.427  0.00  0.00     0.028 A 
ATOM     21  C   UNL d   1     -49.336  13.207  23.198  0.00  0.00     0.023 A 
ENDBRANCH   1  12
TORSDOF 3
ENDMDL
MODEL 4
REMARK VINA RESULT:      -7.7      1.356      4.511
REMARK  3 active torsions:
REMARK  status: ('A' for Active; 'I' for Inactive)
REMARK    1  A    between atoms: N_7  and  C_1 
REMARK    2  A    between atoms: N_10  and  N_7 
REMARK    3  A    between atoms: C_17  and  N_10 
ROOT
ATOM      1  N   UNL d   1     -47.787  13.838  23.201  0.00  0.00    -0.148 NA
ENDROOT
BRANCH   1   2
ATOM      2  N   UNL d   1     -48.289  13.934  22.539  0.00  0.00    -0.138 NA
BRANCH   2   3
ATOM      3  C   UNL d   1     -48.971  14.351  22.624  0.00  0.00     0.218 A 
ATOM      4  C   UNL d   1     -48.986  15.140  22.562  0.00  0.00     0.307 A 
ATOM      5  N   UNL d   1     -49.688  15.545  22.652  0.00  0.00    -0.150 NA
ATOM      6  O   UNL d   1     -48.274  15.553  22.403  0.00  0.00    -0.263 OA
ATOM      7  C   UNL d   1     -50.360  15.193  22.799  0.00  0.00     0.374 A 
ATOM      8  N   UNL d   1     -50.364  14.366  22.867  0.00  0.00    -0.150 NA
ATOM      9  O   UNL d   1     -51.064  15.652  22.884  0.00  0.00    -0.242 OA
ATOM     10  C   UNL d   1     -49.682  13.938  22.783  0.00  0.00     0.307 A 
ATOM     11  O   UNL d   1     -49.697  13.109  22.853  0.00  0.00    -0.263 OA
ENDBRANCH   2   3
ENDBRANCH   1   2
BRANCH   1  12
ATOM     12  C   UNL d   1     -47.087  13.395  23.110  0.00  0.00     0.105 A 
ATOM     13  C   UNL d   1     -47.103  12.648  23.436  0.00  0.00     0.048 A 
ATOM     14  C   UNL d   1     -46.433  12.171  23.372  0.00  0.00     0.124 A 
ATOM     15  O   UNL d   1     -46.448  11.424  23.698  0.00  0.00    -0.301 OA
ATOM     16  C   UNL d   1     -45.747  12.453  22.977  0.00  0.00     0.123 A 
ATOM     17  C   UNL d   1     -45.778  10.947  23.634  0.00  0.00     0.149 A 
ATOM     18  C   UNL d   1     -45.093  11.229  23.239  0.00  0.00     0.149 A 
ATOM     19  O   UNL d   1     -45.086  11.984  22.913  0.00  0.00    -0.301 OA
ATOM     20  C   UNL d   1     -45.741  13.209  22.651  0.00  0.00     0.028 A 
ATOM     21  C   UNL d   1     -46.402  13.677  22.715  0.00  0.00     0.023 A 
ENDBRANCH   1  12
TORSDOF 3
ENDMDL
MODEL 5
REMARK VINA RESULT:      -6.3      8.934     10.181
REMARK  3 active torsions:
REMARK  status: ('A' for Active; 'I' for Inactive)
REMARK    1  A    between atoms: N_7  and  C_1 
REMARK    2  A    between atoms: N_10  and  N_7 
REMARK    3  A    between atoms: C_17  and  N_10 
ROOT
ATOM      1  N   UNL d   1     -39.590  14.763  19.421  0.00  0.00    -0.148 NA
ENDROOT
BRANCH   1   2
ATOM      2  N   UNL d   1     -39.566  14.480  18.634  0.00  0.00    -0.138 NA
BRANCH   2   3
ATOM      3  C   UNL d   1     -40.063  14.797  18.090  0.00  0.00     0.218 A 
ATOM      4  C   UNL d   1     -40.745  14.444  17.893  0.00  0.00     0.307 A 
ATOM      5  N   UNL d   1     -41.236  14.782  17.338  0.00  0.00    -0.150 NA
ATOM      6  O   UNL d   1     -40.953  13.721  18.261  0.00  0.00    -0.263 OA
ATOM      7  C   UNL d   1     -41.072  15.448  16.981  0.00  0.00     0.374 A 
ATOM      8  N   UNL d   1     -40.362  15.833  17.174  0.00  0.00    -0.150 NA
ATOM      9  O   UNL d   1     -41.610  15.763  16.411  0.00  0.00    -0.242 OA
ATOM     10  C   UNL d   1     -39.855  15.520  17.721  0.00  0.00     0.307 A 
ATOM     11  O   UNL d   1     -39.146  15.914  17.908  0.00  0.00    -0.263 OA
ENDBRANCH   2   3
ENDBRANCH   1   2
BRANCH   1  12
ATOM     12  C   UNL d   1     -39.148  14.365  20.004  0.00  0.00     0.105 A 
ATOM     13  C   UNL d   1     -39.468  14.376  20.753  0.00  0.00     0.048 A 
ATOM     14  C   UNL d   1     -39.066  13.995  21.364  0.00  0.00     0.124 A 
ATOM     15  O   UNL d   1     -39.387  14.006  22.114  0.00  0.00    -0.301 OA
ATOM     16  C   UNL d   1     -38.338  13.603  21.213  0.00  0.00     0.123 A 
ATOM     17  C   UNL d   1     -38.984  13.625  22.725  0.00  0.00     0.149 A 
ATOM     18  C   UNL d   1     -38.257  13.233  22.575  0.00  0.00     0.149 A 
ATOM     19  O   UNL d   1     -37.941  13.227  21.815  0.00  0.00    -0.301 OA
ATOM     20  C   UNL d   1     -38.023  13.597  20.454  0.00  0.00     0.028 A 
ATOM     21  C   UNL d   1     -38.420  13.973  19.853  0.00  0.00     0.023 A 
ENDBRANCH   1  12
TORSDOF 3
ENDMDL
