MODEL 1
REMARK VINA RESULT:     123.3      0.000      0.000
REMARK  4 active torsions:
REMARK  status: ('A' for Active; 'I' for Inactive)
REMARK    1  A    between atoms: N_3  and  S_1 
REMARK    2  A    between atoms: C_13  and  S_1 
REMARK    3  A    between atoms: C_2  and  N_3 
REMARK    4  A    between atoms: N_8  and  C_4 
REMARK       I    between atoms: C_10  and  N_9 
ROOT
ATOM      1  C   UNL d   1     -57.138 -99.008 -44.057  0.00  0.00     0.110 A 
ATOM      2  C   UNL d   1     -57.960 -98.972 -43.382  0.00  0.00     0.083 A 
ATOM      3  C   UNL d   1     -57.518 -98.961 -44.784  0.00  0.00     0.020 A 
ATOM      4  C   UNL d   1     -58.614 -98.913 -43.883  0.00  0.00     0.018 A 
ATOM      5  C   UNL d   1     -58.319 -98.910 -44.653  0.00  0.00     0.003 A 
ATOM      6  C   UNL d   1     -58.837 -98.856 -45.294  0.00  0.00     0.000 A 
ATOM      7  C   UNL d   1     -57.206 -98.959 -45.555  0.00  0.00     0.002 A 
ATOM      8  C   UNL d   1     -59.415 -98.862 -43.753  0.00  0.00     0.002 A 
ATOM      9  C   UNL d   1     -59.955 -98.806 -44.392  0.00  0.00     0.000 A 
ATOM     10  C   UNL d   1     -57.742 -98.904 -46.193  0.00  0.00     0.000 A 
ATOM     11  C   UNL d   1     -59.647 -98.804 -45.163  0.00  0.00     0.000 A 
ATOM     12  C   UNL d   1     -58.551 -98.852 -46.063  0.00  0.00     0.000 A 
ENDROOT
BRANCH   1  13
ATOM     13  N   UNL d   1     -56.326 -99.065 -44.001  0.00  0.00    -0.157 NA
BRANCH  13  14
ATOM     14  S   UNL d   1     -55.940 -99.793 -44.049  0.00  0.00     0.285 S 
ATOM     15  O   UNL d   1     -55.217 -99.404 -43.956  0.00  0.00    -0.198 OA
ATOM     16  O   UNL d   1     -56.660-100.173 -44.140  0.00  0.00    -0.198 OA
BRANCH  14  17
ATOM     17  C   UNL d   1     -55.551-100.511 -44.095  0.00  0.00     0.105 A 
ATOM     18  C   UNL d   1     -55.533-100.921 -44.806  0.00  0.00     0.013 A 
ATOM     19  C   UNL d   1     -55.145-101.649 -44.873  0.00  0.00     0.001 A 
ATOM     20  C   UNL d   1     -54.767-101.958 -44.187  0.00  0.00     0.000 A 
ATOM     21  C   UNL d   1     -54.786-101.549 -43.479  0.00  0.00     0.001 A 
ATOM     22  C   UNL d   1     -55.174-100.830 -43.429  0.00  0.00     0.013 A 
ENDBRANCH  14  17
ENDBRANCH  13  14
ENDBRANCH   1  13
BRANCH   2  23
ATOM     23  N   UNL d   1     -58.070 -98.989 -42.571  0.00  0.00    -0.300 N 
ATOM     24  C   UNL d   1     -57.454 -98.756 -42.073  0.00  0.00     0.100 A 
ATOM     25  C   UNL d   1     -57.569 -98.775 -41.286  0.00  0.00     0.102 A 
ATOM     26  N   UNL d   1     -58.296 -99.024 -40.926  0.00  0.00    -0.269 N 
ATOM     27  C   UNL d   1     -58.904 -99.254 -41.420  0.00  0.00     0.102 A 
ATOM     28  C   UNL d   1     -58.419 -99.045 -40.110  0.00  0.00     0.265 C 
ATOM     29  C   UNL d   1     -58.786 -99.236 -42.285  0.00  0.00     0.100 A 
ATOM     30  O   UNL d   1     -57.838 -98.823 -39.561  0.00  0.00    -0.267 OA
ATOM     31  C   UNL d   1     -59.122 -99.286 -39.755  0.00  0.00     0.066 C 
ENDBRANCH   2  23
TORSDOF 4
ENDMDL
