MODEL 1
REMARK VINA RESULT:      -1.5      0.000      0.000
REMARK  7 active torsions:
REMARK  status: ('A' for Active; 'I' for Inactive)
REMARK    1  A    between atoms: C_6  and  N_2 
REMARK    2  A    between atoms: C_7  and  C_3 
REMARK    3  A    between atoms: C_10  and  C_6 
REMARK    4  A    between atoms: C_17  and  C_7 
REMARK    5  A    between atoms: O_8  and  C_10 
REMARK    6  A    between atoms: C_9  and  O_8 
REMARK    7  A    between atoms: C_14  and  C_17 
ROOT
ATOM      1  N   UNL d   1     -41.616-121.556 -53.667  0.00  0.00    -0.227 NA
ATOM      2  N   UNL d   1     -41.426-122.534 -52.775  0.00  0.00    -0.287 N 
ATOM      3  C   UNL d   1     -41.378-121.704 -52.878  0.00  0.00     0.148 A 
ATOM      4  C   UNL d   1     -41.683-122.874 -53.476  0.00  0.00     0.083 A 
ATOM      5  C   UNL d   1     -41.805-122.243 -54.051  0.00  0.00     0.099 A 
ATOM      6  C   UNL d   1     -41.820-123.652 -53.672  0.00  0.00     0.019 A 
ATOM      7  C   UNL d   1     -42.069-122.487 -54.803  0.00  0.00     0.021 A 
ATOM      8  C   UNL d   1     -42.076-123.813 -54.423  0.00  0.00     0.002 A 
ATOM      9  C   UNL d   1     -42.190-123.222 -54.962  0.00  0.00     0.002 A 
ENDROOT
BRANCH   2  10
ATOM     10  C   UNL d   1     -41.217-122.782 -52.045  0.00  0.00     0.108 C 
BRANCH  10  11
ATOM     11  C   UNL d   1     -41.688-123.282 -51.599  0.00  0.00     0.142 C 
BRANCH  11  12
ATOM     12  O   UNL d   1     -41.396-123.752 -50.999  0.00  0.00    -0.304 OA
BRANCH  12  13
ATOM     13  C   UNL d   1     -41.634-123.685 -50.212  0.00  0.00     0.100 A 
ATOM     14  C   UNL d   1     -41.123-123.494 -49.594  0.00  0.00     0.025 A 
ATOM     15  C   UNL d   1     -41.362-123.427 -48.810  0.00  0.00     0.002 A 
ATOM     16  C   UNL d   1     -42.164-123.558 -48.629  0.00  0.00     0.000 A 
ATOM     17  C   UNL d   1     -42.704-123.753 -49.239  0.00  0.00     0.002 A 
ATOM     18  C   UNL d   1     -42.437-123.816 -50.032  0.00  0.00     0.025 A 
ENDBRANCH  12  13
ENDBRANCH  11  12
ENDBRANCH  10  11
ENDBRANCH   2  10
BRANCH   3  19
ATOM     19  C   UNL d   1     -41.124-121.539 -52.130  0.00  0.00     0.041 C 
BRANCH  19  20
ATOM     20  C   UNL d   1     -41.136-120.748 -51.855  0.00  0.00     0.049 C 
BRANCH  20  21
ATOM     21  C   UNL d   1     -41.154-120.583 -51.038  0.00  0.00     0.234 C 
ATOM     22  O   UNL d   1     -41.192-119.796 -50.767  0.00  0.00    -0.283 OA
ENDBRANCH  20  21
ENDBRANCH  19  20
ENDBRANCH   3  19
TORSDOF 7
ENDMDL
MODEL 2
REMARK VINA RESULT:       0.6      1.865      4.471
REMARK  7 active torsions:
REMARK  status: ('A' for Active; 'I' for Inactive)
REMARK    1  A    between atoms: C_6  and  N_2 
REMARK    2  A    between atoms: C_7  and  C_3 
REMARK    3  A    between atoms: C_10  and  C_6 
REMARK    4  A    between atoms: C_17  and  C_7 
REMARK    5  A    between atoms: O_8  and  C_10 
REMARK    6  A    between atoms: C_9  and  O_8 
REMARK    7  A    between atoms: C_14  and  C_17 
ROOT
ATOM      1  N   UNL d   1     -43.307-122.954 -48.725  0.00  0.00    -0.227 NA
ATOM      2  N   UNL d   1     -42.275-122.721 -49.542  0.00  0.00    -0.287 N 
ATOM      3  C   UNL d   1     -43.104-122.629 -49.469  0.00  0.00     0.148 A 
ATOM      4  C   UNL d   1     -41.988-123.088 -48.868  0.00  0.00     0.083 A 
ATOM      5  C   UNL d   1     -42.654-123.238 -48.341  0.00  0.00     0.099 A 
ATOM      6  C   UNL d   1     -41.232-123.303 -48.659  0.00  0.00     0.019 A 
ATOM      7  C   UNL d   1     -42.465-123.612 -47.620  0.00  0.00     0.021 A 
ATOM      8  C   UNL d   1     -41.125-123.663 -47.941  0.00  0.00     0.002 A 
ATOM      9  C   UNL d   1     -41.749-123.804 -47.447  0.00  0.00     0.002 A 
ENDROOT
BRANCH   2  10
ATOM     10  C   UNL d   1     -41.977-122.438 -50.228  0.00  0.00     0.108 C 
BRANCH  10  11
ATOM     11  C   UNL d   1     -41.719-122.928 -50.830  0.00  0.00     0.142 C 
BRANCH  11  12
ATOM     12  O   UNL d   1     -41.129-122.719 -51.354  0.00  0.00    -0.304 OA
BRANCH  12  13
ATOM     13  C   UNL d   1     -41.158-122.886 -52.161  0.00  0.00     0.100 A 
ATOM     14  C   UNL d   1     -41.190-123.651 -52.469  0.00  0.00     0.025 A 
ATOM     15  C   UNL d   1     -41.219-123.817 -53.274  0.00  0.00     0.002 A 
ATOM     16  C   UNL d   1     -41.216-123.179 -53.808  0.00  0.00     0.000 A 
ATOM     17  C   UNL d   1     -41.184-122.393 -53.522  0.00  0.00     0.002 A 
ATOM     18  C   UNL d   1     -41.155-122.248 -52.696  0.00  0.00     0.025 A 
ENDBRANCH  12  13
ENDBRANCH  11  12
ENDBRANCH  10  11
ENDBRANCH   2  10
BRANCH   3  19
ATOM     19  C   UNL d   1     -43.214-122.269 -50.184  0.00  0.00     0.041 C 
BRANCH  19  20
ATOM     20  C   UNL d   1     -43.978-122.258 -50.526  0.00  0.00     0.049 C 
BRANCH  20  21
ATOM     21  C   UNL d   1     -44.483-121.604 -50.417  0.00  0.00     0.234 C 
ATOM     22  O   UNL d   1     -44.863-121.249 -51.069  0.00  0.00    -0.283 OA
ENDBRANCH  20  21
ENDBRANCH  19  20
ENDBRANCH   3  19
TORSDOF 7
ENDMDL
