MODEL 1
REMARK VINA RESULT:     181.5      0.000      0.000
REMARK  4 active torsions:
REMARK  status: ('A' for Active; 'I' for Inactive)
REMARK    1  A    between atoms: C_2  and  C_1 
REMARK    2  A    between atoms: C_7  and  O_14 
REMARK       I    between atoms: N_12  and  C_7 
REMARK    3  A    between atoms: O_14  and  C_11 
REMARK    4  A    between atoms: C_24  and  C_18 
ROOT
ATOM      1  C   UNL d   1     -58.351 -99.427 -45.365  0.00  0.00     0.099 A 
ATOM      2  C   UNL d   1     -57.530 -99.366 -45.321  0.00  0.00     0.202 A 
ATOM      3  C   UNL d   1     -57.160 -99.230 -44.589  0.00  0.00     0.062 A 
ATOM      4  C   UNL d   1     -58.811 -99.353 -44.677  0.00  0.00     0.129 A 
ATOM      5  C   UNL d   1     -57.617 -99.157 -43.905  0.00  0.00     0.105 A 
ATOM      6  O   UNL d   1     -58.441 -99.217 -43.945  0.00  0.00    -0.305 OA
ATOM      7  C   UNL d   1     -56.435 -98.964 -43.144  0.00  0.00     0.107 A 
ATOM      8  C   UNL d   1     -56.338 -99.170 -44.545  0.00  0.00     0.007 A 
ATOM      9  C   UNL d   1     -57.254 -99.022 -43.177  0.00  0.00     0.050 A 
ATOM     10  C   UNL d   1     -55.982 -99.036 -43.821  0.00  0.00     0.023 A 
ATOM     11  O   UNL d   1     -57.075 -99.439 -46.002  0.00  0.00    -0.286 OA
ENDROOT
BRANCH   1  12
ATOM     12  C   UNL d   1     -58.720 -99.561 -46.092  0.00  0.00     0.168 A 
ATOM     13  N   UNL d   1     -58.910-100.296 -46.411  0.00  0.00    -0.225 NA
ATOM     14  C   UNL d   1     -59.274-100.169 -47.149  0.00  0.00     0.101 A 
ATOM     15  C   UNL d   1     -59.576-100.684 -47.708  0.00  0.00     0.021 A 
ATOM     16  C   UNL d   1     -59.305 -99.355 -47.278  0.00  0.00     0.101 A 
ATOM     17  C   UNL d   1     -59.912-100.399 -48.405  0.00  0.00     0.002 A 
ATOM     18  C   UNL d   1     -59.941 -99.577 -48.530  0.00  0.00     0.002 A 
ATOM     19  C   UNL d   1     -59.636 -99.056 -47.965  0.00  0.00     0.021 A 
ATOM     20  N   UNL d   1     -58.962 -98.981 -46.623  0.00  0.00    -0.225 NA
ENDBRANCH   1  12
BRANCH  10  21
ATOM     21  C   UNL d   1     -55.154 -98.974 -43.773  0.00  0.00     0.002 C 
ATOM     22  C   UNL d   1     -54.712 -98.840 -44.457  0.00  0.00     0.000 C 
ENDBRANCH  10  21
BRANCH   7  23
ATOM     23  O   UNL d   1     -56.069 -98.827 -42.405  0.00  0.00    -0.259 OA
BRANCH  23  24
ATOM     24  C   UNL d   1     -56.435 -99.075 -41.708  0.00  0.00     0.378 C 
ATOM     25  N   UNL d   1     -56.004 -99.485 -41.137  0.00  0.00    -0.247 N 
ATOM     26  C   UNL d   1     -56.378 -99.730 -40.442  0.00  0.00     0.112 A 
ATOM     27  C   UNL d   1     -55.205 -99.647 -41.265  0.00  0.00     0.112 A 
ATOM     28  C   UNL d   1     -55.949-100.137 -39.873  0.00  0.00     0.142 A 
ATOM     29  O   UNL d   1     -55.149-100.303 -39.995  0.00  0.00    -0.300 OA
ATOM     30  C   UNL d   1     -54.776-100.058 -40.691  0.00  0.00     0.142 A 
ATOM     31  O   UNL d   1     -57.235 -98.913 -41.580  0.00  0.00    -0.237 OA
ENDBRANCH  23  24
ENDBRANCH   7  23
TORSDOF 4
ENDMDL
