MODEL 1
REMARK VINA RESULT:      10.3      0.000      0.000
REMARK  5 active torsions:
REMARK  status: ('A' for Active; 'I' for Inactive)
REMARK    1  A    between atoms: N_2  and  S_1 
REMARK    2  A    between atoms: C_3  and  S_1 
REMARK    3  A    between atoms: C_8  and  N_2 
REMARK    4  A    between atoms: C_12  and  C_8 
REMARK    5  A    between atoms: O_13  and  C_9 
ROOT
ATOM      1  S   UNL d   1      45.821 -16.080  44.578  0.00  0.00     0.285 S 
ATOM      2  O   UNL d   1      45.099 -16.213  44.955  0.00  0.00    -0.198 OA
ATOM      3  O   UNL d   1      46.550 -15.946  44.197  0.00  0.00    -0.198 OA
ENDROOT
BRANCH   1   4
ATOM      4  N   UNL d   1      45.959 -16.893  44.557  0.00  0.00    -0.157 NA
BRANCH   4   5
ATOM      5  C   UNL d   1      46.044 -17.278  43.835  0.00  0.00     0.112 C 
BRANCH   5   6
ATOM      6  C   UNL d   1      46.245 -18.078  43.814  0.00  0.00     0.020 A 
ATOM      7  C   UNL d   1      46.370 -18.450  43.093  0.00  0.00     0.002 A 
ATOM      8  C   UNL d   1      46.570 -19.249  43.072  0.00  0.00     0.000 A 
ATOM      9  C   UNL d   1      46.645 -19.674  43.773  0.00  0.00     0.000 A 
ATOM     10  C   UNL d   1      46.517 -19.291  44.496  0.00  0.00     0.000 A 
ATOM     11  C   UNL d   1      46.316 -18.491  44.516  0.00  0.00     0.002 A 
ENDBRANCH   5   6
ENDBRANCH   4   5
ENDBRANCH   1   4
BRANCH   1  12
ATOM     12  C   UNL d   1      45.682 -15.267  44.599  0.00  0.00     0.105 A 
ATOM     13  C   UNL d   1      46.314 -14.740  44.583  0.00  0.00     0.015 A 
ATOM     14  C   UNL d   1      46.174 -13.923  44.604  0.00  0.00     0.025 A 
ATOM     15  C   UNL d   1      45.404 -13.637  44.642  0.00  0.00     0.094 A 
ATOM     16  C   UNL d   1      44.763 -14.165  44.658  0.00  0.00     0.025 A 
ATOM     17  C   UNL d   1      44.902 -14.982  44.637  0.00  0.00     0.015 A 
BRANCH  15  18
ATOM     18  O   UNL d   1      45.265 -12.824  44.663  0.00  0.00    -0.328 OA
ATOM     19  C   UNL d   1      45.897 -12.295  44.559  0.00  0.00     0.181 C 
ENDBRANCH  15  18
ENDBRANCH   1  12
TORSDOF 5
ENDMDL
MODEL 2
REMARK VINA RESULT:      10.5      1.249      4.673
REMARK  5 active torsions:
REMARK  status: ('A' for Active; 'I' for Inactive)
REMARK    1  A    between atoms: N_2  and  S_1 
REMARK    2  A    between atoms: C_3  and  S_1 
REMARK    3  A    between atoms: C_8  and  N_2 
REMARK    4  A    between atoms: C_12  and  C_8 
REMARK    5  A    between atoms: O_13  and  C_9 
ROOT
ATOM      1  S   UNL d   1      46.015 -17.204  44.195  0.00  0.00     0.285 S 
ATOM      2  O   UNL d   1      46.047 -17.527  44.953  0.00  0.00    -0.198 OA
ATOM      3  O   UNL d   1      45.983 -16.878  43.428  0.00  0.00    -0.198 OA
ENDROOT
BRANCH   1   4
ATOM      4  N   UNL d   1      45.859 -16.461  44.517  0.00  0.00    -0.157 NA
BRANCH   4   5
ATOM      5  C   UNL d   1      45.924 -15.787  44.051  0.00  0.00     0.112 C 
BRANCH   5   6
ATOM      6  C   UNL d   1      45.702 -15.052  44.352  0.00  0.00     0.020 A 
ATOM      7  C   UNL d   1      46.274 -14.487  44.516  0.00  0.00     0.002 A 
ATOM      8  C   UNL d   1      46.052 -13.752  44.817  0.00  0.00     0.000 A 
ATOM      9  C   UNL d   1      45.258 -13.586  44.954  0.00  0.00     0.000 A 
ATOM     10  C   UNL d   1      44.688 -14.162  44.787  0.00  0.00     0.000 A 
ATOM     11  C   UNL d   1      44.910 -14.897  44.485  0.00  0.00     0.002 A 
ENDBRANCH   5   6
ENDBRANCH   4   5
ENDBRANCH   1   4
BRANCH   1  12
ATOM     12  C   UNL d   1      46.171 -17.947  43.872  0.00  0.00     0.105 A 
ATOM     13  C   UNL d   1      46.114 -18.065  43.059  0.00  0.00     0.015 A 
ATOM     14  C   UNL d   1      46.271 -18.811  42.735  0.00  0.00     0.025 A 
ATOM     15  C   UNL d   1      46.484 -19.437  43.225  0.00  0.00     0.094 A 
ATOM     16  C   UNL d   1      46.543 -19.324  44.045  0.00  0.00     0.025 A 
ATOM     17  C   UNL d   1      46.386 -18.577  44.370  0.00  0.00     0.015 A 
BRANCH  15  18
ATOM     18  O   UNL d   1      46.640 -20.180  42.902  0.00  0.00    -0.328 OA
ATOM     19  C   UNL d   1      46.602 -20.289  42.079  0.00  0.00     0.181 C 
ENDBRANCH  15  18
ENDBRANCH   1  12
TORSDOF 5
ENDMDL
