MODEL 1
REMARK VINA RESULT:      -1.9      0.000      0.000
REMARK  4 active torsions:
REMARK  status: ('A' for Active; 'I' for Inactive)
REMARK    1  A    between atoms: C_10  and  C_3 
REMARK    2  A    between atoms: C_12  and  N_6 
REMARK    3  A    between atoms: O_15  and  C_10 
REMARK    4  A    between atoms: C_18  and  O_15 
ROOT
ATOM      1  C   UNL d   1     -41.382-121.487 -51.835  0.00  0.00     0.086 A 
ATOM      2  C   UNL d   1     -41.502-122.030 -51.225  0.00  0.00     0.038 A 
ATOM      3  C   UNL d   1     -41.636-122.825 -51.396  0.00  0.00     0.165 A 
ATOM      4  C   UNL d   1     -41.396-121.745 -52.620  0.00  0.00     0.282 A 
ATOM      5  N   UNL d   1     -41.649-123.076 -52.176  0.00  0.00    -0.157 NA
ATOM      6  N   UNL d   1     -41.529-122.536 -52.788  0.00  0.00    -0.194 N 
ATOM      7  C   UNL d   1     -41.265-120.744 -51.494  0.00  0.00     0.137 A 
ATOM      8  C   UNL d   1     -41.460-121.629 -50.509  0.00  0.00     0.039 A 
ATOM      9  S   UNL d   1     -41.312-120.824 -50.675  0.00  0.00    -0.066 SA
ATOM     10  O   UNL d   1     -41.276-121.206 -53.233  0.00  0.00    -0.265 OA
ATOM     11  N   UNL d   1     -41.124-120.039 -51.905  0.00  0.00    -0.141 N 
ENDROOT
BRANCH   6  12
ATOM     12  C   UNL d   1     -41.543-122.794 -53.574  0.00  0.00     0.086 A 
ATOM     13  C   UNL d   1     -41.865-122.315 -54.159  0.00  0.00     0.019 A 
ATOM     14  C   UNL d   1     -41.878-122.574 -54.941  0.00  0.00     0.002 A 
ATOM     15  C   UNL d   1     -41.568-123.313 -55.136  0.00  0.00     0.000 A 
ATOM     16  C   UNL d   1     -41.245-123.794 -54.546  0.00  0.00     0.002 A 
ATOM     17  C   UNL d   1     -41.232-123.534 -53.765  0.00  0.00     0.019 A 
ENDBRANCH   6  12
BRANCH   3  18
ATOM     18  C   UNL d   1     -41.756-123.365 -50.784  0.00  0.00     0.320 C 
ATOM     19  O   UNL d   1     -41.126-123.813 -50.500  0.00  0.00    -0.257 OA
BRANCH  18  20
ATOM     20  O   UNL d   1     -42.509-123.455 -50.455  0.00  0.00    -0.270 OA
BRANCH  20  21
ATOM     21  C   UNL d   1     -42.599-123.816 -49.722  0.00  0.00     0.126 C 
ATOM     22  C   UNL d   1     -43.282-123.685 -49.280  0.00  0.00     0.029 C 
ENDBRANCH  20  21
ENDBRANCH  18  20
ENDBRANCH   3  18
TORSDOF 4
ENDMDL
MODEL 2
REMARK VINA RESULT:      -0.8      1.165      3.471
REMARK  4 active torsions:
REMARK  status: ('A' for Active; 'I' for Inactive)
REMARK    1  A    between atoms: C_10  and  C_3 
REMARK    2  A    between atoms: C_12  and  N_6 
REMARK    3  A    between atoms: O_15  and  C_10 
REMARK    4  A    between atoms: C_18  and  O_15 
ROOT
ATOM      1  C   UNL d   1     -41.474-121.497 -51.482  0.00  0.00     0.086 A 
ATOM      2  C   UNL d   1     -41.454-121.927 -52.186  0.00  0.00     0.038 A 
ATOM      3  C   UNL d   1     -41.634-122.731 -52.187  0.00  0.00     0.165 A 
ATOM      4  C   UNL d   1     -41.676-121.877 -50.776  0.00  0.00     0.282 A 
ATOM      5  N   UNL d   1     -41.834-123.104 -51.485  0.00  0.00    -0.157 NA
ATOM      6  N   UNL d   1     -41.855-122.677 -50.780  0.00  0.00    -0.194 N 
ATOM      7  C   UNL d   1     -41.270-120.716 -51.656  0.00  0.00     0.137 A 
ATOM      8  C   UNL d   1     -41.239-121.418 -52.795  0.00  0.00     0.039 A 
ATOM      9  S   UNL d   1     -41.123-120.660 -52.465  0.00  0.00    -0.066 SA
ATOM     10  O   UNL d   1     -41.698-121.450 -50.071  0.00  0.00    -0.265 OA
ATOM     11  N   UNL d   1     -41.221-120.095 -51.110  0.00  0.00    -0.141 N 
ENDROOT
BRANCH   6  12
ATOM     12  C   UNL d   1     -42.058-123.057 -50.074  0.00  0.00     0.086 A 
ATOM     13  C   UNL d   1     -42.841-123.069 -49.822  0.00  0.00     0.019 A 
ATOM     14  C   UNL d   1     -43.040-123.449 -49.119  0.00  0.00     0.002 A 
ATOM     15  C   UNL d   1     -42.456-123.816 -48.668  0.00  0.00     0.000 A 
ATOM     16  C   UNL d   1     -41.668-123.803 -48.922  0.00  0.00     0.002 A 
ATOM     17  C   UNL d   1     -41.470-123.423 -49.625  0.00  0.00     0.019 A 
ENDBRANCH   6  12
BRANCH   3  18
ATOM     18  C   UNL d   1     -41.613-123.158 -52.893  0.00  0.00     0.320 C 
ATOM     19  O   UNL d   1     -41.123-123.817 -52.962  0.00  0.00    -0.257 OA
BRANCH  18  20
ATOM     20  O   UNL d   1     -42.084-122.924 -53.531  0.00  0.00    -0.270 OA
BRANCH  20  21
ATOM     21  C   UNL d   1     -42.033-123.321 -54.249  0.00  0.00     0.126 C 
ATOM     22  C   UNL d   1     -42.331-122.974 -54.933  0.00  0.00     0.029 C 
ENDBRANCH  20  21
ENDBRANCH  18  20
ENDBRANCH   3  18
TORSDOF 4
ENDMDL
