MODEL 1
REMARK VINA RESULT:      99.6      0.000      0.000
REMARK  6 active torsions:
REMARK  status: ('A' for Active; 'I' for Inactive)
REMARK    1  A    between atoms: C_7  and  S_1 
REMARK    2  A    between atoms: N_9  and  S_1 
REMARK    3  A    between atoms: C_20  and  N_2 
REMARK    4  A    between atoms: C_10  and  N_9 
REMARK    5  A    between atoms: O_24  and  C_13 
REMARK    6  A    between atoms: O_25  and  C_19 
ROOT
ATOM      1  N   UNL d   1      61.384  44.102  50.640  0.00  0.00    -0.273 N 
ATOM      2  C   UNL d   1      61.858  44.102  49.674  0.00  0.00     0.265 A 
ATOM      3  C   UNL d   1      61.262  44.891  50.781  0.00  0.00     0.067 A 
ATOM      4  C   UNL d   1      61.549  45.309  50.137  0.00  0.00     0.021 A 
ATOM      5  C   UNL d   1      61.890  44.909  49.497  0.00  0.00     0.058 A 
ATOM      6  C   UNL d   1      61.157  46.548  50.767  0.00  0.00     0.105 A 
ATOM      7  C   UNL d   1      61.503  46.132  50.119  0.00  0.00     0.014 A 
ATOM      8  C   UNL d   1      60.922  45.287  51.420  0.00  0.00     0.018 A 
ATOM      9  C   UNL d   1      60.870  46.129  51.411  0.00  0.00     0.014 A 
ATOM     10  O   UNL d   1      62.161  43.548  49.132  0.00  0.00    -0.267 OA
ATOM     11  C   UNL d   1      62.177  45.325  48.856  0.00  0.00     0.005 A 
ATOM     12  C   UNL d   1      61.789  46.549  49.478  0.00  0.00     0.001 A 
ATOM     13  C   UNL d   1      62.132  46.157  48.833  0.00  0.00     0.000 A 
ENDROOT
BRANCH   6  14
ATOM     14  S   UNL d   1      61.110  47.374  50.751  0.00  0.00     0.285 S 
ATOM     15  O   UNL d   1      61.517  47.384  50.029  0.00  0.00    -0.198 OA
ATOM     16  O   UNL d   1      60.701  47.368  51.476  0.00  0.00    -0.198 OA
BRANCH  14  17
ATOM     17  N   UNL d   1      61.060  48.195  50.739  0.00  0.00    -0.156 NA
BRANCH  17  18
ATOM     18  C   UNL d   1      60.351  48.562  50.908  0.00  0.00     0.116 A 
ATOM     19  C   UNL d   1      60.337  49.174  51.438  0.00  0.00     0.114 A 
ATOM     20  C   UNL d   1      59.629  49.545  51.611  0.00  0.00     0.050 A 
ATOM     21  C   UNL d   1      58.931  49.319  51.263  0.00  0.00     0.096 A 
ATOM     22  C   UNL d   1      58.966  48.681  50.713  0.00  0.00     0.026 A 
ATOM     23  C   UNL d   1      59.670  48.307  50.539  0.00  0.00     0.024 A 
BRANCH  19  24
ATOM     24  O   UNL d   1      61.045  49.423  51.808  0.00  0.00    -0.327 OA
ATOM     25  C   UNL d   1      61.032  49.687  52.600  0.00  0.00     0.181 C 
ENDBRANCH  19  24
BRANCH  21  26
ATOM     26  O   UNL d   1      58.195  49.696  51.435  0.00  0.00    -0.328 OA
ATOM     27  C   UNL d   1      57.548  49.587  50.909  0.00  0.00     0.181 C 
ENDBRANCH  21  26
ENDBRANCH  17  18
ENDBRANCH  14  17
ENDBRANCH   6  14
BRANCH   1  28
ATOM     28  C   UNL d   1      61.144  43.540  51.206  0.00  0.00     0.083 C 
ATOM     29  C   UNL d   1      61.651  43.320  51.805  0.00  0.00     0.021 C 
ENDBRANCH   1  28
TORSDOF 6
ENDMDL
