MODEL 1
REMARK VINA RESULT:      82.1      0.000      0.000
REMARK  3 active torsions:
REMARK  status: ('A' for Active; 'I' for Inactive)
REMARK    1  A    between atoms: C_3  and  S_1 
REMARK    2  A    between atoms: N_4  and  S_1 
REMARK       I    between atoms: C_2  and  N_5 
REMARK       I    between atoms: N_6  and  C_2 
REMARK    3  A    between atoms: C_13  and  N_6 
ROOT
ATOM      1  C   UNL d   1      14.753  17.252  -3.682  0.00  0.00     0.339 C 
ATOM      2  N   UNL d   1      14.762  15.185  -2.305  0.00  0.00    -0.226 N 
ATOM      3  N   UNL d   1      14.755  16.562  -3.229  0.00  0.00    -0.254 N 
ATOM      4  N   UNL d   1      14.550  17.223  -4.485  0.00  0.00    -0.257 N 
ATOM      5  C   UNL d   1      14.559  15.140  -3.103  0.00  0.00     0.111 A 
ATOM      6  C   UNL d   1      14.963  15.921  -1.966  0.00  0.00     0.111 A 
ATOM      7  O   UNL d   1      14.955  17.983  -3.335  0.00  0.00    -0.245 OA
ATOM      8  C   UNL d   1      14.555  15.836  -3.570  0.00  0.00     0.104 A 
ATOM      9  C   UNL d   1      14.959  16.606  -2.425  0.00  0.00     0.104 A 
ATOM     10  C   UNL d   1      14.352  16.499  -4.824  0.00  0.00     0.104 C 
ENDROOT
BRANCH   2  11
ATOM     11  S   UNL d   1      14.766  14.507  -1.850  0.00  0.00     0.271 S 
ATOM     12  O   UNL d   1      14.318  14.891  -1.273  0.00  0.00    -0.200 OA
ATOM     13  O   UNL d   1      15.214  14.123  -2.426  0.00  0.00    -0.200 OA
BRANCH  11  14
ATOM     14  C   UNL d   1      14.770  13.822  -1.390  0.00  0.00     0.104 A 
ATOM     15  C   UNL d   1      14.523  13.109  -1.711  0.00  0.00     0.012 A 
ATOM     16  C   UNL d   1      14.527  12.434  -1.258  0.00  0.00     0.001 A 
ATOM     17  C   UNL d   1      14.271  13.082  -2.496  0.00  0.00     0.001 C 
ATOM     18  C   UNL d   1      14.779  12.464  -0.475  0.00  0.00     0.000 A 
ATOM     19  C   UNL d   1      15.027  13.177  -0.154  0.00  0.00     0.001 A 
ATOM     20  C   UNL d   1      14.783  11.779  -0.016  0.00  0.00     0.000 C 
ATOM     21  C   UNL d   1      15.023  13.856  -0.609  0.00  0.00     0.012 A 
ATOM     22  C   UNL d   1      15.271  14.578  -0.291  0.00  0.00     0.001 C 
ENDBRANCH  11  14
ENDBRANCH   2  11
BRANCH   4  23
ATOM     23  C   UNL d   1      14.550  17.919  -4.938  0.00  0.00     0.068 A 
ATOM     24  C   UNL d   1      15.197  18.434  -4.936  0.00  0.00     0.018 A 
ATOM     25  C   UNL d   1      15.186  19.116  -5.385  0.00  0.00     0.002 A 
ATOM     26  C   UNL d   1      14.520  19.295  -5.849  0.00  0.00     0.000 A 
ATOM     27  C   UNL d   1      13.869  18.781  -5.854  0.00  0.00     0.002 A 
ATOM     28  C   UNL d   1      14.515  19.984  -6.300  0.00  0.00     0.000 C 
ATOM     29  C   UNL d   1      13.892  18.095  -5.396  0.00  0.00     0.018 A 
ENDBRANCH   4  23
TORSDOF 3
ENDMDL
MODEL 2
REMARK VINA RESULT:      82.5      1.910      2.708
REMARK  3 active torsions:
REMARK  status: ('A' for Active; 'I' for Inactive)
REMARK    1  A    between atoms: C_3  and  S_1 
REMARK    2  A    between atoms: N_4  and  S_1 
REMARK       I    between atoms: C_2  and  N_5 
REMARK       I    between atoms: N_6  and  C_2 
REMARK    3  A    between atoms: C_13  and  N_6 
ROOT
ATOM      1  C   UNL d   1      14.487  17.998  -5.018  0.00  0.00     0.339 C 
ATOM      2  N   UNL d   1      13.855  15.654  -4.499  0.00  0.00    -0.226 N 
ATOM      3  N   UNL d   1      14.274  17.219  -4.850  0.00  0.00    -0.254 N 
ATOM      4  N   UNL d   1      14.175  18.383  -5.683  0.00  0.00    -0.257 N 
ATOM      5  C   UNL d   1      13.536  16.023  -5.164  0.00  0.00     0.111 A 
ATOM      6  C   UNL d   1      14.386  16.068  -4.006  0.00  0.00     0.111 A 
ATOM      7  O   UNL d   1      15.019  18.405  -4.520  0.00  0.00    -0.245 OA
ATOM      8  C   UNL d   1      13.747  16.814  -5.342  0.00  0.00     0.104 A 
ATOM      9  C   UNL d   1      14.595  16.847  -4.181  0.00  0.00     0.104 A 
ATOM     10  C   UNL d   1      13.651  17.978  -6.172  0.00  0.00     0.104 C 
ENDROOT
BRANCH   2  11
ATOM     11  S   UNL d   1      13.649  14.883  -4.326  0.00  0.00     0.271 S 
ATOM     12  O   UNL d   1      14.381  14.624  -4.605  0.00  0.00    -0.200 OA
ATOM     13  O   UNL d   1      12.916  15.141  -4.047  0.00  0.00    -0.200 OA
BRANCH  11  14
ATOM     14  C   UNL d   1      13.440  14.104  -4.152  0.00  0.00     0.104 A 
ATOM     15  C   UNL d   1      13.671  13.765  -3.443  0.00  0.00     0.012 A 
ATOM     16  C   UNL d   1      13.466  12.997  -3.271  0.00  0.00     0.001 A 
ATOM     17  C   UNL d   1      14.114  14.207  -2.905  0.00  0.00     0.001 C 
ATOM     18  C   UNL d   1      13.024  12.558  -3.809  0.00  0.00     0.000 A 
ATOM     19  C   UNL d   1      12.793  12.897  -4.518  0.00  0.00     0.001 A 
ATOM     20  C   UNL d   1      12.816  11.779  -3.634  0.00  0.00     0.000 C 
ATOM     21  C   UNL d   1      12.999  13.669  -4.691  0.00  0.00     0.012 A 
ATOM     22  C   UNL d   1      12.769  14.016  -5.406  0.00  0.00     0.001 C 
ENDBRANCH  11  14
ENDBRANCH   2  11
BRANCH   4  23
ATOM     23  C   UNL d   1      14.392  19.167  -5.849  0.00  0.00     0.068 A 
ATOM     24  C   UNL d   1      15.157  19.443  -5.697  0.00  0.00     0.018 A 
ATOM     25  C   UNL d   1      15.360  20.217  -5.864  0.00  0.00     0.002 A 
ATOM     26  C   UNL d   1      14.794  20.731  -6.190  0.00  0.00     0.000 A 
ATOM     27  C   UNL d   1      14.026  20.458  -6.344  0.00  0.00     0.002 A 
ATOM     28  C   UNL d   1      15.005  21.510  -6.356  0.00  0.00     0.000 C 
ATOM     29  C   UNL d   1      13.833  19.675  -6.171  0.00  0.00     0.018 A 
ENDBRANCH   4  23
TORSDOF 3
ENDMDL
