MODEL 1
REMARK VINA RESULT:      -5.1      0.000      0.000
REMARK  6 active torsions:
REMARK  status: ('A' for Active; 'I' for Inactive)
REMARK    1  A    between atoms: C_2  and  N_1 
REMARK       I    between atoms: C_3  and  N_9 
REMARK    2  A    between atoms: C_5  and  C_3 
REMARK    3  A    between atoms: C_6  and  C_5 
REMARK    4  A    between atoms: C_7  and  C_6 
REMARK    5  A    between atoms: O_14  and  C_7 
REMARK    6  A    between atoms: N_9  and  C_11 
ROOT
ATOM      1  C   UNL d   1      57.357  -0.166  31.006  0.00  0.00     0.258 C 
ATOM      2  N   UNL d   1      57.034   0.271  31.627  0.00  0.00    -0.321 N 
ATOM      3  O   UNL d   1      57.203  -0.966  30.951  0.00  0.00    -0.267 OA
ATOM      4  H   UNL d   1      57.187   1.070  31.682  0.00  0.00     0.169 HD
ENDROOT
BRANCH   2   5
ATOM      5  C   UNL d   1      56.561  -0.109  32.180  0.00  0.00     0.061 A 
ATOM      6  C   UNL d   1      56.137   0.348  32.739  0.00  0.00     0.041 A 
ATOM      7  C   UNL d   1      55.658  -0.024  33.300  0.00  0.00     0.128 A 
ATOM      8  C   UNL d   1      55.602  -0.849  33.304  0.00  0.00     0.024 A 
ATOM      9  C   UNL d   1      56.018  -1.300  32.754  0.00  0.00     0.003 A 
ATOM     10  C   UNL d   1      56.490  -0.933  32.201  0.00  0.00     0.017 A 
BRANCH   7  11
ATOM     11  N   UNL d   1      55.241   0.422  33.851  0.00  0.00    -0.114 N 
ATOM     12  O   UNL d   1      54.449   0.614  33.722  0.00  0.00    -0.532 OA
ATOM     13  O   UNL d   1      55.622   0.679  34.538  0.00  0.00    -0.532 OA
ENDBRANCH   7  11
ENDBRANCH   2   5
BRANCH   1  14
ATOM     14  C   UNL d   1      57.831   0.201  30.447  0.00  0.00     0.066 C 
BRANCH  14  15
ATOM     15  C   UNL d   1      58.530  -0.155  30.220  0.00  0.00     0.073 C 
BRANCH  15  16
ATOM     16  C   UNL d   1      59.024   0.204  29.662  0.00  0.00     0.296 C 
ATOM     17  O   UNL d   1      58.701   0.681  29.073  0.00  0.00    -0.259 OA
BRANCH  16  18
ATOM     18  O   UNL d   1      59.836   0.080  29.703  0.00  0.00    -0.296 OA
ATOM     19  C   UNL d   1      60.332   0.371  29.108  0.00  0.00     0.185 C 
ENDBRANCH  16  18
ENDBRANCH  15  16
ENDBRANCH  14  15
ENDBRANCH   1  14
TORSDOF 6
ENDMDL
MODEL 2
REMARK VINA RESULT:      -4.7      1.313      1.550
REMARK  6 active torsions:
REMARK  status: ('A' for Active; 'I' for Inactive)
REMARK    1  A    between atoms: C_2  and  N_1 
REMARK       I    between atoms: C_3  and  N_9 
REMARK    2  A    between atoms: C_5  and  C_3 
REMARK    3  A    between atoms: C_6  and  C_5 
REMARK    4  A    between atoms: C_7  and  C_6 
REMARK    5  A    between atoms: O_14  and  C_7 
REMARK    6  A    between atoms: N_9  and  C_11 
ROOT
ATOM      1  C   UNL d   1      57.739   0.308  30.697  0.00  0.00     0.258 C 
ATOM      2  N   UNL d   1      57.803   0.052  31.478  0.00  0.00    -0.321 N 
ATOM      3  O   UNL d   1      57.008   0.512  30.396  0.00  0.00    -0.267 OA
ATOM      4  H   UNL d   1      58.533  -0.152  31.778  0.00  0.00     0.169 HD
ENDROOT
BRANCH   2   5
ATOM      5  C   UNL d   1      57.128   0.008  31.942  0.00  0.00     0.061 A 
ATOM      6  C   UNL d   1      56.871  -0.738  32.221  0.00  0.00     0.041 A 
ATOM      7  C   UNL d   1      56.191  -0.794  32.688  0.00  0.00     0.128 A 
ATOM      8  C   UNL d   1      55.770  -0.108  32.876  0.00  0.00     0.024 A 
ATOM      9  C   UNL d   1      56.021   0.628  32.602  0.00  0.00     0.003 A 
ATOM     10  C   UNL d   1      56.691   0.682  32.142  0.00  0.00     0.017 A 
BRANCH   7  11
ATOM     11  N   UNL d   1      55.936  -1.525  32.964  0.00  0.00    -0.114 N 
ATOM     12  O   UNL d   1      55.396  -1.972  32.530  0.00  0.00    -0.532 OA
ATOM     13  O   UNL d   1      56.227  -1.811  33.684  0.00  0.00    -0.532 OA
ENDBRANCH   7  11
ENDBRANCH   2   5
BRANCH   1  14
ATOM     14  C   UNL d   1      58.407   0.356  30.223  0.00  0.00     0.066 C 
BRANCH  14  15
ATOM     15  C   UNL d   1      58.557  -0.237  29.682  0.00  0.00     0.073 C 
BRANCH  15  16
ATOM     16  C   UNL d   1      59.322  -0.361  29.393  0.00  0.00     0.296 C 
ATOM     17  O   UNL d   1      59.847   0.272  29.337  0.00  0.00    -0.259 OA
BRANCH  16  18
ATOM     18  O   UNL d   1      59.551  -1.116  29.164  0.00  0.00    -0.296 OA
ATOM     19  C   UNL d   1      60.078  -1.219  28.535  0.00  0.00     0.185 C 
ENDBRANCH  16  18
ENDBRANCH  15  16
ENDBRANCH  14  15
ENDBRANCH   1  14
TORSDOF 6
ENDMDL
MODEL 3
REMARK VINA RESULT:      -4.5      1.473      4.890
REMARK  6 active torsions:
REMARK  status: ('A' for Active; 'I' for Inactive)
REMARK    1  A    between atoms: C_2  and  N_1 
REMARK       I    between atoms: C_3  and  N_9 
REMARK    2  A    between atoms: C_5  and  C_3 
REMARK    3  A    between atoms: C_6  and  C_5 
REMARK    4  A    between atoms: C_7  and  C_6 
REMARK    5  A    between atoms: O_14  and  C_7 
REMARK    6  A    between atoms: N_9  and  C_11 
ROOT
ATOM      1  C   UNL d   1      57.619   0.044  31.033  0.00  0.00     0.258 C 
ATOM      2  N   UNL d   1      58.166   0.575  30.717  0.00  0.00    -0.321 N 
ATOM      3  O   UNL d   1      57.398  -0.613  30.603  0.00  0.00    -0.267 OA
ATOM      4  H   UNL d   1      58.386   1.232  31.147  0.00  0.00     0.169 HD
ENDROOT
BRANCH   2   5
ATOM      5  C   UNL d   1      58.478   0.432  29.972  0.00  0.00     0.061 A 
ATOM      6  C   UNL d   1      59.229   0.068  29.907  0.00  0.00     0.041 A 
ATOM      7  C   UNL d   1      59.553  -0.081  29.161  0.00  0.00     0.128 A 
ATOM      8  C   UNL d   1      59.130   0.132  28.484  0.00  0.00     0.024 A 
ATOM      9  C   UNL d   1      58.391   0.491  28.546  0.00  0.00     0.003 A 
ATOM     10  C   UNL d   1      58.072   0.638  29.282  0.00  0.00     0.017 A 
BRANCH   7  11
ATOM     11  N   UNL d   1      60.290  -0.439  29.093  0.00  0.00    -0.114 N 
ATOM     12  O   UNL d   1      60.353  -1.256  29.000  0.00  0.00    -0.532 OA
ATOM     13  O   UNL d   1      60.972   0.028  29.119  0.00  0.00    -0.532 OA
ENDBRANCH   7  11
ENDBRANCH   2   5
BRANCH   1  14
ATOM     14  C   UNL d   1      57.299   0.176  31.777  0.00  0.00     0.066 C 
BRANCH  14  15
ATOM     15  C   UNL d   1      56.654  -0.263  32.018  0.00  0.00     0.073 C 
BRANCH  15  16
ATOM     16  C   UNL d   1      56.310  -0.135  32.759  0.00  0.00     0.296 C 
ATOM     17  O   UNL d   1      56.760   0.185  33.371  0.00  0.00    -0.259 OA
BRANCH  16  18
ATOM     18  O   UNL d   1      55.520  -0.329  32.877  0.00  0.00    -0.296 OA
ATOM     19  C   UNL d   1      55.145  -0.135  33.588  0.00  0.00     0.185 C 
ENDBRANCH  16  18
ENDBRANCH  15  16
ENDBRANCH  14  15
ENDBRANCH   1  14
TORSDOF 6
ENDMDL
MODEL 4
REMARK VINA RESULT:      -4.4      1.768      4.803
REMARK  6 active torsions:
REMARK  status: ('A' for Active; 'I' for Inactive)
REMARK    1  A    between atoms: C_2  and  N_1 
REMARK       I    between atoms: C_3  and  N_9 
REMARK    2  A    between atoms: C_5  and  C_3 
REMARK    3  A    between atoms: C_6  and  C_5 
REMARK    4  A    between atoms: C_7  and  C_6 
REMARK    5  A    between atoms: O_14  and  C_7 
REMARK    6  A    between atoms: N_9  and  C_11 
ROOT
ATOM      1  C   UNL d   1      57.523  -0.029  30.944  0.00  0.00     0.258 C 
ATOM      2  N   UNL d   1      58.246  -0.411  30.834  0.00  0.00    -0.321 N 
ATOM      3  O   UNL d   1      57.058   0.150  30.298  0.00  0.00    -0.267 OA
ATOM      4  H   UNL d   1      58.711  -0.590  31.479  0.00  0.00     0.169 HD
ENDROOT
BRANCH   2   5
ATOM      5  C   UNL d   1      58.485  -0.603  30.073  0.00  0.00     0.061 A 
ATOM      6  C   UNL d   1      58.605  -1.407  29.873  0.00  0.00     0.041 A 
ATOM      7  C   UNL d   1      58.846  -1.612  29.109  0.00  0.00     0.128 A 
ATOM      8  C   UNL d   1      58.967  -1.017  28.548  0.00  0.00     0.024 A 
ATOM      9  C   UNL d   1      58.849  -0.225  28.743  0.00  0.00     0.003 A 
ATOM     10  C   UNL d   1      58.612  -0.024  29.496  0.00  0.00     0.017 A 
BRANCH   7  11
ATOM     11  N   UNL d   1      58.965  -2.401  28.909  0.00  0.00    -0.114 N 
ATOM     12  O   UNL d   1      58.374  -2.961  29.042  0.00  0.00    -0.532 OA
ATOM     13  O   UNL d   1      59.685  -2.630  28.573  0.00  0.00    -0.532 OA
ENDBRANCH   7  11
ENDBRANCH   2   5
BRANCH   1  14
ATOM     14  C   UNL d   1      57.273   0.168  31.699  0.00  0.00     0.066 C 
BRANCH  14  15
ATOM     15  C   UNL d   1      56.602  -0.184  32.003  0.00  0.00     0.073 C 
BRANCH  15  16
ATOM     16  C   UNL d   1      56.345  -0.013  32.770  0.00  0.00     0.296 C 
ATOM     17  O   UNL d   1      56.882  -0.024  33.395  0.00  0.00    -0.259 OA
BRANCH  16  18
ATOM     18  O   UNL d   1      55.554   0.168  32.901  0.00  0.00    -0.296 OA
ATOM     19  C   UNL d   1      55.220   0.059  33.650  0.00  0.00     0.185 C 
ENDBRANCH  16  18
ENDBRANCH  15  16
ENDBRANCH  14  15
ENDBRANCH   1  14
TORSDOF 6
ENDMDL
MODEL 5
REMARK VINA RESULT:      -3.6      1.328      1.967
REMARK  6 active torsions:
REMARK  status: ('A' for Active; 'I' for Inactive)
REMARK    1  A    between atoms: C_2  and  N_1 
REMARK       I    between atoms: C_3  and  N_9 
REMARK    2  A    between atoms: C_5  and  C_3 
REMARK    3  A    between atoms: C_6  and  C_5 
REMARK    4  A    between atoms: C_7  and  C_6 
REMARK    5  A    between atoms: O_14  and  C_7 
REMARK    6  A    between atoms: N_9  and  C_11 
ROOT
ATOM      1  C   UNL d   1      56.406  -0.033  32.222  0.00  0.00     0.258 C 
ATOM      2  N   UNL d   1      56.295  -0.409  32.948  0.00  0.00    -0.321 N 
ATOM      3  O   UNL d   1      56.034   0.678  32.074  0.00  0.00    -0.267 OA
ATOM      4  H   UNL d   1      56.667  -1.119  33.096  0.00  0.00     0.169 HD
ENDROOT
BRANCH   2   5
ATOM      5  C   UNL d   1      55.811  -0.059  33.511  0.00  0.00     0.061 A 
ATOM      6  C   UNL d   1      56.116   0.093  34.275  0.00  0.00     0.041 A 
ATOM      7  C   UNL d   1      55.636   0.446  34.849  0.00  0.00     0.128 A 
ATOM      8  C   UNL d   1      54.856   0.646  34.661  0.00  0.00     0.024 A 
ATOM      9  C   UNL d   1      54.555   0.497  33.908  0.00  0.00     0.003 A 
ATOM     10  C   UNL d   1      55.028   0.150  33.343  0.00  0.00     0.017 A 
BRANCH   7  11
ATOM     11  N   UNL d   1      55.932   0.596  35.601  0.00  0.00    -0.114 N 
ATOM     12  O   UNL d   1      55.423   0.662  36.247  0.00  0.00    -0.532 OA
ATOM     13  O   UNL d   1      56.748   0.682  35.707  0.00  0.00    -0.532 OA
ENDBRANCH   7  11
ENDBRANCH   2   5
BRANCH   1  14
ATOM     14  C   UNL d   1      56.887  -0.373  31.652  0.00  0.00     0.066 C 
BRANCH  14  15
ATOM     15  C   UNL d   1      57.403   0.100  31.231  0.00  0.00     0.073 C 
BRANCH  15  16
ATOM     16  C   UNL d   1      57.731  -0.162  30.519  0.00  0.00     0.296 C 
ATOM     17  O   UNL d   1      58.205  -0.836  30.509  0.00  0.00    -0.259 OA
BRANCH  16  18
ATOM     18  O   UNL d   1      57.579   0.253  29.826  0.00  0.00    -0.296 OA
ATOM     19  C   UNL d   1      58.110   0.217  29.193  0.00  0.00     0.185 C 
ENDBRANCH  16  18
ENDBRANCH  15  16
ENDBRANCH  14  15
ENDBRANCH   1  14
TORSDOF 6
ENDMDL
