MODEL 1
REMARK VINA RESULT:      -3.4      0.000      0.000
REMARK  6 active torsions:
REMARK  status: ('A' for Active; 'I' for Inactive)
REMARK    1  A    between atoms: C_12  and  N_1 
REMARK    2  A    between atoms: C_9  and  C_23 
REMARK       I    between atoms: N_10  and  C_9 
REMARK    3  A    between atoms: C_13  and  N_10 
REMARK    4  A    between atoms: C_22  and  C_12 
REMARK    5  A    between atoms: O_21  and  C_15 
REMARK    6  A    between atoms: C_23  and  C_22 
ROOT
ATOM      1  C   UNL d   1      32.101  17.583 -24.089  0.00  0.00     0.085 C 
ENDROOT
BRANCH   1   2
ATOM      2  N   UNL d   1      31.438  17.085 -24.063  0.00  0.00    -0.249 N 
ATOM      3  C   UNL d   1      31.526  16.325 -23.754  0.00  0.00     0.208 A 
ATOM      4  N   UNL d   1      30.869  15.816 -23.723  0.00  0.00    -0.218 NA
ATOM      5  S   UNL d   1      32.274  16.085 -23.481  0.00  0.00    -0.038 SA
ATOM      6  C   UNL d   1      30.135  16.061 -23.995  0.00  0.00     0.088 A 
ATOM      7  C   UNL d   1      30.046  16.826 -24.305  0.00  0.00     0.074 A 
ATOM      8  C   UNL d   1      29.486  15.559 -23.964  0.00  0.00     0.019 A 
ATOM      9  C   UNL d   1      30.694  17.333 -24.338  0.00  0.00     0.268 A 
ATOM     10  C   UNL d   1      29.311  17.076 -24.579  0.00  0.00     0.006 A 
ATOM     11  O   UNL d   1      30.606  18.093 -24.647  0.00  0.00    -0.267 OA
ATOM     12  C   UNL d   1      28.662  16.568 -24.546  0.00  0.00     0.000 A 
ATOM     13  C   UNL d   1      28.750  15.808 -24.238  0.00  0.00     0.002 A 
ENDBRANCH   1   2
BRANCH   1  14
ATOM     14  C   UNL d   1      32.342  17.980 -23.401  0.00  0.00     0.024 C 
BRANCH  14  15
ATOM     15  C   UNL d   1      32.918  18.577 -23.448  0.00  0.00     0.064 C 
BRANCH  15  16
ATOM     16  C   UNL d   1      32.989  19.136 -22.833  0.00  0.00     0.279 C 
ATOM     17  N   UNL d   1      32.814  19.922 -22.970  0.00  0.00    -0.208 NA
ATOM     18  O   UNL d   1      33.240  18.888 -22.073  0.00  0.00    -0.265 OA
BRANCH  17  19
ATOM     19  C   UNL d   1      32.885  20.484 -22.351  0.00  0.00     0.085 A 
ATOM     20  C   UNL d   1      33.175  21.244 -22.497  0.00  0.00     0.021 A 
ATOM     21  C   UNL d   1      33.241  21.788 -21.880  0.00  0.00     0.026 A 
ATOM     22  C   UNL d   1      33.014  21.570 -21.113  0.00  0.00     0.094 A 
ATOM     23  C   UNL d   1      32.724  20.812 -20.965  0.00  0.00     0.026 A 
ATOM     24  C   UNL d   1      32.661  20.266 -21.594  0.00  0.00     0.021 A 
BRANCH  22  25
ATOM     25  O   UNL d   1      33.076  22.108 -20.491  0.00  0.00    -0.328 OA
ATOM     26  C   UNL d   1      32.838  22.887 -20.603  0.00  0.00     0.181 C 
ENDBRANCH  22  25
ENDBRANCH  17  19
ENDBRANCH  15  16
ENDBRANCH  14  15
ENDBRANCH   1  14
TORSDOF 6
ENDMDL
MODEL 2
REMARK VINA RESULT:      -0.8      2.931      6.708
REMARK  6 active torsions:
REMARK  status: ('A' for Active; 'I' for Inactive)
REMARK    1  A    between atoms: C_12  and  N_1 
REMARK    2  A    between atoms: C_9  and  C_23 
REMARK       I    between atoms: N_10  and  C_9 
REMARK    3  A    between atoms: C_13  and  N_10 
REMARK    4  A    between atoms: C_22  and  C_12 
REMARK    5  A    between atoms: O_21  and  C_15 
REMARK    6  A    between atoms: C_23  and  C_22 
ROOT
ATOM      1  C   UNL d   1      33.175  22.063 -20.322  0.00  0.00     0.085 C 
ENDROOT
BRANCH   1   2
ATOM      2  N   UNL d   1      32.846  22.464 -19.674  0.00  0.00    -0.249 N 
ATOM      3  C   UNL d   1      32.482  23.193 -19.803  0.00  0.00     0.208 A 
ATOM      4  N   UNL d   1      32.150  23.605 -19.162  0.00  0.00    -0.218 NA
ATOM      5  S   UNL d   1      32.458  23.500 -20.577  0.00  0.00    -0.038 SA
ATOM      6  C   UNL d   1      32.179  23.296 -18.404  0.00  0.00     0.088 A 
ATOM      7  C   UNL d   1      32.545  22.562 -18.273  0.00  0.00     0.074 A 
ATOM      8  C   UNL d   1      31.850  23.702 -17.771  0.00  0.00     0.019 A 
ATOM      9  C   UNL d   1      32.876  22.151 -18.904  0.00  0.00     0.268 A 
ATOM     10  C   UNL d   1      32.576  22.248 -17.513  0.00  0.00     0.006 A 
ATOM     11  O   UNL d   1      33.240  21.422 -18.775  0.00  0.00    -0.267 OA
ATOM     12  C   UNL d   1      32.245  22.660 -16.880  0.00  0.00     0.000 A 
ATOM     13  C   UNL d   1      31.881  23.389 -17.009  0.00  0.00     0.002 A 
ENDBRANCH   1   2
BRANCH   1  14
ATOM     14  C   UNL d   1      32.682  21.622 -20.823  0.00  0.00     0.024 C 
BRANCH  14  15
ATOM     15  C   UNL d   1      32.932  21.441 -21.594  0.00  0.00     0.064 C 
BRANCH  15  16
ATOM     16  C   UNL d   1      32.759  20.694 -21.922  0.00  0.00     0.279 C 
ATOM     17  N   UNL d   1      33.240  20.378 -22.502  0.00  0.00    -0.208 NA
ATOM     18  O   UNL d   1      32.089  20.268 -21.654  0.00  0.00    -0.265 OA
BRANCH  17  19
ATOM     19  C   UNL d   1      33.066  19.626 -22.831  0.00  0.00     0.085 A 
ATOM     20  C   UNL d   1      33.217  18.931 -22.410  0.00  0.00     0.021 A 
ATOM     21  C   UNL d   1      33.042  18.198 -22.745  0.00  0.00     0.026 A 
ATOM     22  C   UNL d   1      32.714  18.160 -23.505  0.00  0.00     0.094 A 
ATOM     23  C   UNL d   1      32.562  18.852 -23.927  0.00  0.00     0.026 A 
ATOM     24  C   UNL d   1      32.742  19.592 -23.582  0.00  0.00     0.021 A 
BRANCH  22  25
ATOM     25  O   UNL d   1      32.535  17.430 -23.847  0.00  0.00    -0.328 OA
ATOM     26  C   UNL d   1      33.118  17.024 -24.262  0.00  0.00     0.181 C 
ENDBRANCH  22  25
ENDBRANCH  17  19
ENDBRANCH  15  16
ENDBRANCH  14  15
ENDBRANCH   1  14
TORSDOF 6
ENDMDL
