MODEL 1
REMARK VINA RESULT:      -1.9      0.000      0.000
REMARK  7 active torsions:
REMARK  status: ('A' for Active; 'I' for Inactive)
REMARK    1  A    between atoms: C_6  and  N_2 
REMARK    2  A    between atoms: C_7  and  C_3 
REMARK    3  A    between atoms: C_10  and  C_6 
REMARK    4  A    between atoms: C_17  and  C_7 
REMARK    5  A    between atoms: O_8  and  C_10 
REMARK    6  A    between atoms: C_9  and  O_8 
REMARK    7  A    between atoms: C_14  and  C_17 
ROOT
ATOM      1  N   UNL d   1      32.824  23.007 -22.131  0.00  0.00    -0.227 NA
ATOM      2  N   UNL d   1      33.062  21.732 -22.455  0.00  0.00    -0.287 N 
ATOM      3  C   UNL d   1      32.892  22.237 -21.809  0.00  0.00     0.148 A 
ATOM      4  C   UNL d   1      33.095  22.179 -23.141  0.00  0.00     0.083 A 
ATOM      5  C   UNL d   1      32.942  23.002 -22.932  0.00  0.00     0.099 A 
ATOM      6  C   UNL d   1      33.240  21.963 -23.912  0.00  0.00     0.019 A 
ATOM      7  C   UNL d   1      32.955  23.542 -23.567  0.00  0.00     0.021 A 
ATOM      8  C   UNL d   1      33.236  22.544 -24.476  0.00  0.00     0.002 A 
ATOM      9  C   UNL d   1      33.093  23.315 -24.280  0.00  0.00     0.002 A 
ENDROOT
BRANCH   2  10
ATOM     10  C   UNL d   1      33.146  20.964 -22.251  0.00  0.00     0.108 C 
BRANCH  10  11
ATOM     11  C   UNL d   1      33.110  20.357 -22.798  0.00  0.00     0.142 C 
BRANCH  11  12
ATOM     12  O   UNL d   1      33.241  19.574 -22.607  0.00  0.00    -0.304 OA
BRANCH  12  13
ATOM     13  C   UNL d   1      33.043  18.946 -23.103  0.00  0.00     0.100 A 
ATOM     14  C   UNL d   1      32.982  19.012 -23.923  0.00  0.00     0.025 A 
ATOM     15  C   UNL d   1      32.785  18.385 -24.418  0.00  0.00     0.002 A 
ATOM     16  C   UNL d   1      32.639  17.642 -24.072  0.00  0.00     0.000 A 
ATOM     17  C   UNL d   1      32.694  17.547 -23.242  0.00  0.00     0.002 A 
ATOM     18  C   UNL d   1      32.897  18.202 -22.758  0.00  0.00     0.025 A 
ENDBRANCH  12  13
ENDBRANCH  11  12
ENDBRANCH  10  11
ENDBRANCH   2  10
BRANCH   3  19
ATOM     19  C   UNL d   1      32.895  21.661 -21.245  0.00  0.00     0.041 C 
BRANCH  19  20
ATOM     20  C   UNL d   1      32.462  21.773 -20.537  0.00  0.00     0.049 C 
BRANCH  20  21
ATOM     21  C   UNL d   1      32.833  21.695 -19.794  0.00  0.00     0.234 C 
ATOM     22  O   UNL d   1      32.588  22.161 -19.149  0.00  0.00    -0.283 OA
ENDBRANCH  20  21
ENDBRANCH  19  20
ENDBRANCH   3  19
TORSDOF 7
ENDMDL
MODEL 2
REMARK VINA RESULT:      -0.9      2.845      5.330
REMARK  7 active torsions:
REMARK  status: ('A' for Active; 'I' for Inactive)
REMARK    1  A    between atoms: C_6  and  N_2 
REMARK    2  A    between atoms: C_7  and  C_3 
REMARK    3  A    between atoms: C_10  and  C_6 
REMARK    4  A    between atoms: C_17  and  C_7 
REMARK    5  A    between atoms: O_8  and  C_10 
REMARK    6  A    between atoms: C_9  and  O_8 
REMARK    7  A    between atoms: C_14  and  C_17 
ROOT
ATOM      1  N   UNL d   1      30.102  16.335 -24.378  0.00  0.00    -0.227 NA
ATOM      2  N   UNL d   1      30.952  17.364 -24.456  0.00  0.00    -0.287 N 
ATOM      3  C   UNL d   1      30.903  16.550 -24.267  0.00  0.00     0.148 A 
ATOM      4  C   UNL d   1      30.208  17.631 -24.672  0.00  0.00     0.083 A 
ATOM      5  C   UNL d   1      29.660  16.968 -24.622  0.00  0.00     0.099 A 
ATOM      6  C   UNL d   1      29.952  18.369 -24.903  0.00  0.00     0.019 A 
ATOM      7  C   UNL d   1      28.869  17.138 -24.824  0.00  0.00     0.021 A 
ATOM      8  C   UNL d   1      29.168  18.459 -25.084  0.00  0.00     0.002 A 
ATOM      9  C   UNL d   1      28.655  17.837 -25.037  0.00  0.00     0.002 A 
ENDROOT
BRANCH   2  10
ATOM     10  C   UNL d   1      31.686  17.670 -24.381  0.00  0.00     0.108 C 
BRANCH  10  11
ATOM     11  C   UNL d   1      31.851  18.302 -23.887  0.00  0.00     0.142 C 
BRANCH  11  12
ATOM     12  O   UNL d   1      32.501  18.786 -23.983  0.00  0.00    -0.304 OA
BRANCH  12  13
ATOM     13  C   UNL d   1      32.748  19.333 -23.417  0.00  0.00     0.100 A 
ATOM     14  C   UNL d   1      32.995  20.099 -23.598  0.00  0.00     0.025 A 
ATOM     15  C   UNL d   1      33.241  20.643 -23.032  0.00  0.00     0.002 A 
ATOM     16  C   UNL d   1      33.241  20.408 -22.233  0.00  0.00     0.000 A 
ATOM     17  C   UNL d   1      32.995  19.636 -22.023  0.00  0.00     0.002 A 
ATOM     18  C   UNL d   1      32.748  19.098 -22.618  0.00  0.00     0.025 A 
ENDBRANCH  12  13
ENDBRANCH  11  12
ENDBRANCH  10  11
ENDBRANCH   2  10
BRANCH   3  19
ATOM     19  C   UNL d   1      31.684  16.456 -24.086  0.00  0.00     0.041 C 
BRANCH  19  20
ATOM     20  C   UNL d   1      31.999  15.685 -24.002  0.00  0.00     0.049 C 
BRANCH  20  21
ATOM     21  C   UNL d   1      32.709  15.559 -23.582  0.00  0.00     0.234 C 
ATOM     22  O   UNL d   1      32.714  15.569 -22.749  0.00  0.00    -0.283 OA
ENDBRANCH  20  21
ENDBRANCH  19  20
ENDBRANCH   3  19
TORSDOF 7
ENDMDL
MODEL 3
REMARK VINA RESULT:      -0.2      2.594      5.383
REMARK  7 active torsions:
REMARK  status: ('A' for Active; 'I' for Inactive)
REMARK    1  A    between atoms: C_6  and  N_2 
REMARK    2  A    between atoms: C_7  and  C_3 
REMARK    3  A    between atoms: C_10  and  C_6 
REMARK    4  A    between atoms: C_17  and  C_7 
REMARK    5  A    between atoms: O_8  and  C_10 
REMARK    6  A    between atoms: C_9  and  O_8 
REMARK    7  A    between atoms: C_14  and  C_17 
ROOT
ATOM      1  N   UNL d   1      31.024  16.382 -23.835  0.00  0.00    -0.227 NA
ATOM      2  N   UNL d   1      31.931  17.346 -24.027  0.00  0.00    -0.287 N 
ATOM      3  C   UNL d   1      31.142  17.125 -24.202  0.00  0.00     0.148 A 
ATOM      4  C   UNL d   1      32.276  16.758 -23.571  0.00  0.00     0.083 A 
ATOM      5  C   UNL d   1      31.691  16.137 -23.447  0.00  0.00     0.099 A 
ATOM      6  C   UNL d   1      33.024  16.698 -23.255  0.00  0.00     0.019 A 
ATOM      7  C   UNL d   1      31.946  15.488 -22.991  0.00  0.00     0.021 A 
ATOM      8  C   UNL d   1      33.200  16.037 -22.822  0.00  0.00     0.002 A 
ATOM      9  C   UNL d   1      32.652  15.455 -22.706  0.00  0.00     0.002 A 
ENDROOT
BRANCH   2  10
ATOM     10  C   UNL d   1      32.146  18.050 -24.336  0.00  0.00     0.108 C 
BRANCH  10  11
ATOM     11  C   UNL d   1      32.775  18.485 -24.044  0.00  0.00     0.142 C 
BRANCH  11  12
ATOM     12  O   UNL d   1      33.121  19.101 -24.454  0.00  0.00    -0.304 OA
BRANCH  12  13
ATOM     13  C   UNL d   1      33.160  19.872 -24.166  0.00  0.00     0.100 A 
ATOM     14  C   UNL d   1      33.180  20.060 -23.363  0.00  0.00     0.025 A 
ATOM     15  C   UNL d   1      33.219  20.830 -23.076  0.00  0.00     0.002 A 
ATOM     16  C   UNL d   1      33.241  21.455 -23.626  0.00  0.00     0.000 A 
ATOM     17  C   UNL d   1      33.222  21.291 -24.447  0.00  0.00     0.002 A 
ATOM     18  C   UNL d   1      33.182  20.497 -24.716  0.00  0.00     0.025 A 
ENDBRANCH  12  13
ENDBRANCH  11  12
ENDBRANCH  10  11
ENDBRANCH   2  10
BRANCH   3  19
ATOM     19  C   UNL d   1      30.963  17.782 -24.635  0.00  0.00     0.041 C 
BRANCH  19  20
ATOM     20  C   UNL d   1      30.186  17.883 -24.930  0.00  0.00     0.049 C 
BRANCH  20  21
ATOM     21  C   UNL d   1      29.865  18.646 -25.031  0.00  0.00     0.234 C 
ATOM     22  O   UNL d   1      29.054  18.785 -24.896  0.00  0.00    -0.283 OA
ENDBRANCH  20  21
ENDBRANCH  19  20
ENDBRANCH   3  19
TORSDOF 7
ENDMDL
