MODEL 1
REMARK VINA RESULT:      -1.2      0.000      0.000
REMARK  6 active torsions:
REMARK  status: ('A' for Active; 'I' for Inactive)
REMARK    1  A    between atoms: N_5  and  C_1 
REMARK    2  A    between atoms: N_7  and  C_2 
REMARK    3  A    between atoms: C_8  and  N_3 
REMARK    4  A    between atoms: C_18  and  C_8 
REMARK    5  A    between atoms: C_14  and  N_9 
REMARK    6  A    between atoms: C_19  and  C_14 
ROOT
ATOM      1  C   UNL d   1      32.541  21.595 -21.373  0.00  0.00     0.242 A 
ATOM      2  C   UNL d   1      32.834  21.555 -22.144  0.00  0.00     0.175 A 
ATOM      3  N   UNL d   1      32.952  22.338 -22.410  0.00  0.00    -0.274 N 
ATOM      4  N   UNL d   1      32.475  22.398 -21.158  0.00  0.00    -0.203 NA
ATOM      5  C   UNL d   1      32.731  22.846 -21.805  0.00  0.00     0.151 A 
ATOM      6  C   UNL d   1      32.761  23.670 -21.837  0.00  0.00     0.041 C 
ENDROOT
BRANCH   2   7
ATOM      7  N   UNL d   1      32.933  20.796 -22.442  0.00  0.00    -0.285 N 
ATOM      8  C   UNL d   1      32.896  20.658 -23.257  0.00  0.00     0.101 A 
ATOM      9  C   UNL d   1      32.997  19.888 -23.547  0.00  0.00     0.100 A 
ATOM     10  N   UNL d   1      33.132  19.267 -23.032  0.00  0.00    -0.300 N 
ATOM     11  C   UNL d   1      33.169  19.405 -22.217  0.00  0.00     0.100 A 
ATOM     12  C   UNL d   1      33.070  20.163 -21.926  0.00  0.00     0.101 A 
BRANCH  10  13
ATOM     13  C   UNL d   1      33.233  18.496 -23.326  0.00  0.00     0.080 C 
BRANCH  13  14
ATOM     14  C   UNL d   1      32.622  18.127 -23.727  0.00  0.00     0.018 A 
ATOM     15  C   UNL d   1      32.119  17.606 -23.328  0.00  0.00     0.002 A 
ATOM     16  C   UNL d   1      31.504  17.232 -23.725  0.00  0.00     0.000 A 
ATOM     17  C   UNL d   1      31.387  17.381 -24.535  0.00  0.00     0.000 A 
ATOM     18  C   UNL d   1      31.890  17.903 -24.934  0.00  0.00     0.000 A 
ATOM     19  C   UNL d   1      32.510  18.276 -24.524  0.00  0.00     0.002 A 
ENDBRANCH  13  14
ENDBRANCH  10  13
ENDBRANCH   2   7
BRANCH   1  20
ATOM     20  N   UNL d   1      32.341  20.952 -20.887  0.00  0.00    -0.092 N 
ATOM     21  O   UNL d   1      31.593  20.620 -20.923  0.00  0.00    -0.530 OA
ATOM     22  O   UNL d   1      32.907  20.649 -20.363  0.00  0.00    -0.530 OA
ENDBRANCH   1  20
BRANCH   3  23
ATOM     23  C   UNL d   1      33.241  22.550 -23.154  0.00  0.00     0.083 C 
BRANCH  23  24
ATOM     24  C   UNL d   1      32.759  22.935 -23.700  0.00  0.00     0.018 A 
ATOM     25  C   UNL d   1      33.008  22.999 -24.489  0.00  0.00     0.002 A 
ATOM     26  C   UNL d   1      32.527  23.386 -25.043  0.00  0.00     0.000 A 
ATOM     27  C   UNL d   1      31.807  23.702 -24.806  0.00  0.00     0.000 A 
ATOM     28  C   UNL d   1      31.559  23.639 -24.026  0.00  0.00     0.000 A 
ATOM     29  C   UNL d   1      32.040  23.252 -23.472  0.00  0.00     0.002 A 
ENDBRANCH  23  24
ENDBRANCH   3  23
TORSDOF 6
ENDMDL
MODEL 2
REMARK VINA RESULT:      -0.3      2.021      5.038
REMARK  6 active torsions:
REMARK  status: ('A' for Active; 'I' for Inactive)
REMARK    1  A    between atoms: N_5  and  C_1 
REMARK    2  A    between atoms: N_7  and  C_2 
REMARK    3  A    between atoms: C_8  and  N_3 
REMARK    4  A    between atoms: C_18  and  C_8 
REMARK    5  A    between atoms: C_14  and  N_9 
REMARK    6  A    between atoms: C_19  and  C_14 
ROOT
ATOM      1  C   UNL d   1      32.281  16.687 -23.496  0.00  0.00     0.242 A 
ATOM      2  C   UNL d   1      31.982  17.320 -23.933  0.00  0.00     0.175 A 
ATOM      3  N   UNL d   1      31.416  17.015 -24.466  0.00  0.00    -0.274 N 
ATOM      4  N   UNL d   1      31.905  15.988 -23.755  0.00  0.00    -0.203 NA
ATOM      5  C   UNL d   1      31.374  16.203 -24.352  0.00  0.00     0.151 A 
ATOM      6  C   UNL d   1      30.882  15.686 -24.766  0.00  0.00     0.041 C 
ENDROOT
BRANCH   2   7
ATOM      7  N   UNL d   1      32.298  18.055 -23.745  0.00  0.00    -0.285 N 
ATOM      8  C   UNL d   1      32.864  18.405 -24.236  0.00  0.00     0.101 A 
ATOM      9  C   UNL d   1      33.176  19.148 -24.037  0.00  0.00     0.100 A 
ATOM     10  N   UNL d   1      32.926  19.532 -23.360  0.00  0.00    -0.300 N 
ATOM     11  C   UNL d   1      32.359  19.181 -22.870  0.00  0.00     0.100 A 
ATOM     12  C   UNL d   1      32.049  18.450 -23.062  0.00  0.00     0.101 A 
BRANCH  10  13
ATOM     13  C   UNL d   1      33.240  20.276 -23.163  0.00  0.00     0.080 C 
BRANCH  13  14
ATOM     14  C   UNL d   1      32.969  20.673 -22.500  0.00  0.00     0.018 A 
ATOM     15  C   UNL d   1      32.662  21.438 -22.571  0.00  0.00     0.002 A 
ATOM     16  C   UNL d   1      32.389  21.841 -21.909  0.00  0.00     0.000 A 
ATOM     17  C   UNL d   1      32.422  21.476 -21.163  0.00  0.00     0.000 A 
ATOM     18  C   UNL d   1      32.729  20.711 -21.092  0.00  0.00     0.000 A 
ATOM     19  C   UNL d   1      33.003  20.311 -21.767  0.00  0.00     0.002 A 
ENDBRANCH  13  14
ENDBRANCH  10  13
ENDBRANCH   2   7
BRANCH   1  20
ATOM     20  N   UNL d   1      32.858  16.726 -22.900  0.00  0.00    -0.092 N 
ATOM     21  O   UNL d   1      33.238  16.046 -22.645  0.00  0.00    -0.530 OA
ATOM     22  O   UNL d   1      33.046  17.459 -22.565  0.00  0.00    -0.530 OA
ENDBRANCH   1  20
BRANCH   3  23
ATOM     23  C   UNL d   1      30.982  17.462 -25.008  0.00  0.00     0.083 C 
BRANCH  23  24
ATOM     24  C   UNL d   1      30.191  17.647 -24.866  0.00  0.00     0.018 A 
ATOM     25  C   UNL d   1      29.901  18.390 -25.090  0.00  0.00     0.002 A 
ATOM     26  C   UNL d   1      29.106  18.581 -24.949  0.00  0.00     0.000 A 
ATOM     27  C   UNL d   1      28.613  18.033 -24.588  0.00  0.00     0.000 A 
ATOM     28  C   UNL d   1      28.900  17.297 -24.366  0.00  0.00     0.000 A 
ATOM     29  C   UNL d   1      29.694  17.105 -24.506  0.00  0.00     0.002 A 
ENDBRANCH  23  24
ENDBRANCH   3  23
TORSDOF 6
ENDMDL
MODEL 3
REMARK VINA RESULT:       0.3      2.838      5.376
REMARK  6 active torsions:
REMARK  status: ('A' for Active; 'I' for Inactive)
REMARK    1  A    between atoms: N_5  and  C_1 
REMARK    2  A    between atoms: N_7  and  C_2 
REMARK    3  A    between atoms: C_8  and  N_3 
REMARK    4  A    between atoms: C_18  and  C_8 
REMARK    5  A    between atoms: C_14  and  N_9 
REMARK    6  A    between atoms: C_19  and  C_14 
ROOT
ATOM      1  C   UNL d   1      30.327  15.852 -23.191  0.00  0.00     0.242 A 
ATOM      2  C   UNL d   1      30.470  16.395 -23.794  0.00  0.00     0.175 A 
ATOM      3  N   UNL d   1      29.844  16.336 -24.344  0.00  0.00    -0.274 N 
ATOM      4  N   UNL d   1      29.614  15.453 -23.361  0.00  0.00    -0.203 NA
ATOM      5  C   UNL d   1      29.326  15.760 -24.073  0.00  0.00     0.151 A 
ATOM      6  C   UNL d   1      28.631  15.525 -24.451  0.00  0.00     0.041 C 
ENDROOT
BRANCH   2   7
ATOM      7  N   UNL d   1      31.158  16.838 -23.711  0.00  0.00    -0.285 N 
ATOM      8  C   UNL d   1      31.232  17.383 -23.093  0.00  0.00     0.101 A 
ATOM      9  C   UNL d   1      31.931  17.825 -23.019  0.00  0.00     0.100 A 
ATOM     10  N   UNL d   1      32.542  17.723 -23.552  0.00  0.00    -0.300 N 
ATOM     11  C   UNL d   1      32.467  17.177 -24.170  0.00  0.00     0.100 A 
ATOM     12  C   UNL d   1      31.780  16.740 -24.247  0.00  0.00     0.101 A 
BRANCH  10  13
ATOM     13  C   UNL d   1      33.241  18.167 -23.475  0.00  0.00     0.080 C 
BRANCH  13  14
ATOM     14  C   UNL d   1      33.201  18.965 -23.300  0.00  0.00     0.018 A 
ATOM     15  C   UNL d   1      33.131  19.215 -22.514  0.00  0.00     0.002 A 
ATOM     16  C   UNL d   1      33.091  20.016 -22.333  0.00  0.00     0.000 A 
ATOM     17  C   UNL d   1      33.122  20.578 -22.945  0.00  0.00     0.000 A 
ATOM     18  C   UNL d   1      33.192  20.328 -23.730  0.00  0.00     0.000 A 
ATOM     19  C   UNL d   1      33.232  19.516 -23.904  0.00  0.00     0.002 A 
ENDBRANCH  13  14
ENDBRANCH  10  13
ENDBRANCH   2   7
BRANCH   1  20
ATOM     20  N   UNL d   1      30.803  15.716 -22.524  0.00  0.00    -0.092 N 
ATOM     21  O   UNL d   1      30.476  15.725 -21.772  0.00  0.00    -0.530 OA
ATOM     22  O   UNL d   1      31.611  15.571 -22.625  0.00  0.00    -0.530 OA
ENDBRANCH   1  20
BRANCH   3  23
ATOM     23  C   UNL d   1      29.770  16.783 -25.034  0.00  0.00     0.083 C 
BRANCH  23  24
ATOM     24  C   UNL d   1      29.302  17.461 -25.050  0.00  0.00     0.018 A 
ATOM     25  C   UNL d   1      29.666  18.206 -25.066  0.00  0.00     0.002 A 
ATOM     26  C   UNL d   1      29.200  18.892 -25.082  0.00  0.00     0.000 A 
ATOM     27  C   UNL d   1      28.382  18.828 -25.082  0.00  0.00     0.000 A 
ATOM     28  C   UNL d   1      28.020  18.090 -25.065  0.00  0.00     0.000 A 
ATOM     29  C   UNL d   1      28.486  17.405 -25.049  0.00  0.00     0.002 A 
ENDBRANCH  23  24
ENDBRANCH   3  23
TORSDOF 6
ENDMDL
MODEL 4
REMARK VINA RESULT:       0.4      1.565      2.529
REMARK  6 active torsions:
REMARK  status: ('A' for Active; 'I' for Inactive)
REMARK    1  A    between atoms: N_5  and  C_1 
REMARK    2  A    between atoms: N_7  and  C_2 
REMARK    3  A    between atoms: C_8  and  N_3 
REMARK    4  A    between atoms: C_18  and  C_8 
REMARK    5  A    between atoms: C_14  and  N_9 
REMARK    6  A    between atoms: C_19  and  C_14 
ROOT
ATOM      1  C   UNL d   1      32.777  22.016 -23.904  0.00  0.00     0.242 A 
ATOM      2  C   UNL d   1      32.961  21.567 -23.236  0.00  0.00     0.175 A 
ATOM      3  N   UNL d   1      33.054  22.094 -22.594  0.00  0.00    -0.274 N 
ATOM      4  N   UNL d   1      32.756  22.820 -23.682  0.00  0.00    -0.203 NA
ATOM      5  C   UNL d   1      32.928  22.855 -22.873  0.00  0.00     0.151 A 
ATOM      6  C   UNL d   1      32.966  23.544 -22.420  0.00  0.00     0.041 C 
ENDROOT
BRANCH   2   7
ATOM      7  N   UNL d   1      33.004  20.756 -23.360  0.00  0.00    -0.285 N 
ATOM      8  C   UNL d   1      32.860  20.229 -22.738  0.00  0.00     0.101 A 
ATOM      9  C   UNL d   1      32.907  19.412 -22.876  0.00  0.00     0.100 A 
ATOM     10  N   UNL d   1      33.094  19.128 -23.619  0.00  0.00    -0.300 N 
ATOM     11  C   UNL d   1      33.238  19.656 -24.240  0.00  0.00     0.100 A 
ATOM     12  C   UNL d   1      33.193  20.462 -24.110  0.00  0.00     0.101 A 
BRANCH  10  13
ATOM     13  C   UNL d   1      33.140  18.309 -23.753  0.00  0.00     0.080 C 
BRANCH  13  14
ATOM     14  C   UNL d   1      32.455  17.870 -23.849  0.00  0.00     0.018 A 
ATOM     15  C   UNL d   1      32.337  17.183 -23.404  0.00  0.00     0.002 A 
ATOM     16  C   UNL d   1      31.651  16.739 -23.496  0.00  0.00     0.000 A 
ATOM     17  C   UNL d   1      31.074  16.983 -24.041  0.00  0.00     0.000 A 
ATOM     18  C   UNL d   1      31.192  17.670 -24.487  0.00  0.00     0.000 A 
ATOM     19  C   UNL d   1      31.888  18.113 -24.387  0.00  0.00     0.002 A 
ENDBRANCH  13  14
ENDBRANCH  10  13
ENDBRANCH   2   7
BRANCH   1  20
ATOM     20  N   UNL d   1      32.637  21.727 -24.670  0.00  0.00    -0.092 N 
ATOM     21  O   UNL d   1      33.240  21.372 -25.096  0.00  0.00    -0.530 OA
ATOM     22  O   UNL d   1      31.881  21.802 -24.999  0.00  0.00    -0.530 OA
ENDBRANCH   1  20
BRANCH   3  23
ATOM     23  C   UNL d   1      33.240  21.875 -21.820  0.00  0.00     0.083 C 
BRANCH  23  24
ATOM     24  C   UNL d   1      32.858  22.224 -21.179  0.00  0.00     0.018 A 
ATOM     25  C   UNL d   1      33.194  22.890 -20.818  0.00  0.00     0.002 A 
ATOM     26  C   UNL d   1      32.814  23.245 -20.172  0.00  0.00     0.000 A 
ATOM     27  C   UNL d   1      32.107  22.934 -19.895  0.00  0.00     0.000 A 
ATOM     28  C   UNL d   1      31.773  22.273 -20.251  0.00  0.00     0.000 A 
ATOM     29  C   UNL d   1      32.153  21.918 -20.897  0.00  0.00     0.002 A 
ENDBRANCH  23  24
ENDBRANCH   3  23
TORSDOF 6
ENDMDL
