MODEL 1
REMARK VINA RESULT:      -5.7      0.000      0.000
REMARK  3 active torsions:
REMARK  status: ('A' for Active; 'I' for Inactive)
REMARK    1  A    between atoms: C_2  and  C_1 
REMARK    2  A    between atoms: C_3  and  C_2 
REMARK       I    between atoms: N_5  and  C_3 
REMARK    3  A    between atoms: C_10  and  N_8 
ROOT
ATOM      1  C   UNL d   1     -41.416-122.031 -52.200  0.00  0.00     0.304 C 
ATOM      2  N   UNL d   1     -41.516-122.289 -51.425  0.00  0.00    -0.266 N 
ATOM      3  N   UNL d   1     -41.715-122.804 -49.866  0.00  0.00    -0.301 N 
ATOM      4  O   UNL d   1     -41.122-121.276 -52.347  0.00  0.00    -0.263 OA
ATOM      5  C   UNL d   1     -41.321-121.792 -50.797  0.00  0.00     0.102 A 
ATOM      6  C   UNL d   1     -41.810-123.043 -51.284  0.00  0.00     0.102 A 
ATOM      7  C   UNL d   1     -41.908-123.298 -50.506  0.00  0.00     0.100 A 
ATOM      8  C   UNL d   1     -41.419-122.045 -50.022  0.00  0.00     0.100 A 
ENDROOT
BRANCH   1   9
ATOM      9  C   UNL d   1     -41.613-122.532 -52.834  0.00  0.00     0.253 C 
ATOM     10  O   UNL d   1     -41.375-123.323 -52.819  0.00  0.00    -0.281 OA
BRANCH   9  11
ATOM     11  C   UNL d   1     -42.040-122.238 -53.469  0.00  0.00     0.064 A 
ATOM     12  C   UNL d   1     -42.749-121.815 -53.439  0.00  0.00     0.102 A 
ATOM     13  N   UNL d   1     -42.984-121.628 -54.204  0.00  0.00    -0.244 NA
ATOM     14  C   UNL d   1     -42.418-121.936 -54.720  0.00  0.00     0.082 A 
ATOM     15  C   UNL d   1     -41.836-122.312 -54.267  0.00  0.00     0.022 A 
ATOM     16  C   UNL d   1     -42.357-121.924 -55.541  0.00  0.00     0.019 A 
ATOM     17  C   UNL d   1     -41.196-122.673 -54.638  0.00  0.00     0.002 A 
ATOM     18  C   UNL d   1     -41.136-122.659 -55.468  0.00  0.00     0.000 A 
ATOM     19  C   UNL d   1     -41.717-122.285 -55.912  0.00  0.00     0.002 A 
ENDBRANCH   9  11
ENDBRANCH   1   9
BRANCH   3  20
ATOM     20  C   UNL d   1     -41.811-123.053 -49.093  0.00  0.00     0.064 A 
ATOM     21  C   UNL d   1     -42.543-122.991 -48.721  0.00  0.00     0.020 A 
ATOM     22  C   UNL d   1     -42.627-123.247 -47.936  0.00  0.00     0.031 A 
ATOM     23  C   UNL d   1     -41.981-123.565 -47.528  0.00  0.00     0.140 A 
ATOM     24  C   UNL d   1     -41.242-123.627 -47.905  0.00  0.00     0.031 A 
ATOM     25  F   UNL d   1     -42.073-123.817 -46.748  0.00  0.00    -0.204 F 
ATOM     26  C   UNL d   1     -41.162-123.372 -48.682  0.00  0.00     0.020 A 
ENDBRANCH   3  20
TORSDOF 3
ENDMDL
