MODEL 1
REMARK VINA RESULT:      43.9      0.000      0.000
REMARK  3 active torsions:
REMARK  status: ('A' for Active; 'I' for Inactive)
REMARK       I    between atoms: N_2  and  C_1 
REMARK    1  A    between atoms: O_3  and  C_1 
REMARK    2  A    between atoms: C_9  and  O_3 
REMARK    3  A    between atoms: C_5  and  C_6 
ROOT
ATOM      1  C   UNL d   1     -52.798  24.440  33.732  0.00  0.00    -0.023 A 
ATOM      2  C   UNL d   1     -52.836  25.251  33.585  0.00  0.00    -0.002 A 
ATOM      3  C   UNL d   1     -52.068  24.057  33.736  0.00  0.00    -0.002 A 
ATOM      4  C   UNL d   1     -51.423  25.289  33.450  0.00  0.00     0.105 A 
ATOM      5  C   UNL d   1     -51.378  24.483  33.595  0.00  0.00     0.025 A 
ATOM      6  C   UNL d   1     -52.147  25.677  33.444  0.00  0.00     0.025 A 
ENDROOT
BRANCH   4   7
ATOM      7  O   UNL d   1     -50.731  25.717  33.308  0.00  0.00    -0.259 OA
BRANCH   7   8
ATOM      8  C   UNL d   1     -50.701  26.530  33.421  0.00  0.00     0.377 C 
ATOM      9  N   UNL d   1     -49.996  26.909  33.628  0.00  0.00    -0.252 N 
ATOM     10  C   UNL d   1     -49.309  26.453  33.722  0.00  0.00     0.085 A 
ATOM     11  C   UNL d   1     -49.979  27.719  33.738  0.00  0.00     0.085 A 
ATOM     12  C   UNL d   1     -48.604  26.823  33.927  0.00  0.00     0.019 A 
ATOM     13  C   UNL d   1     -48.578  27.642  34.041  0.00  0.00     0.003 A 
ATOM     14  C   UNL d   1     -49.272  28.094  33.945  0.00  0.00     0.019 A 
ATOM     15  O   UNL d   1     -51.412  26.977  33.321  0.00  0.00    -0.237 OA
ENDBRANCH   7   8
ENDBRANCH   4   7
BRANCH   1  16
ATOM     16  C   UNL d   1     -53.491  24.012  33.874  0.00  0.00     0.019 C 
ATOM     17  C   UNL d   1     -54.188  24.207  33.471  0.00  0.00     0.004 C 
ATOM     18  C   UNL d   1     -53.489  23.390  34.417  0.00  0.00     0.004 C 
ATOM     19  C   UNL d   1     -53.704  24.579  33.308  0.00  0.00     0.004 C 
ENDBRANCH   1  16
TORSDOF 3
ENDMDL
