MODEL 1
REMARK VINA RESULT:      53.8      0.000      0.000
REMARK  3 active torsions:
REMARK  status: ('A' for Active; 'I' for Inactive)
REMARK    1  A    between atoms: C_2  and  N_1 
REMARK    2  A    between atoms: C_5  and  C_8 
REMARK       I    between atoms: N_6  and  C_5 
REMARK    3  A    between atoms: C_13  and  N_6 
ROOT
ATOM      1  C   UNL d   1     -54.934-101.099 -43.660  0.00  0.00     0.070 A 
ATOM      2  C   UNL d   1     -54.936-101.170 -42.834  0.00  0.00     0.022 A 
ATOM      3  C   UNL d   1     -54.829-101.906 -42.485  0.00  0.00     0.059 A 
ATOM      4  C   UNL d   1     -54.824-101.777 -44.143  0.00  0.00     0.018 A 
ATOM      5  C   UNL d   1     -54.720-102.573 -42.948  0.00  0.00     0.005 A 
ATOM      6  C   UNL d   1     -54.718-102.511 -43.782  0.00  0.00     0.002 A 
ENDROOT
BRANCH   3   7
ATOM      7  C   UNL d   1     -54.829-101.979 -41.663  0.00  0.00     0.279 C 
ATOM      8  N   UNL d   1     -54.807-101.306 -41.188  0.00  0.00    -0.208 NA
ATOM      9  O   UNL d   1     -54.852-102.723 -41.316  0.00  0.00    -0.265 OA
BRANCH   8  10
ATOM     10  C   UNL d   1     -54.808-101.381 -40.353  0.00  0.00     0.085 A 
ATOM     11  C   UNL d   1     -54.877-102.121 -40.005  0.00  0.00     0.020 A 
ATOM     12  C   UNL d   1     -54.880-102.216 -39.182  0.00  0.00     0.008 A 
ATOM     13  C   UNL d   1     -54.941-102.880 -38.682  0.00  0.00     0.007 A 
ATOM     14  C   UNL d   1     -54.810-101.546 -38.703  0.00  0.00     0.030 A 
ATOM     15  C   UNL d   1     -54.908-102.606 -37.915  0.00  0.00     0.035 A 
ATOM     16  S   UNL d   1     -54.829-101.799 -37.905  0.00  0.00    -0.086 SA
ATOM     17  C   UNL d   1     -54.739-100.784 -39.053  0.00  0.00     0.008 A 
ATOM     18  C   UNL d   1     -54.738-100.710 -39.878  0.00  0.00     0.020 A 
ENDBRANCH   8  10
ENDBRANCH   3   7
BRANCH   1  19
ATOM     19  N   UNL d   1     -55.041-100.363 -44.016  0.00  0.00    -0.242 N 
ATOM     20  C   UNL d   1     -55.226-100.196 -44.798  0.00  0.00     0.267 A 
ATOM     21  C   UNL d   1     -55.280 -99.394 -44.912  0.00  0.00     0.066 A 
ATOM     22  O   UNL d   1     -55.349-100.790 -45.424  0.00  0.00    -0.267 OA
ATOM     23  C   UNL d   1     -55.128 -99.047 -44.197  0.00  0.00     0.066 A 
ATOM     24  C   UNL d   1     -54.988 -99.622 -43.671  0.00  0.00     0.267 A 
ATOM     25  O   UNL d   1     -54.800 -99.466 -42.825  0.00  0.00    -0.267 OA
ENDBRANCH   1  19
TORSDOF 3
ENDMDL
