MODEL 1
REMARK VINA RESULT:      -3.4      0.000      0.000
REMARK  4 active torsions:
REMARK  status: ('A' for Active; 'I' for Inactive)
REMARK    1  A    between atoms: N_2  and  S_1 
REMARK    2  A    between atoms: C_4  and  S_1 
REMARK    3  A    between atoms: C_15  and  C_3 
REMARK    4  A    between atoms: O_16  and  C_12 
ROOT
ATOM      1  S   UNL d   1     -41.917-123.028 -50.312  0.00  0.00     0.273 S 
ATOM      2  O   UNL d   1     -42.653-122.675 -50.436  0.00  0.00    -0.200 OA
ATOM      3  O   UNL d   1     -41.181-123.380 -50.189  0.00  0.00    -0.200 OA
ENDROOT
BRANCH   1   4
ATOM      4  N   UNL d   1     -41.692-122.830 -51.084  0.00  0.00    -0.213 N 
ATOM      5  C   UNL d   1     -41.420-122.091 -51.334  0.00  0.00     0.157 A 
ATOM      6  N   UNL d   1     -41.261-122.142 -52.146  0.00  0.00    -0.226 NA
ATOM      7  C   UNL d   1     -41.434-122.910 -52.393  0.00  0.00     0.101 A 
ATOM      8  C   UNL d   1     -41.702-123.338 -51.736  0.00  0.00     0.112 A 
ATOM      9  C   UNL d   1     -41.356-123.203 -53.160  0.00  0.00     0.022 C 
BRANCH   5  10
ATOM     10  C   UNL d   1     -41.326-121.427 -50.862  0.00  0.00     0.038 C 
ATOM     11  C   UNL d   1     -41.123-120.707 -51.206  0.00  0.00     0.003 C 
ENDBRANCH   5  10
ENDBRANCH   1   4
BRANCH   1  12
ATOM     12  C   UNL d   1     -42.141-123.225 -49.543  0.00  0.00     0.106 A 
ATOM     13  C   UNL d   1     -41.600-123.150 -48.924  0.00  0.00     0.037 A 
ATOM     14  C   UNL d   1     -41.824-123.347 -48.155  0.00  0.00     0.095 A 
ATOM     15  C   UNL d   1     -42.588-123.619 -48.005  0.00  0.00     0.022 A 
ATOM     16  C   UNL d   1     -43.128-123.694 -48.624  0.00  0.00     0.003 A 
ATOM     17  C   UNL d   1     -42.812-123.817 -47.236  0.00  0.00     0.002 C 
ATOM     18  C   UNL d   1     -42.905-123.497 -49.392  0.00  0.00     0.012 A 
ATOM     19  C   UNL d   1     -43.436-123.569 -50.009  0.00  0.00     0.001 C 
BRANCH  14  20
ATOM     20  O   UNL d   1     -41.279-123.271 -47.535  0.00  0.00    -0.328 OA
ATOM     21  C   UNL d   1     -41.310-122.613 -47.039  0.00  0.00     0.181 C 
ENDBRANCH  14  20
ENDBRANCH   1  12
TORSDOF 4
ENDMDL
MODEL 2
REMARK VINA RESULT:      -3.1      1.153      4.023
REMARK  4 active torsions:
REMARK  status: ('A' for Active; 'I' for Inactive)
REMARK    1  A    between atoms: N_2  and  S_1 
REMARK    2  A    between atoms: C_4  and  S_1 
REMARK    3  A    between atoms: C_15  and  C_3 
REMARK    4  A    between atoms: O_16  and  C_12 
ROOT
ATOM      1  S   UNL d   1     -41.673-122.917 -50.594  0.00  0.00     0.273 S 
ATOM      2  O   UNL d   1     -42.018-122.172 -50.517  0.00  0.00    -0.200 OA
ATOM      3  O   UNL d   1     -41.328-123.663 -50.671  0.00  0.00    -0.200 OA
ENDROOT
BRANCH   1   4
ATOM      4  N   UNL d   1     -41.812-123.064 -49.791  0.00  0.00    -0.213 N 
ATOM      5  C   UNL d   1     -42.528-123.310 -49.461  0.00  0.00     0.157 A 
ATOM      6  N   UNL d   1     -42.415-123.388 -48.643  0.00  0.00    -0.226 NA
ATOM      7  C   UNL d   1     -41.632-123.191 -48.472  0.00  0.00     0.101 A 
ATOM      8  C   UNL d   1     -41.257-122.990 -49.183  0.00  0.00     0.112 A 
ATOM      9  C   UNL d   1     -41.282-123.193 -47.726  0.00  0.00     0.022 C 
BRANCH   5  10
ATOM     10  C   UNL d   1     -43.224-123.451 -49.870  0.00  0.00     0.038 C 
ATOM     11  C   UNL d   1     -43.925-123.572 -49.454  0.00  0.00     0.003 C 
ENDBRANCH   5  10
ENDBRANCH   1   4
BRANCH   1  12
ATOM     12  C   UNL d   1     -41.536-122.771 -51.394  0.00  0.00     0.106 A 
ATOM     13  C   UNL d   1     -41.669-123.365 -51.951  0.00  0.00     0.037 A 
ATOM     14  C   UNL d   1     -41.532-123.219 -52.751  0.00  0.00     0.095 A 
ATOM     15  C   UNL d   1     -41.260-122.478 -52.994  0.00  0.00     0.022 A 
ATOM     16  C   UNL d   1     -41.127-121.885 -52.437  0.00  0.00     0.003 A 
ATOM     17  C   UNL d   1     -41.123-122.331 -53.794  0.00  0.00     0.002 C 
ATOM     18  C   UNL d   1     -41.265-122.031 -51.638  0.00  0.00     0.012 A 
ATOM     19  C   UNL d   1     -41.134-121.446 -51.082  0.00  0.00     0.001 C 
BRANCH  14  20
ATOM     20  O   UNL d   1     -41.666-123.817 -53.309  0.00  0.00    -0.328 OA
ATOM     21  C   UNL d   1     -42.234-123.709 -53.897  0.00  0.00     0.181 C 
ENDBRANCH  14  20
ENDBRANCH   1  12
TORSDOF 4
ENDMDL
