MODEL 1
REMARK VINA RESULT:       0.7      0.000      0.000
REMARK  3 active torsions:
REMARK  status: ('A' for Active; 'I' for Inactive)
REMARK    1  A    between atoms: C_5  and  C_1 
REMARK    2  A    between atoms: N_6  and  C_5 
REMARK    3  A    between atoms: C_8  and  C_5 
ROOT
ATOM      1  C   UNL d   1      32.080  17.570 -23.709  0.00  0.00     0.083 C 
ENDROOT
BRANCH   1   2
ATOM      2  C   UNL d   1      32.497  18.315 -23.710  0.00  0.00     0.037 A 
ATOM      3  C   UNL d   1      32.934  18.615 -24.351  0.00  0.00     0.083 A 
ATOM      4  N   UNL d   1      33.241  19.335 -24.122  0.00  0.00    -0.245 NA
ATOM      5  C   UNL d   1      33.035  18.240 -25.097  0.00  0.00     0.021 C 
ATOM      6  C   UNL d   1      33.009  19.497 -23.349  0.00  0.00     0.081 A 
ATOM      7  C   UNL d   1      32.538  18.851 -23.088  0.00  0.00     0.021 A 
ATOM      8  C   UNL d   1      33.153  20.130 -22.848  0.00  0.00     0.019 A 
ATOM      9  C   UNL d   1      32.223  18.853 -22.332  0.00  0.00     0.002 A 
ATOM     10  C   UNL d   1      32.372  19.504 -21.818  0.00  0.00     0.000 A 
ATOM     11  C   UNL d   1      32.823  20.123 -22.068  0.00  0.00     0.002 A 
ENDBRANCH   1   2
BRANCH   1  12
ATOM     12  N   UNL d   1      31.291  17.523 -23.976  0.00  0.00    -0.302 N 
ATOM     13  C   UNL d   1      31.121  17.637 -24.776  0.00  0.00     0.080 A 
ATOM     14  C   UNL d   1      30.341  17.589 -25.033  0.00  0.00     0.019 A 
ATOM     15  C   UNL d   1      29.733  17.428 -24.498  0.00  0.00     0.003 A 
ATOM     16  C   UNL d   1      29.899  17.314 -23.701  0.00  0.00     0.019 A 
ATOM     17  C   UNL d   1      28.943  17.380 -24.765  0.00  0.00     0.000 C 
ATOM     18  C   UNL d   1      30.680  17.362 -23.443  0.00  0.00     0.080 A 
ENDBRANCH   1  12
BRANCH   1  19
ATOM     19  C   UNL d   1      32.475  16.873 -23.433  0.00  0.00     0.098 A 
ATOM     20  N   UNL d   1      32.489  16.694 -22.630  0.00  0.00    -0.243 NA
ATOM     21  C   UNL d   1      32.870  16.022 -22.356  0.00  0.00     0.099 A 
ATOM     22  C   UNL d   1      33.241  15.522 -22.894  0.00  0.00     0.021 A 
ATOM     23  C   UNL d   1      33.229  15.699 -23.700  0.00  0.00     0.003 A 
ATOM     24  C   UNL d   1      32.843  16.383 -23.989  0.00  0.00     0.021 A 
ENDBRANCH   1  19
TORSDOF 3
ENDMDL
MODEL 2
REMARK VINA RESULT:       1.8      1.107      3.119
REMARK  3 active torsions:
REMARK  status: ('A' for Active; 'I' for Inactive)
REMARK    1  A    between atoms: C_5  and  C_1 
REMARK    2  A    between atoms: N_6  and  C_5 
REMARK    3  A    between atoms: C_8  and  C_5 
ROOT
ATOM      1  C   UNL d   1      31.685  16.803 -23.879  0.00  0.00     0.083 C 
ENDROOT
BRANCH   1   2
ATOM      2  C   UNL d   1      30.977  16.496 -24.243  0.00  0.00     0.037 A 
ATOM      3  C   UNL d   1      30.956  15.880 -24.801  0.00  0.00     0.083 A 
ATOM      4  N   UNL d   1      30.176  15.760 -25.005  0.00  0.00    -0.245 NA
ATOM      5  C   UNL d   1      31.623  15.461 -25.097  0.00  0.00     0.021 C 
ATOM      6  C   UNL d   1      29.701  16.288 -24.588  0.00  0.00     0.081 A 
ATOM      7  C   UNL d   1      30.208  16.754 -24.106  0.00  0.00     0.021 A 
ATOM      8  C   UNL d   1      28.890  16.412 -24.575  0.00  0.00     0.019 A 
ATOM      9  C   UNL d   1      29.892  17.333 -23.621  0.00  0.00     0.002 A 
ATOM     10  C   UNL d   1      29.060  17.461 -23.609  0.00  0.00     0.000 A 
ATOM     11  C   UNL d   1      28.574  17.014 -24.071  0.00  0.00     0.002 A 
ENDBRANCH   1   2
BRANCH   1  12
ATOM     12  N   UNL d   1      31.992  17.546 -24.102  0.00  0.00    -0.302 N 
ATOM     13  C   UNL d   1      32.260  17.666 -24.873  0.00  0.00     0.080 A 
ATOM     14  C   UNL d   1      32.561  18.401 -25.087  0.00  0.00     0.019 A 
ATOM     15  C   UNL d   1      32.596  19.014 -24.536  0.00  0.00     0.003 A 
ATOM     16  C   UNL d   1      32.331  18.899 -23.767  0.00  0.00     0.019 A 
ATOM     17  C   UNL d   1      32.903  19.759 -24.758  0.00  0.00     0.000 C 
ATOM     18  C   UNL d   1      32.029  18.162 -23.552  0.00  0.00     0.080 A 
ENDBRANCH   1  12
BRANCH   1  19
ATOM     19  C   UNL d   1      32.079  16.344 -23.286  0.00  0.00     0.098 A 
ATOM     20  N   UNL d   1      31.697  16.162 -22.579  0.00  0.00    -0.243 NA
ATOM     21  C   UNL d   1      32.072  15.719 -22.001  0.00  0.00     0.099 A 
ATOM     22  C   UNL d   1      32.840  15.454 -22.132  0.00  0.00     0.021 A 
ATOM     23  C   UNL d   1      33.226  15.635 -22.839  0.00  0.00     0.003 A 
ATOM     24  C   UNL d   1      32.851  16.086 -23.435  0.00  0.00     0.021 A 
ENDBRANCH   1  19
TORSDOF 3
ENDMDL
