MODEL 1
REMARK VINA RESULT:      -3.5      0.000      0.000
REMARK  4 active torsions:
REMARK  status: ('A' for Active; 'I' for Inactive)
REMARK    1  A    between atoms: C_2  and  C_1 
REMARK    2  A    between atoms: N_8  and  C_3 
REMARK    3  A    between atoms: C_15  and  N_8 
REMARK    4  A    between atoms: O_18  and  C_16 
ROOT
ATOM      1  C   UNL d   1     -40.563  14.388  19.550  0.00  0.00     0.077 A 
ATOM      2  C   UNL d   1     -40.153  14.561  20.245  0.00  0.00     0.185 A 
ATOM      3  C   UNL d   1     -41.273  13.976  19.581  0.00  0.00     0.009 A 
ATOM      4  O   UNL d   1     -40.454  14.323  20.971  0.00  0.00    -0.289 OA
ATOM      5  C   UNL d   1     -41.578  13.735  20.311  0.00  0.00     0.025 A 
ATOM      6  C   UNL d   1     -41.169  13.908  21.006  0.00  0.00     0.102 A 
ATOM      7  C   UNL d   1     -42.272  13.335  20.330  0.00  0.00     0.026 A 
ATOM      8  C   UNL d   1     -41.453  13.681  21.720  0.00  0.00     0.027 A 
ATOM      9  C   UNL d   1     -42.581  13.091  21.062  0.00  0.00     0.094 A 
ATOM     10  C   UNL d   1     -42.172  13.264  21.757  0.00  0.00     0.026 A 
ENDROOT
BRANCH   1  11
ATOM     11  C   UNL d   1     -40.262  14.625  18.832  0.00  0.00     0.166 A 
ATOM     12  N   UNL d   1     -40.442  15.307  18.468  0.00  0.00    -0.225 NA
ATOM     13  C   UNL d   1     -40.049  15.358  17.778  0.00  0.00     0.101 A 
ATOM     14  C   UNL d   1     -40.008  15.922  17.168  0.00  0.00     0.021 A 
ATOM     15  C   UNL d   1     -39.599  14.657  17.718  0.00  0.00     0.101 A 
ATOM     16  C   UNL d   1     -39.510  15.765  16.507  0.00  0.00     0.002 A 
ATOM     17  C   UNL d   1     -39.065  15.060  16.459  0.00  0.00     0.002 A 
ATOM     18  C   UNL d   1     -39.096  14.522  17.027  0.00  0.00     0.021 A 
ATOM     19  N   UNL d   1     -39.748  14.203  18.398  0.00  0.00    -0.225 NA
ENDBRANCH   1  11
BRANCH   2  20
ATOM     20  N   UNL d   1     -39.439  14.975  20.211  0.00  0.00    -0.222 NA
BRANCH  20  21
ATOM     21  C   UNL d   1     -39.020  15.119  20.893  0.00  0.00     0.084 A 
ATOM     22  C   UNL d   1     -38.457  14.582  21.133  0.00  0.00     0.019 A 
ATOM     23  C   UNL d   1     -38.041  14.726  21.810  0.00  0.00     0.002 A 
ATOM     24  C   UNL d   1     -38.170  15.394  22.260  0.00  0.00     0.000 A 
ATOM     25  C   UNL d   1     -38.738  15.922  22.005  0.00  0.00     0.002 A 
ATOM     26  C   UNL d   1     -39.169  15.786  21.315  0.00  0.00     0.019 A 
ENDBRANCH  20  21
ENDBRANCH   2  20
BRANCH   9  27
ATOM     27  O   UNL d   1     -43.276  12.689  21.090  0.00  0.00    -0.328 OA
ATOM     28  C   UNL d   1     -43.839  12.899  21.604  0.00  0.00     0.181 C 
ENDBRANCH   9  27
TORSDOF 4
ENDMDL
MODEL 2
REMARK VINA RESULT:      -3.5      1.282      4.487
REMARK  4 active torsions:
REMARK  status: ('A' for Active; 'I' for Inactive)
REMARK    1  A    between atoms: C_2  and  C_1 
REMARK    2  A    between atoms: N_8  and  C_3 
REMARK    3  A    between atoms: C_15  and  N_8 
REMARK    4  A    between atoms: O_18  and  C_16 
ROOT
ATOM      1  C   UNL d   1     -39.542  14.751  20.565  0.00  0.00     0.077 A 
ATOM      2  C   UNL d   1     -40.332  14.520  20.508  0.00  0.00     0.185 A 
ATOM      3  C   UNL d   1     -39.094  14.858  19.885  0.00  0.00     0.009 A 
ATOM      4  O   UNL d   1     -40.674  14.395  19.772  0.00  0.00    -0.289 OA
ATOM      5  C   UNL d   1     -39.435  14.733  19.142  0.00  0.00     0.025 A 
ATOM      6  C   UNL d   1     -40.225  14.502  19.085  0.00  0.00     0.102 A 
ATOM      7  C   UNL d   1     -38.989  14.839  18.485  0.00  0.00     0.026 A 
ATOM      8  C   UNL d   1     -40.568  14.377  18.372  0.00  0.00     0.027 A 
ATOM      9  C   UNL d   1     -39.329  14.715  17.737  0.00  0.00     0.094 A 
ATOM     10  C   UNL d   1     -40.119  14.484  17.681  0.00  0.00     0.026 A 
ENDROOT
BRANCH   1  11
ATOM     11  C   UNL d   1     -39.206  14.874  21.296  0.00  0.00     0.166 A 
ATOM     12  N   UNL d   1     -38.765  14.343  21.687  0.00  0.00    -0.225 NA
ATOM     13  C   UNL d   1     -38.528  14.647  22.382  0.00  0.00     0.101 A 
ATOM     14  C   UNL d   1     -38.068  14.370  23.017  0.00  0.00     0.021 A 
ATOM     15  C   UNL d   1     -38.847  15.418  22.417  0.00  0.00     0.101 A 
ATOM     16  C   UNL d   1     -37.940  14.879  23.676  0.00  0.00     0.002 A 
ATOM     17  C   UNL d   1     -38.264  15.647  23.698  0.00  0.00     0.002 A 
ATOM     18  C   UNL d   1     -38.700  15.920  23.106  0.00  0.00     0.021 A 
ATOM     19  N   UNL d   1     -39.276  15.545  21.715  0.00  0.00    -0.225 NA
ENDBRANCH   1  11
BRANCH   2  20
ATOM     20  N   UNL d   1     -40.781  14.414  21.194  0.00  0.00    -0.222 NA
BRANCH  20  21
ATOM     21  C   UNL d   1     -41.499  14.033  21.154  0.00  0.00     0.084 A 
ATOM     22  C   UNL d   1     -41.518  13.220  21.177  0.00  0.00     0.019 A 
ATOM     23  C   UNL d   1     -42.231  12.842  21.138  0.00  0.00     0.002 A 
ATOM     24  C   UNL d   1     -42.932  13.255  21.076  0.00  0.00     0.000 A 
ATOM     25  C   UNL d   1     -42.896  14.070  21.054  0.00  0.00     0.002 A 
ATOM     26  C   UNL d   1     -42.173  14.466  21.094  0.00  0.00     0.019 A 
ENDBRANCH  20  21
ENDBRANCH   2  20
BRANCH   9  27
ATOM     27  O   UNL d   1     -38.888  14.820  17.074  0.00  0.00    -0.328 OA
ATOM     28  C   UNL d   1     -39.179  15.225  16.460  0.00  0.00     0.181 C 
ENDBRANCH   9  27
TORSDOF 4
ENDMDL
MODEL 3
REMARK VINA RESULT:      -2.3      1.462      3.974
REMARK  4 active torsions:
REMARK  status: ('A' for Active; 'I' for Inactive)
REMARK    1  A    between atoms: C_2  and  C_1 
REMARK    2  A    between atoms: N_8  and  C_3 
REMARK    3  A    between atoms: C_15  and  N_8 
REMARK    4  A    between atoms: O_18  and  C_16 
ROOT
ATOM      1  C   UNL d   1     -40.617  14.598  20.231  0.00  0.00     0.077 A 
ATOM      2  C   UNL d   1     -40.016  14.872  20.725  0.00  0.00     0.185 A 
ATOM      3  C   UNL d   1     -40.574  14.724  19.421  0.00  0.00     0.009 A 
ATOM      4  O   UNL d   1     -39.372  15.272  20.409  0.00  0.00    -0.289 OA
ATOM      5  C   UNL d   1     -39.928  15.127  19.099  0.00  0.00     0.025 A 
ATOM      6  C   UNL d   1     -39.326  15.400  19.593  0.00  0.00     0.102 A 
ATOM      7  C   UNL d   1     -39.896  15.244  18.307  0.00  0.00     0.026 A 
ATOM      8  C   UNL d   1     -38.693  15.792  19.295  0.00  0.00     0.027 A 
ATOM      9  C   UNL d   1     -39.247  15.648  17.981  0.00  0.00     0.094 A 
ATOM     10  C   UNL d   1     -38.645  15.922  18.475  0.00  0.00     0.026 A 
ENDROOT
BRANCH   1  11
ATOM     11  C   UNL d   1     -41.254  14.203  20.547  0.00  0.00     0.166 A 
ATOM     12  N   UNL d   1     -41.941  14.541  20.755  0.00  0.00    -0.225 NA
ATOM     13  C   UNL d   1     -42.438  13.992  21.043  0.00  0.00     0.101 A 
ATOM     14  C   UNL d   1     -43.214  14.003  21.343  0.00  0.00     0.021 A 
ATOM     15  C   UNL d   1     -42.024  13.267  21.010  0.00  0.00     0.101 A 
ATOM     16  C   UNL d   1     -43.556  13.279  21.602  0.00  0.00     0.002 A 
ATOM     17  C   UNL d   1     -43.132  12.561  21.563  0.00  0.00     0.002 A 
ATOM     18  C   UNL d   1     -42.400  12.538  21.283  0.00  0.00     0.021 A 
ATOM     19  N   UNL d   1     -41.271  13.422  20.691  0.00  0.00    -0.225 NA
ENDBRANCH   1  11
BRANCH   2  20
ATOM     20  N   UNL d   1     -40.061  14.744  21.540  0.00  0.00    -0.222 NA
BRANCH  20  21
ATOM     21  C   UNL d   1     -39.441  14.961  22.020  0.00  0.00     0.084 A 
ATOM     22  C   UNL d   1     -39.440  15.704  22.354  0.00  0.00     0.019 A 
ATOM     23  C   UNL d   1     -38.825  15.920  22.831  0.00  0.00     0.002 A 
ATOM     24  C   UNL d   1     -38.205  15.413  22.987  0.00  0.00     0.000 A 
ATOM     25  C   UNL d   1     -38.221  14.673  22.644  0.00  0.00     0.002 A 
ATOM     26  C   UNL d   1     -38.844  14.442  22.156  0.00  0.00     0.019 A 
ENDBRANCH  20  21
ENDBRANCH   2  20
BRANCH   9  27
ATOM     27  O   UNL d   1     -39.208  15.770  17.188  0.00  0.00    -0.328 OA
ATOM     28  C   UNL d   1     -38.519  15.701  16.806  0.00  0.00     0.181 C 
ENDBRANCH   9  27
TORSDOF 4
ENDMDL
MODEL 4
REMARK VINA RESULT:      -2.2      5.506      9.037
REMARK  4 active torsions:
REMARK  status: ('A' for Active; 'I' for Inactive)
REMARK    1  A    between atoms: C_2  and  C_1 
REMARK    2  A    between atoms: N_8  and  C_3 
REMARK    3  A    between atoms: C_15  and  N_8 
REMARK    4  A    between atoms: O_18  and  C_16 
ROOT
ATOM      1  C   UNL d   1     -47.633  13.738  22.836  0.00  0.00     0.077 A 
ATOM      2  C   UNL d   1     -47.643  13.044  23.281  0.00  0.00     0.185 A 
ATOM      3  C   UNL d   1     -46.957  13.954  22.424  0.00  0.00     0.009 A 
ATOM      4  O   UNL d   1     -46.976  12.565  23.314  0.00  0.00    -0.289 OA
ATOM      5  C   UNL d   1     -46.284  13.475  22.454  0.00  0.00     0.025 A 
ATOM      6  C   UNL d   1     -46.293  12.781  22.899  0.00  0.00     0.102 A 
ATOM      7  C   UNL d   1     -45.630  13.696  22.048  0.00  0.00     0.026 A 
ATOM      8  C   UNL d   1     -45.648  12.307  22.939  0.00  0.00     0.027 A 
ATOM      9  C   UNL d   1     -44.951  13.216  22.077  0.00  0.00     0.094 A 
ATOM     10  C   UNL d   1     -44.961  12.521  22.522  0.00  0.00     0.026 A 
ENDROOT
BRANCH   1  11
ATOM     11  C   UNL d   1     -48.296  14.210  22.805  0.00  0.00     0.166 A 
ATOM     12  N   UNL d   1     -48.509  14.729  23.367  0.00  0.00    -0.225 NA
ATOM     13  C   UNL d   1     -49.184  15.094  23.156  0.00  0.00     0.101 A 
ATOM     14  C   UNL d   1     -49.668  15.675  23.502  0.00  0.00     0.021 A 
ATOM     15  C   UNL d   1     -49.396  14.774  22.414  0.00  0.00     0.101 A 
ATOM     16  C   UNL d   1     -50.359  15.922  23.089  0.00  0.00     0.002 A 
ATOM     17  C   UNL d   1     -50.560  15.595  22.348  0.00  0.00     0.002 A 
ATOM     18  C   UNL d   1     -50.111  15.047  22.012  0.00  0.00     0.021 A 
ATOM     19  N   UNL d   1     -48.818  14.213  22.207  0.00  0.00    -0.225 NA
ENDBRANCH   1  11
BRANCH   2  20
ATOM     20  N   UNL d   1     -48.324  12.828  23.696  0.00  0.00    -0.222 NA
BRANCH  20  21
ATOM     21  C   UNL d   1     -48.579  12.056  23.686  0.00  0.00     0.084 A 
ATOM     22  C   UNL d   1     -48.027  11.457  23.697  0.00  0.00     0.019 A 
ATOM     23  C   UNL d   1     -48.280  10.690  23.687  0.00  0.00     0.002 A 
ATOM     24  C   UNL d   1     -49.073  10.499  23.667  0.00  0.00     0.000 A 
ATOM     25  C   UNL d   1     -49.613  11.111  23.657  0.00  0.00     0.002 A 
ATOM     26  C   UNL d   1     -49.366  11.898  23.666  0.00  0.00     0.019 A 
ENDBRANCH  20  21
ENDBRANCH   2  20
BRANCH   9  27
ATOM     27  O   UNL d   1     -44.291  13.430  21.672  0.00  0.00    -0.328 OA
ATOM     28  C   UNL d   1     -43.740  12.892  21.494  0.00  0.00     0.181 C 
ENDBRANCH   9  27
TORSDOF 4
ENDMDL
MODEL 5
REMARK VINA RESULT:      -2.1      6.860      8.798
REMARK  4 active torsions:
REMARK  status: ('A' for Active; 'I' for Inactive)
REMARK    1  A    between atoms: C_2  and  C_1 
REMARK    2  A    between atoms: N_8  and  C_3 
REMARK    3  A    between atoms: C_15  and  N_8 
REMARK    4  A    between atoms: O_18  and  C_16 
ROOT
ATOM      1  C   UNL d   1     -47.566  11.863  23.210  0.00  0.00     0.077 A 
ATOM      2  C   UNL d   1     -47.096  12.541  23.218  0.00  0.00     0.185 A 
ATOM      3  C   UNL d   1     -47.223  11.123  23.305  0.00  0.00     0.009 A 
ATOM      4  O   UNL d   1     -46.284  12.480  23.321  0.00  0.00    -0.289 OA
ATOM      5  C   UNL d   1     -46.405  11.057  23.409  0.00  0.00     0.025 A 
ATOM      6  C   UNL d   1     -45.935  11.735  23.417  0.00  0.00     0.102 A 
ATOM      7  C   UNL d   1     -46.081  10.330  23.500  0.00  0.00     0.026 A 
ATOM      8  C   UNL d   1     -45.142  11.687  23.516  0.00  0.00     0.027 A 
ATOM      9  C   UNL d   1     -45.259  10.261  23.605  0.00  0.00     0.094 A 
ATOM     10  C   UNL d   1     -44.789  10.939  23.613  0.00  0.00     0.026 A 
ENDROOT
BRANCH   1  11
ATOM     11  C   UNL d   1     -48.370  11.927  23.108  0.00  0.00     0.166 A 
ATOM     12  N   UNL d   1     -48.732  12.030  22.409  0.00  0.00    -0.225 NA
ATOM     13  C   UNL d   1     -49.519  12.070  22.514  0.00  0.00     0.101 A 
ATOM     14  C   UNL d   1     -50.174  12.170  22.010  0.00  0.00     0.021 A 
ATOM     15  C   UNL d   1     -49.646  11.984  23.335  0.00  0.00     0.101 A 
ATOM     16  C   UNL d   1     -50.945  12.182  22.349  0.00  0.00     0.002 A 
ATOM     17  C   UNL d   1     -51.058  12.096  23.171  0.00  0.00     0.002 A 
ATOM     18  C   UNL d   1     -50.449  12.001  23.656  0.00  0.00     0.021 A 
ATOM     19  N   UNL d   1     -48.902  11.895  23.697  0.00  0.00    -0.225 NA
ENDBRANCH   1  11
BRANCH   2  20
ATOM     20  N   UNL d   1     -47.444  13.285  23.122  0.00  0.00    -0.222 NA
BRANCH  20  21
ATOM     21  C   UNL d   1     -47.004  13.904  22.832  0.00  0.00     0.084 A 
ATOM     22  C   UNL d   1     -46.902  14.567  23.292  0.00  0.00     0.019 A 
ATOM     23  C   UNL d   1     -46.465  15.183  23.004  0.00  0.00     0.002 A 
ATOM     24  C   UNL d   1     -46.124  15.157  22.264  0.00  0.00     0.000 A 
ATOM     25  C   UNL d   1     -46.235  14.485  21.815  0.00  0.00     0.002 A 
ATOM     26  C   UNL d   1     -46.680  13.850  22.099  0.00  0.00     0.019 A 
ENDBRANCH  20  21
ENDBRANCH   2  20
BRANCH   9  27
ATOM     27  O   UNL d   1     -44.926   9.536  23.697  0.00  0.00    -0.328 OA
ATOM     28  C   UNL d   1     -44.172   9.413  23.493  0.00  0.00     0.181 C 
ENDBRANCH   9  27
TORSDOF 4
ENDMDL
MODEL 6
REMARK VINA RESULT:      -2.1      6.634      8.187
REMARK  4 active torsions:
REMARK  status: ('A' for Active; 'I' for Inactive)
REMARK    1  A    between atoms: C_2  and  C_1 
REMARK    2  A    between atoms: N_8  and  C_3 
REMARK    3  A    between atoms: C_15  and  N_8 
REMARK    4  A    between atoms: O_18  and  C_16 
ROOT
ATOM      1  C   UNL d   1     -46.804  11.650  23.362  0.00  0.00     0.077 A 
ATOM      2  C   UNL d   1     -46.849  12.451  23.170  0.00  0.00     0.185 A 
ATOM      3  C   UNL d   1     -47.490  11.222  23.507  0.00  0.00     0.009 A 
ATOM      4  O   UNL d   1     -47.578  12.824  23.122  0.00  0.00    -0.289 OA
ATOM      5  C   UNL d   1     -48.227  11.595  23.460  0.00  0.00     0.025 A 
ATOM      6  C   UNL d   1     -48.271  12.396  23.267  0.00  0.00     0.102 A 
ATOM      7  C   UNL d   1     -48.890  11.168  23.603  0.00  0.00     0.026 A 
ATOM      8  C   UNL d   1     -48.978  12.770  23.217  0.00  0.00     0.027 A 
ATOM      9  C   UNL d   1     -49.632  11.540  23.556  0.00  0.00     0.094 A 
ATOM     10  C   UNL d   1     -49.676  12.341  23.363  0.00  0.00     0.026 A 
ENDROOT
BRANCH   1  11
ATOM     11  C   UNL d   1     -46.080  11.283  23.409  0.00  0.00     0.166 A 
ATOM     12  N   UNL d   1     -45.971  10.513  23.569  0.00  0.00    -0.225 NA
ATOM     13  C   UNL d   1     -45.194  10.344  23.571  0.00  0.00     0.101 A 
ATOM     14  C   UNL d   1     -44.744   9.656  23.698  0.00  0.00     0.021 A 
ATOM     15  C   UNL d   1     -44.802  11.062  23.401  0.00  0.00     0.101 A 
ATOM     16  C   UNL d   1     -43.905   9.708  23.650  0.00  0.00     0.002 A 
ATOM     17  C   UNL d   1     -43.525  10.431  23.480  0.00  0.00     0.002 A 
ATOM     18  C   UNL d   1     -43.938  11.087  23.358  0.00  0.00     0.021 A 
ATOM     19  N   UNL d   1     -45.383  11.648  23.301  0.00  0.00    -0.225 NA
ENDBRANCH   1  11
BRANCH   2  20
ATOM     20  N   UNL d   1     -46.157  12.879  23.025  0.00  0.00    -0.222 NA
BRANCH  20  21
ATOM     21  C   UNL d   1     -46.202  13.656  22.788  0.00  0.00     0.084 A 
ATOM     22  C   UNL d   1     -46.437  13.825  22.027  0.00  0.00     0.019 A 
ATOM     23  C   UNL d   1     -46.482  14.597  21.792  0.00  0.00     0.002 A 
ATOM     24  C   UNL d   1     -46.299  15.210  22.297  0.00  0.00     0.000 A 
ATOM     25  C   UNL d   1     -46.065  15.024  23.056  0.00  0.00     0.002 A 
ATOM     26  C   UNL d   1     -46.015  14.240  23.307  0.00  0.00     0.019 A 
ENDBRANCH  20  21
ENDBRANCH   2  20
BRANCH   9  27
ATOM     27  O   UNL d   1     -50.301  11.119  23.698  0.00  0.00    -0.328 OA
ATOM     28  C   UNL d   1     -51.007  11.476  23.691  0.00  0.00     0.181 C 
ENDBRANCH   9  27
TORSDOF 4
ENDMDL
MODEL 7
REMARK VINA RESULT:      -1.3      2.287      3.480
REMARK  4 active torsions:
REMARK  status: ('A' for Active; 'I' for Inactive)
REMARK    1  A    between atoms: C_2  and  C_1 
REMARK    2  A    between atoms: N_8  and  C_3 
REMARK    3  A    between atoms: C_15  and  N_8 
REMARK    4  A    between atoms: O_18  and  C_16 
ROOT
ATOM      1  C   UNL d   1     -39.461  14.643  18.796  0.00  0.00     0.077 A 
ATOM      2  C   UNL d   1     -38.968  13.994  18.667  0.00  0.00     0.185 A 
ATOM      3  C   UNL d   1     -39.487  15.000  19.535  0.00  0.00     0.009 A 
ATOM      4  O   UNL d   1     -38.502  13.701  19.277  0.00  0.00    -0.289 OA
ATOM      5  C   UNL d   1     -39.019  14.709  20.151  0.00  0.00     0.025 A 
ATOM      6  C   UNL d   1     -38.527  14.059  20.022  0.00  0.00     0.102 A 
ATOM      7  C   UNL d   1     -39.052  15.065  20.868  0.00  0.00     0.026 A 
ATOM      8  C   UNL d   1     -38.067  13.766  20.610  0.00  0.00     0.027 A 
ATOM      9  C   UNL d   1     -38.583  14.774  21.489  0.00  0.00     0.094 A 
ATOM     10  C   UNL d   1     -38.090  14.125  21.360  0.00  0.00     0.026 A 
ENDROOT
BRANCH   1  11
ATOM     11  C   UNL d   1     -39.921  14.930  18.190  0.00  0.00     0.166 A 
ATOM     12  N   UNL d   1     -40.711  15.004  18.217  0.00  0.00    -0.225 NA
ATOM     13  C   UNL d   1     -40.979  15.302  17.530  0.00  0.00     0.101 A 
ATOM     14  C   UNL d   1     -41.729  15.501  17.229  0.00  0.00     0.021 A 
ATOM     15  C   UNL d   1     -40.304  15.417  17.051  0.00  0.00     0.101 A 
ATOM     16  C   UNL d   1     -41.781  15.812  16.449  0.00  0.00     0.002 A 
ATOM     17  C   UNL d   1     -41.100  15.922  15.980  0.00  0.00     0.002 A 
ATOM     18  C   UNL d   1     -40.387  15.739  16.252  0.00  0.00     0.021 A 
ATOM     19  N   UNL d   1     -39.640  15.174  17.489  0.00  0.00    -0.225 NA
ENDBRANCH   1  11
BRANCH   2  20
ATOM     20  N   UNL d   1     -38.944  13.635  17.922  0.00  0.00    -0.222 NA
BRANCH  20  21
ATOM     21  C   UNL d   1     -38.610  12.899  17.837  0.00  0.00     0.084 A 
ATOM     22  C   UNL d   1     -38.435  12.628  17.090  0.00  0.00     0.019 A 
ATOM     23  C   UNL d   1     -38.104  11.896  17.004  0.00  0.00     0.002 A 
ATOM     24  C   UNL d   1     -37.940  11.422  17.648  0.00  0.00     0.000 A 
ATOM     25  C   UNL d   1     -38.121  11.708  18.390  0.00  0.00     0.002 A 
ATOM     26  C   UNL d   1     -38.460  12.454  18.489  0.00  0.00     0.019 A 
ENDBRANCH  20  21
ENDBRANCH   2  20
BRANCH   9  27
ATOM     27  O   UNL d   1     -38.610  15.125  22.211  0.00  0.00    -0.328 OA
ATOM     28  C   UNL d   1     -38.703  14.690  22.865  0.00  0.00     0.181 C 
ENDBRANCH   9  27
TORSDOF 4
ENDMDL
