MODEL 1
REMARK VINA RESULT:      -1.1      0.000      0.000
REMARK  5 active torsions:
REMARK  status: ('A' for Active; 'I' for Inactive)
REMARK    1  A    between atoms: C_10  and  N_1 
REMARK    2  A    between atoms: S_7  and  C_4 
REMARK    3  A    between atoms: C_9  and  C_6 
REMARK    4  A    between atoms: C_8  and  S_7 
REMARK    5  A    between atoms: N_14  and  C_13 
ROOT
ATOM      1  N   UNL d   1      57.062  -0.440  31.850  0.00  0.00    -0.241 N 
ATOM      2  C   UNL d   1      56.500  -1.008  31.905  0.00  0.00     0.268 A 
ATOM      3  C   UNL d   1      57.070   0.030  32.519  0.00  0.00     0.273 A 
ATOM      4  C   UNL d   1      56.480  -0.263  33.017  0.00  0.00     0.091 A 
ATOM      5  C   UNL d   1      56.126  -0.910  32.633  0.00  0.00     0.072 A 
ATOM      6  O   UNL d   1      56.349  -1.572  31.325  0.00  0.00    -0.267 OA
ATOM      7  O   UNL d   1      57.583   0.681  32.660  0.00  0.00    -0.266 OA
ENDROOT
BRANCH   4   8
ATOM      8  S   UNL d   1      56.355   0.097  33.735  0.00  0.00    -0.082 SA
BRANCH   8   9
ATOM      9  C   UNL d   1      55.579   0.297  33.993  0.00  0.00     0.035 A 
ATOM     10  C   UNL d   1      55.419   0.436  34.810  0.00  0.00     0.070 A 
ATOM     11  C   UNL d   1      54.646   0.628  35.018  0.00  0.00     0.007 A 
ATOM     12  C   UNL d   1      54.050   0.680  34.434  0.00  0.00     0.000 A 
ATOM     13  C   UNL d   1      54.230   0.537  33.625  0.00  0.00     0.001 A 
ATOM     14  C   UNL d   1      54.994   0.346  33.412  0.00  0.00     0.007 A 
BRANCH  10  15
ATOM     15  C   UNL d   1      55.998   0.384  35.365  0.00  0.00     0.211 C 
ATOM     16  O   UNL d   1      55.837   0.036  36.089  0.00  0.00    -0.644 OA
ATOM     17  O   UNL d   1      56.758   0.666  35.246  0.00  0.00    -0.644 OA
ENDBRANCH  10  15
ENDBRANCH   8   9
ENDBRANCH   4   8
BRANCH   1  18
ATOM     18  C   UNL d   1      57.557  -0.391  31.148  0.00  0.00     0.070 A 
ATOM     19  C   UNL d   1      57.768  -1.064  30.750  0.00  0.00     0.019 A 
ATOM     20  C   UNL d   1      58.246  -0.999  30.073  0.00  0.00     0.019 A 
ATOM     21  C   UNL d   1      58.498  -0.258  29.817  0.00  0.00     0.064 A 
ATOM     22  C   UNL d   1      58.281   0.427  30.227  0.00  0.00     0.019 A 
ATOM     23  C   UNL d   1      57.808   0.365  30.895  0.00  0.00     0.019 A 
BRANCH  21  24
ATOM     24  N   UNL d   1      58.968  -0.194  29.154  0.00  0.00    -0.301 N 
ATOM     25  C   UNL d   1      59.413   0.493  29.037  0.00  0.00     0.100 C 
ATOM     26  C   UNL d   1      58.989  -0.808  28.617  0.00  0.00     0.100 C 
ENDBRANCH  21  24
ENDBRANCH   1  18
TORSDOF 5
ENDMDL
MODEL 2
REMARK VINA RESULT:      -0.9      1.709      5.317
REMARK  5 active torsions:
REMARK  status: ('A' for Active; 'I' for Inactive)
REMARK    1  A    between atoms: C_10  and  N_1 
REMARK    2  A    between atoms: S_7  and  C_4 
REMARK    3  A    between atoms: C_9  and  C_6 
REMARK    4  A    between atoms: C_8  and  S_7 
REMARK    5  A    between atoms: N_14  and  C_13 
ROOT
ATOM      1  N   UNL d   1      57.393   0.605  32.524  0.00  0.00    -0.241 N 
ATOM      2  C   UNL d   1      58.160   0.641  32.753  0.00  0.00     0.268 A 
ATOM      3  C   UNL d   1      57.334   0.570  31.710  0.00  0.00     0.273 A 
ATOM      4  C   UNL d   1      58.106   0.585  31.417  0.00  0.00     0.091 A 
ATOM      5  C   UNL d   1      58.620   0.630  32.069  0.00  0.00     0.072 A 
ATOM      6  O   UNL d   1      58.411   0.682  33.535  0.00  0.00    -0.267 OA
ATOM      7  O   UNL d   1      56.620   0.527  31.268  0.00  0.00    -0.266 OA
ENDROOT
BRANCH   4   8
ATOM      8  S   UNL d   1      58.224   0.557  30.613  0.00  0.00    -0.082 SA
BRANCH   8   9
ATOM      9  C   UNL d   1      58.944   0.267  30.288  0.00  0.00     0.035 A 
ATOM     10  C   UNL d   1      58.961  -0.086  29.522  0.00  0.00     0.070 A 
ATOM     11  C   UNL d   1      59.686  -0.356  29.244  0.00  0.00     0.007 A 
ATOM     12  C   UNL d   1      60.375  -0.279  29.711  0.00  0.00     0.000 A 
ATOM     13  C   UNL d   1      60.338   0.076  30.472  0.00  0.00     0.001 A 
ATOM     14  C   UNL d   1      59.622   0.347  30.754  0.00  0.00     0.007 A 
BRANCH  10  15
ATOM     15  C   UNL d   1      58.293  -0.157  29.079  0.00  0.00     0.211 C 
ATOM     16  O   UNL d   1      57.995  -0.901  28.912  0.00  0.00    -0.644 OA
ATOM     17  O   UNL d   1      57.884   0.486  28.779  0.00  0.00    -0.644 OA
ENDBRANCH  10  15
ENDBRANCH   8   9
ENDBRANCH   4   8
BRANCH   1  18
ATOM     18  C   UNL d   1      56.768   0.606  33.113  0.00  0.00     0.070 A 
ATOM     19  C   UNL d   1      55.994   0.675  32.885  0.00  0.00     0.019 A 
ATOM     20  C   UNL d   1      55.400   0.675  33.468  0.00  0.00     0.019 A 
ATOM     21  C   UNL d   1      55.604   0.606  34.263  0.00  0.00     0.064 A 
ATOM     22  C   UNL d   1      56.395   0.535  34.491  0.00  0.00     0.019 A 
ATOM     23  C   UNL d   1      56.984   0.535  33.918  0.00  0.00     0.019 A 
BRANCH  21  24
ATOM     24  N   UNL d   1      55.023   0.605  34.834  0.00  0.00    -0.301 N 
ATOM     25  C   UNL d   1      54.231   0.537  34.606  0.00  0.00     0.100 C 
ATOM     26  C   UNL d   1      55.232   0.673  35.620  0.00  0.00     0.100 C 
ENDBRANCH  21  24
ENDBRANCH   1  18
TORSDOF 5
ENDMDL
MODEL 3
REMARK VINA RESULT:      -0.8      1.531      2.339
REMARK  5 active torsions:
REMARK  status: ('A' for Active; 'I' for Inactive)
REMARK    1  A    between atoms: C_10  and  N_1 
REMARK    2  A    between atoms: S_7  and  C_4 
REMARK    3  A    between atoms: C_9  and  C_6 
REMARK    4  A    between atoms: C_8  and  S_7 
REMARK    5  A    between atoms: N_14  and  C_13 
ROOT
ATOM      1  N   UNL d   1      57.945  -0.667  30.672  0.00  0.00    -0.241 N 
ATOM      2  C   UNL d   1      58.041   0.128  30.646  0.00  0.00     0.268 A 
ATOM      3  C   UNL d   1      57.384  -0.874  31.230  0.00  0.00     0.273 A 
ATOM      4  C   UNL d   1      57.119  -0.170  31.568  0.00  0.00     0.091 A 
ATOM      5  C   UNL d   1      57.529   0.455  31.204  0.00  0.00     0.072 A 
ATOM      6  O   UNL d   1      58.563   0.518  30.144  0.00  0.00    -0.267 OA
ATOM      7  O   UNL d   1      57.136  -1.656  31.414  0.00  0.00    -0.266 OA
ENDROOT
BRANCH   4   8
ATOM      8  S   UNL d   1      56.551  -0.201  32.150  0.00  0.00    -0.082 SA
BRANCH   8   9
ATOM      9  C   UNL d   1      56.703   0.094  32.924  0.00  0.00     0.035 A 
ATOM     10  C   UNL d   1      56.101   0.086  33.515  0.00  0.00     0.070 A 
ATOM     11  C   UNL d   1      56.293   0.384  34.257  0.00  0.00     0.007 A 
ATOM     12  C   UNL d   1      57.059   0.682  34.409  0.00  0.00     0.000 A 
ATOM     13  C   UNL d   1      57.646   0.682  33.806  0.00  0.00     0.001 A 
ATOM     14  C   UNL d   1      57.462   0.387  33.068  0.00  0.00     0.007 A 
BRANCH  10  15
ATOM     15  C   UNL d   1      55.367  -0.203  33.360  0.00  0.00     0.211 C 
ATOM     16  O   UNL d   1      55.250  -1.012  33.313  0.00  0.00    -0.644 OA
ATOM     17  O   UNL d   1      54.713   0.277  33.244  0.00  0.00    -0.644 OA
ENDBRANCH  10  15
ENDBRANCH   8   9
ENDBRANCH   4   8
BRANCH   1  18
ATOM     18  C   UNL d   1      58.404  -1.173  30.152  0.00  0.00     0.070 A 
ATOM     19  C   UNL d   1      58.064  -1.494  29.490  0.00  0.00     0.019 A 
ATOM     20  C   UNL d   1      58.523  -1.982  28.997  0.00  0.00     0.019 A 
ATOM     21  C   UNL d   1      59.310  -2.132  29.185  0.00  0.00     0.064 A 
ATOM     22  C   UNL d   1      59.653  -1.803  29.861  0.00  0.00     0.019 A 
ATOM     23  C   UNL d   1      59.203  -1.321  30.350  0.00  0.00     0.019 A 
BRANCH  21  24
ATOM     24  N   UNL d   1      59.760  -2.611  28.702  0.00  0.00    -0.301 N 
ATOM     25  C   UNL d   1      60.505  -2.351  28.455  0.00  0.00     0.100 C 
ATOM     26  C   UNL d   1      59.467  -3.337  28.470  0.00  0.00     0.100 C 
ENDBRANCH  21  24
ENDBRANCH   1  18
TORSDOF 5
ENDMDL
MODEL 4
REMARK VINA RESULT:       0.8      2.170      5.658
REMARK  5 active torsions:
REMARK  status: ('A' for Active; 'I' for Inactive)
REMARK    1  A    between atoms: C_10  and  N_1 
REMARK    2  A    between atoms: S_7  and  C_4 
REMARK    3  A    between atoms: C_9  and  C_6 
REMARK    4  A    between atoms: C_8  and  S_7 
REMARK    5  A    between atoms: N_14  and  C_13 
ROOT
ATOM      1  N   UNL d   1      57.712  -0.523  30.696  0.00  0.00    -0.241 N 
ATOM      2  C   UNL d   1      57.678  -0.043  30.056  0.00  0.00     0.268 A 
ATOM      3  C   UNL d   1      58.139  -1.200  30.531  0.00  0.00     0.273 A 
ATOM      4  C   UNL d   1      58.385  -1.136  29.745  0.00  0.00     0.091 A 
ATOM      5  C   UNL d   1      58.097  -0.415  29.450  0.00  0.00     0.072 A 
ATOM      6  O   UNL d   1      57.290   0.682  30.036  0.00  0.00    -0.267 OA
ATOM      7  O   UNL d   1      58.293  -1.831  31.066  0.00  0.00    -0.266 OA
ENDROOT
BRANCH   4   8
ATOM      8  S   UNL d   1      58.828  -1.737  29.421  0.00  0.00    -0.082 SA
BRANCH   8   9
ATOM      9  C   UNL d   1      59.588  -1.588  29.090  0.00  0.00     0.035 A 
ATOM     10  C   UNL d   1      60.089  -2.225  28.857  0.00  0.00     0.070 A 
ATOM     11  C   UNL d   1      60.823  -2.034  28.539  0.00  0.00     0.007 A 
ATOM     12  C   UNL d   1      61.054  -1.235  28.455  0.00  0.00     0.000 A 
ATOM     13  C   UNL d   1      60.540  -0.614  28.693  0.00  0.00     0.001 A 
ATOM     14  C   UNL d   1      59.810  -0.796  29.010  0.00  0.00     0.007 A 
BRANCH  10  15
ATOM     15  C   UNL d   1      59.859  -2.991  28.942  0.00  0.00     0.211 C 
ATOM     16  O   UNL d   1      59.265  -3.292  28.465  0.00  0.00    -0.644 OA
ATOM     17  O   UNL d   1      60.193  -3.500  29.490  0.00  0.00    -0.644 OA
ENDBRANCH  10  15
ENDBRANCH   8   9
ENDBRANCH   4   8
BRANCH   1  18
ATOM     18  C   UNL d   1      57.325  -0.292  31.428  0.00  0.00     0.070 A 
ATOM     19  C   UNL d   1      57.677   0.244  31.923  0.00  0.00     0.019 A 
ATOM     20  C   UNL d   1      57.290   0.457  32.628  0.00  0.00     0.019 A 
ATOM     21  C   UNL d   1      56.559   0.124  32.812  0.00  0.00     0.064 A 
ATOM     22  C   UNL d   1      56.204  -0.422  32.303  0.00  0.00     0.019 A 
ATOM     23  C   UNL d   1      56.584  -0.634  31.607  0.00  0.00     0.019 A 
BRANCH  21  24
ATOM     24  N   UNL d   1      56.179   0.333  33.502  0.00  0.00    -0.301 N 
ATOM     25  C   UNL d   1      55.360   0.236  33.559  0.00  0.00     0.100 C 
ATOM     26  C   UNL d   1      56.613   0.634  34.124  0.00  0.00     0.100 C 
ENDBRANCH  21  24
ENDBRANCH   1  18
TORSDOF 5
ENDMDL
