MODEL 1
REMARK VINA RESULT:      55.2      0.000      0.000
REMARK  5 active torsions:
REMARK  status: ('A' for Active; 'I' for Inactive)
REMARK    1  A    between atoms: C_8  and  N_1 
REMARK    2  A    between atoms: C_6  and  C_2 
REMARK    3  A    between atoms: C_9  and  C_6 
REMARK    4  A    between atoms: C_7  and  C_9 
REMARK    5  A    between atoms: C_14  and  C_8 
ROOT
ATOM      1  N   UNL d   1     -58.309 -98.788 -44.173  0.00  0.00    -0.289 N 
ATOM      2  C   UNL d   1     -59.014 -98.794 -43.752  0.00  0.00     0.148 A 
ATOM      3  N   UNL d   1     -59.647 -98.822 -44.316  0.00  0.00    -0.227 NA
ATOM      4  C   UNL d   1     -58.466 -98.810 -44.992  0.00  0.00     0.083 A 
ATOM      5  C   UNL d   1     -59.319 -98.832 -45.053  0.00  0.00     0.099 A 
ATOM      6  C   UNL d   1     -57.980 -98.815 -45.659  0.00  0.00     0.019 A 
ATOM      7  C   UNL d   1     -59.649 -98.858 -45.836  0.00  0.00     0.021 A 
ATOM      8  C   UNL d   1     -58.317 -98.840 -46.383  0.00  0.00     0.002 A 
ATOM      9  C   UNL d   1     -59.138 -98.861 -46.471  0.00  0.00     0.002 A 
ENDROOT
BRANCH   1  10
ATOM     10  C   UNL d   1     -57.665 -98.761 -43.690  0.00  0.00     0.082 C 
BRANCH  10  11
ATOM     11  C   UNL d   1     -56.992 -99.171 -43.907  0.00  0.00     0.018 A 
ATOM     12  C   UNL d   1     -56.965 -99.992 -43.843  0.00  0.00     0.002 A 
ATOM     13  C   UNL d   1     -56.256-100.401 -44.074  0.00  0.00     0.000 A 
ATOM     14  C   UNL d   1     -55.602 -99.987 -44.359  0.00  0.00     0.000 A 
ATOM     15  C   UNL d   1     -55.629 -99.166 -44.423  0.00  0.00     0.000 A 
ATOM     16  C   UNL d   1     -54.943-100.397 -44.571  0.00  0.00     0.000 C 
ATOM     17  C   UNL d   1     -56.310 -98.757 -44.203  0.00  0.00     0.002 A 
ENDBRANCH  10  11
ENDBRANCH   1  10
BRANCH   2  18
ATOM     18  C   UNL d   1     -59.318 -98.783 -42.985  0.00  0.00     0.039 C 
BRANCH  18  19
ATOM     19  C   UNL d   1     -59.042 -99.318 -42.432  0.00  0.00     0.028 C 
BRANCH  19  20
ATOM     20  C   UNL d   1     -59.285 -99.258 -41.643  0.00  0.00     0.100 A 
ATOM     21  O   UNL d   1     -58.969 -98.760 -41.066  0.00  0.00    -0.305 OA
ATOM     22  C   UNL d   1     -59.386 -98.892 -40.364  0.00  0.00     0.123 A 
ATOM     23  C   UNL d   1     -59.961 -99.468 -40.497  0.00  0.00     0.029 A 
ATOM     24  C   UNL d   1     -59.889 -99.691 -41.302  0.00  0.00     0.027 A 
ENDBRANCH  19  20
ENDBRANCH  18  19
ENDBRANCH   2  18
TORSDOF 5
ENDMDL
