MODEL 1
REMARK VINA RESULT:      56.3      0.000      0.000
REMARK  2 active torsions:
REMARK  status: ('A' for Active; 'I' for Inactive)
REMARK    1  A    between atoms: C_2  and  C_1 
REMARK    2  A    between atoms: C_14  and  N_5 
ROOT
ATOM      1  C   UNL d   1      59.535  49.611  50.985  0.00  0.00     0.117 A 
ATOM      2  N   UNL d   1      59.810  49.596  51.777  0.00  0.00    -0.164 NA
ATOM      3  C   UNL d   1      60.184  49.652  50.491  0.00  0.00     0.107 A 
ATOM      4  N   UNL d   1      60.619  49.628  51.755  0.00  0.00    -0.228 N 
ATOM      5  C   UNL d   1      60.855  49.663  50.955  0.00  0.00     0.112 A 
ATOM      6  C   UNL d   1      60.180  49.679  49.657  0.00  0.00     0.104 C 
ATOM      7  N   UNL d   1      60.174  49.705  48.828  0.00  0.00    -0.191 NA
ENDROOT
BRANCH   1   8
ATOM      8  C   UNL d   1      58.723  49.586  50.788  0.00  0.00     0.084 A 
ATOM      9  C   UNL d   1      58.153  49.483  51.403  0.00  0.00     0.302 A 
ATOM     10  O   UNL d   1      57.364  49.457  51.229  0.00  0.00    -0.273 OA
ATOM     11  O   UNL d   1      58.396  49.409  52.186  0.00  0.00    -0.259 OA
ATOM     12  C   UNL d   1      57.098  49.530  50.443  0.00  0.00     0.103 A 
ATOM     13  C   UNL d   1      57.659  49.631  49.843  0.00  0.00     0.023 A 
ATOM     14  C   UNL d   1      56.304  49.502  50.278  0.00  0.00     0.025 A 
ATOM     15  C   UNL d   1      58.465  49.658  50.015  0.00  0.00     0.009 A 
ATOM     16  C   UNL d   1      57.394  49.703  49.063  0.00  0.00     0.002 A 
ATOM     17  C   UNL d   1      56.595  49.675  48.903  0.00  0.00     0.000 A 
ATOM     18  C   UNL d   1      56.041  49.575  49.499  0.00  0.00     0.002 A 
ENDBRANCH   1   8
BRANCH   4  19
ATOM     19  C   UNL d   1      61.103  49.625  52.427  0.00  0.00     0.083 A 
ATOM     20  C   UNL d   1      61.922  49.546  52.356  0.00  0.00     0.019 A 
ATOM     21  C   UNL d   1      62.392  49.545  53.026  0.00  0.00     0.002 A 
ATOM     22  C   UNL d   1      62.050  49.621  53.764  0.00  0.00     0.000 A 
ATOM     23  C   UNL d   1      61.215  49.703  53.856  0.00  0.00     0.002 A 
ATOM     24  C   UNL d   1      60.747  49.703  53.167  0.00  0.00     0.019 A 
ENDBRANCH   4  19
TORSDOF 2
ENDMDL
