MODEL 1
REMARK VINA RESULT:     -10.5      0.000      0.000
REMARK  3 active torsions:
REMARK  status: ('A' for Active; 'I' for Inactive)
REMARK    1  A    between atoms: C_11  and  N_2 
REMARK    2  A    between atoms: C_16  and  C_6 
REMARK    3  A    between atoms: C_12  and  C_11 
ROOT
ATOM      1  C   UNL d   1      52.922  32.313  53.265  0.00  0.00     0.137 A 
ATOM      2  N   UNL d   1      52.399  33.623  53.035  0.00  0.00    -0.256 N 
ATOM      3  C   UNL d   1      52.191  31.981  53.057  0.00  0.00     0.192 A 
ATOM      4  C   UNL d   1      53.026  33.134  53.254  0.00  0.00     0.272 A 
ATOM      5  N   UNL d   1      51.566  32.466  52.839  0.00  0.00    -0.204 NA
ATOM      6  C   UNL d   1      51.666  33.294  52.827  0.00  0.00     0.152 A 
ATOM      7  C   UNL d   1      53.551  31.820  53.484  0.00  0.00     0.205 A 
ATOM      8  O   UNL d   1      52.095  31.163  53.071  0.00  0.00    -0.289 OA
ATOM      9  C   UNL d   1      53.452  31.010  53.497  0.00  0.00     0.062 A 
ATOM     10  C   UNL d   1      52.726  30.676  53.291  0.00  0.00     0.105 A 
ATOM     11  O   UNL d   1      53.755  33.460  53.461  0.00  0.00    -0.266 OA
ATOM     12  O   UNL d   1      54.276  32.154  53.690  0.00  0.00    -0.286 OA
ATOM     13  C   UNL d   1      54.084  30.519  53.717  0.00  0.00     0.005 A 
ATOM     14  C   UNL d   1      52.626  29.847  53.303  0.00  0.00     0.025 A 
ATOM     15  C   UNL d   1      53.981  29.699  53.729  0.00  0.00     0.000 A 
ATOM     16  C   UNL d   1      53.255  29.364  53.522  0.00  0.00     0.002 A 
ENDROOT
BRANCH   2  17
ATOM     17  C   UNL d   1      52.506  34.432  53.025  0.00  0.00     0.109 C 
BRANCH  17  18
ATOM     18  C   UNL d   1      52.758  34.824  53.706  0.00  0.00     0.118 A 
ATOM     19  O   UNL d   1      52.504  34.664  54.472  0.00  0.00    -0.304 OA
ATOM     20  C   UNL d   1      52.892  35.180  54.975  0.00  0.00     0.123 A 
ATOM     21  C   UNL d   1      53.386  35.660  54.521  0.00  0.00     0.029 A 
ATOM     22  C   UNL d   1      53.300  35.437  53.740  0.00  0.00     0.028 A 
ENDBRANCH  17  18
ENDBRANCH   2  17
BRANCH   6  23
ATOM     23  C   UNL d   1      51.035  33.781  52.607  0.00  0.00     0.035 A 
ATOM     24  C   UNL d   1      50.434  33.956  53.144  0.00  0.00     0.003 A 
ATOM     25  C   UNL d   1      49.808  34.440  52.925  0.00  0.00     0.000 A 
ATOM     26  C   UNL d   1      49.782  34.754  52.160  0.00  0.00     0.000 A 
ATOM     27  C   UNL d   1      50.383  34.580  51.623  0.00  0.00     0.000 A 
ATOM     28  C   UNL d   1      51.012  34.095  51.838  0.00  0.00     0.003 A 
ENDBRANCH   6  23
TORSDOF 3
ENDMDL
MODEL 2
REMARK VINA RESULT:      -9.8      1.404      4.313
REMARK  3 active torsions:
REMARK  status: ('A' for Active; 'I' for Inactive)
REMARK    1  A    between atoms: C_11  and  N_2 
REMARK    2  A    between atoms: C_16  and  C_6 
REMARK    3  A    between atoms: C_12  and  C_11 
ROOT
ATOM      1  C   UNL d   1      52.061  33.364  53.081  0.00  0.00     0.137 A 
ATOM      2  N   UNL d   1      53.322  32.845  53.507  0.00  0.00    -0.256 N 
ATOM      3  C   UNL d   1      52.136  33.995  53.613  0.00  0.00     0.192 A 
ATOM      4  C   UNL d   1      52.654  32.789  53.028  0.00  0.00     0.272 A 
ATOM      5  N   UNL d   1      52.802  34.052  54.092  0.00  0.00    -0.204 NA
ATOM      6  C   UNL d   1      53.401  33.475  54.042  0.00  0.00     0.152 A 
ATOM      7  C   UNL d   1      51.388  33.309  52.600  0.00  0.00     0.205 A 
ATOM      8  O   UNL d   1      51.543  34.563  53.662  0.00  0.00    -0.289 OA
ATOM      9  C   UNL d   1      50.802  33.874  52.650  0.00  0.00     0.062 A 
ATOM     10  C   UNL d   1      50.874  34.504  53.179  0.00  0.00     0.105 A 
ATOM     11  O   UNL d   1      52.575  32.163  52.496  0.00  0.00    -0.266 OA
ATOM     12  O   UNL d   1      51.317  32.680  52.071  0.00  0.00    -0.286 OA
ATOM     13  C   UNL d   1      50.129  33.817  52.167  0.00  0.00     0.005 A 
ATOM     14  C   UNL d   1      50.273  35.082  53.229  0.00  0.00     0.025 A 
ATOM     15  C   UNL d   1      49.537  34.391  52.219  0.00  0.00     0.000 A 
ATOM     16  C   UNL d   1      49.609  35.021  52.749  0.00  0.00     0.002 A 
ENDROOT
BRANCH   2  17
ATOM     17  C   UNL d   1      53.904  32.275  53.451  0.00  0.00     0.109 C 
BRANCH  17  18
ATOM     18  C   UNL d   1      53.713  31.477  53.541  0.00  0.00     0.118 A 
ATOM     19  O   UNL d   1      53.315  31.150  54.182  0.00  0.00    -0.304 OA
ATOM     20  C   UNL d   1      53.242  30.347  54.046  0.00  0.00     0.123 A 
ATOM     21  C   UNL d   1      53.595  30.176  53.320  0.00  0.00     0.029 A 
ATOM     22  C   UNL d   1      53.883  30.876  53.012  0.00  0.00     0.028 A 
ENDBRANCH  17  18
ENDBRANCH   2  17
BRANCH   6  23
ATOM     23  C   UNL d   1      54.071  33.534  54.524  0.00  0.00     0.035 A 
ATOM     24  C   UNL d   1      54.798  33.759  54.206  0.00  0.00     0.003 A 
ATOM     25  C   UNL d   1      55.461  33.817  54.685  0.00  0.00     0.000 A 
ATOM     26  C   UNL d   1      55.399  33.648  55.493  0.00  0.00     0.000 A 
ATOM     27  C   UNL d   1      54.672  33.423  55.811  0.00  0.00     0.000 A 
ATOM     28  C   UNL d   1      54.004  33.363  55.334  0.00  0.00     0.003 A 
ENDBRANCH   6  23
TORSDOF 3
ENDMDL
MODEL 3
REMARK VINA RESULT:      -9.7      0.845      2.493
REMARK  3 active torsions:
REMARK  status: ('A' for Active; 'I' for Inactive)
REMARK    1  A    between atoms: C_11  and  N_2 
REMARK    2  A    between atoms: C_16  and  C_6 
REMARK    3  A    between atoms: C_12  and  C_11 
ROOT
ATOM      1  C   UNL d   1      52.788  32.135  53.251  0.00  0.00     0.137 A 
ATOM      2  N   UNL d   1      52.566  33.542  53.129  0.00  0.00    -0.256 N 
ATOM      3  C   UNL d   1      53.223  32.260  53.945  0.00  0.00     0.192 A 
ATOM      4  C   UNL d   1      52.459  32.776  52.843  0.00  0.00     0.272 A 
ATOM      5  N   UNL d   1      53.331  33.023  54.231  0.00  0.00    -0.204 NA
ATOM      6  C   UNL d   1      53.002  33.671  53.824  0.00  0.00     0.152 A 
ATOM      7  C   UNL d   1      52.682  31.365  52.965  0.00  0.00     0.205 A 
ATOM      8  O   UNL d   1      53.548  31.619  54.346  0.00  0.00    -0.289 OA
ATOM      9  C   UNL d   1      53.004  30.731  53.365  0.00  0.00     0.062 A 
ATOM     10  C   UNL d   1      53.438  30.852  54.056  0.00  0.00     0.105 A 
ATOM     11  O   UNL d   1      52.027  32.647  52.152  0.00  0.00    -0.266 OA
ATOM     12  O   UNL d   1      52.247  31.244  52.274  0.00  0.00    -0.286 OA
ATOM     13  C   UNL d   1      52.896  29.961  53.075  0.00  0.00     0.005 A 
ATOM     14  C   UNL d   1      53.768  30.203  54.464  0.00  0.00     0.025 A 
ATOM     15  C   UNL d   1      53.223  29.320  53.482  0.00  0.00     0.000 A 
ATOM     16  C   UNL d   1      53.658  29.441  54.174  0.00  0.00     0.002 A 
ENDROOT
BRANCH   2  17
ATOM     17  C   UNL d   1      52.240  34.170  52.723  0.00  0.00     0.109 C 
BRANCH  17  18
ATOM     18  C   UNL d   1      51.428  34.195  52.580  0.00  0.00     0.118 A 
ATOM     19  O   UNL d   1      50.840  34.088  53.145  0.00  0.00    -0.304 OA
ATOM     20  C   UNL d   1      50.117  34.156  52.768  0.00  0.00     0.123 A 
ATOM     21  C   UNL d   1      50.258  34.305  51.969  0.00  0.00     0.029 A 
ATOM     22  C   UNL d   1      51.066  34.328  51.858  0.00  0.00     0.028 A 
ENDBRANCH  17  18
ENDBRANCH   2  17
BRANCH   6  23
ATOM     23  C   UNL d   1      53.111  34.438  54.113  0.00  0.00     0.035 A 
ATOM     24  C   UNL d   1      53.562  34.985  53.691  0.00  0.00     0.003 A 
ATOM     25  C   UNL d   1      53.669  35.746  53.979  0.00  0.00     0.000 A 
ATOM     26  C   UNL d   1      53.323  35.964  54.698  0.00  0.00     0.000 A 
ATOM     27  C   UNL d   1      52.872  35.417  55.120  0.00  0.00     0.000 A 
ATOM     28  C   UNL d   1      52.762  34.653  54.835  0.00  0.00     0.003 A 
ENDBRANCH   6  23
TORSDOF 3
ENDMDL
MODEL 4
REMARK VINA RESULT:      -9.6      1.227      3.868
REMARK  3 active torsions:
REMARK  status: ('A' for Active; 'I' for Inactive)
REMARK    1  A    between atoms: C_11  and  N_2 
REMARK    2  A    between atoms: C_16  and  C_6 
REMARK    3  A    between atoms: C_12  and  C_11 
ROOT
ATOM      1  C   UNL d   1      52.193  33.403  53.231  0.00  0.00     0.137 A 
ATOM      2  N   UNL d   1      53.310  32.555  53.511  0.00  0.00    -0.256 N 
ATOM      3  C   UNL d   1      51.714  32.737  53.109  0.00  0.00     0.192 A 
ATOM      4  C   UNL d   1      52.992  33.311  53.432  0.00  0.00     0.272 A 
ATOM      5  N   UNL d   1      52.030  31.983  53.187  0.00  0.00    -0.204 NA
ATOM      6  C   UNL d   1      52.833  31.887  53.389  0.00  0.00     0.152 A 
ATOM      7  C   UNL d   1      51.871  34.162  53.152  0.00  0.00     0.205 A 
ATOM      8  O   UNL d   1      50.922  32.835  52.909  0.00  0.00    -0.289 OA
ATOM      9  C   UNL d   1      51.086  34.255  52.954  0.00  0.00     0.062 A 
ATOM     10  C   UNL d   1      50.606  33.595  52.831  0.00  0.00     0.105 A 
ATOM     11  O   UNL d   1      53.464  33.977  53.553  0.00  0.00    -0.266 OA
ATOM     12  O   UNL d   1      52.351  34.822  53.274  0.00  0.00    -0.286 OA
ATOM     13  C   UNL d   1      50.766  35.017  52.875  0.00  0.00     0.005 A 
ATOM     14  C   UNL d   1      49.801  33.692  52.629  0.00  0.00     0.025 A 
ATOM     15  C   UNL d   1      49.969  35.109  52.675  0.00  0.00     0.000 A 
ATOM     16  C   UNL d   1      49.489  34.448  52.552  0.00  0.00     0.002 A 
ENDROOT
BRANCH   2  17
ATOM     17  C   UNL d   1      54.097  32.471  53.709  0.00  0.00     0.109 C 
BRANCH  17  18
ATOM     18  C   UNL d   1      54.402  32.859  54.370  0.00  0.00     0.118 A 
ATOM     19  O   UNL d   1      54.105  32.806  55.135  0.00  0.00    -0.304 OA
ATOM     20  C   UNL d   1      54.570  33.277  55.616  0.00  0.00     0.123 A 
ATOM     21  C   UNL d   1      55.155  33.623  55.148  0.00  0.00     0.029 A 
ATOM     22  C   UNL d   1      55.047  33.363  54.381  0.00  0.00     0.028 A 
ENDBRANCH  17  18
ENDBRANCH   2  17
BRANCH   6  23
ATOM     23  C   UNL d   1      53.150  31.127  53.467  0.00  0.00     0.035 A 
ATOM     24  C   UNL d   1      53.652  30.821  52.889  0.00  0.00     0.003 A 
ATOM     25  C   UNL d   1      53.966  30.067  52.967  0.00  0.00     0.000 A 
ATOM     26  C   UNL d   1      53.776  29.611  53.631  0.00  0.00     0.000 A 
ATOM     27  C   UNL d   1      53.273  29.917  54.209  0.00  0.00     0.000 A 
ATOM     28  C   UNL d   1      52.957  30.673  54.134  0.00  0.00     0.003 A 
ENDBRANCH   6  23
TORSDOF 3
ENDMDL
