MODEL 1
REMARK VINA RESULT:      -7.7      0.000      0.000
REMARK  6 active torsions:
REMARK  status: ('A' for Active; 'I' for Inactive)
REMARK    1  A    between atoms: C_4  and  C_2 
REMARK       I    between atoms: N_13  and  C_4 
REMARK    2  A    between atoms: O_17  and  C_8 
REMARK    3  A    between atoms: O_18  and  C_9 
REMARK    4  A    between atoms: C_19  and  N_13 
REMARK    5  A    between atoms: C_15  and  C_20 
REMARK    6  A    between atoms: C_20  and  C_19 
ROOT
ATOM      1  C   UNL d   1      53.314  31.683  53.278  0.00  0.00     0.102 C 
ENDROOT
BRANCH   1   2
ATOM      2  N   UNL d   1      53.129  31.297  52.572  0.00  0.00    -0.205 NA
ATOM      3  C   UNL d   1      52.960  30.481  52.572  0.00  0.00     0.299 C 
ATOM      4  O   UNL d   1      52.775  30.103  51.858  0.00  0.00    -0.263 OA
BRANCH   3   5
ATOM      5  C   UNL d   1      52.976  30.046  53.286  0.00  0.00     0.161 A 
ATOM      6  N   UNL d   1      52.280  29.947  53.712  0.00  0.00    -0.140 NA
ATOM      7  N   UNL d   1      52.290  29.523  54.410  0.00  0.00    -0.105 NA
ATOM      8  C   UNL d   1      52.995  29.195  54.687  0.00  0.00     0.297 A 
ATOM      9  C   UNL d   1      53.689  29.291  54.265  0.00  0.00     0.066 A 
ATOM     10  O   UNL d   1      52.995  28.762  55.403  0.00  0.00    -0.264 OA
ATOM     11  C   UNL d   1      53.680  29.718  53.563  0.00  0.00     0.031 A 
ENDBRANCH   3   5
ENDBRANCH   1   2
BRANCH   1  12
ATOM     12  C   UNL d   1      53.834  32.325  53.273  0.00  0.00     0.021 C 
BRANCH  12  13
ATOM     13  C   UNL d   1      53.664  32.997  53.714  0.00  0.00     0.004 A 
ATOM     14  C   UNL d   1      54.136  33.191  54.353  0.00  0.00     0.026 A 
ATOM     15  C   UNL d   1      53.967  33.865  54.797  0.00  0.00     0.116 A 
ATOM     16  C   UNL d   1      53.323  34.340  54.597  0.00  0.00     0.116 A 
ATOM     17  C   UNL d   1      52.848  34.141  53.951  0.00  0.00     0.026 A 
ATOM     18  C   UNL d   1      53.020  33.471  53.514  0.00  0.00     0.002 A 
BRANCH  15  19
ATOM     19  O   UNL d   1      54.451  34.065  55.452  0.00  0.00    -0.326 OA
ATOM     20  C   UNL d   1      55.189  33.709  55.547  0.00  0.00     0.181 C 
ENDBRANCH  15  19
BRANCH  16  21
ATOM     21  O   UNL d   1      53.151  35.023  55.047  0.00  0.00    -0.326 OA
ATOM     22  C   UNL d   1      52.620  35.584  54.758  0.00  0.00     0.181 C 
ENDBRANCH  16  21
ENDBRANCH  12  13
ENDBRANCH   1  12
TORSDOF 6
ENDMDL
MODEL 2
REMARK VINA RESULT:      -7.3      2.677      3.855
REMARK  6 active torsions:
REMARK  status: ('A' for Active; 'I' for Inactive)
REMARK    1  A    between atoms: C_4  and  C_2 
REMARK       I    between atoms: N_13  and  C_4 
REMARK    2  A    between atoms: O_17  and  C_8 
REMARK    3  A    between atoms: O_18  and  C_9 
REMARK    4  A    between atoms: C_19  and  N_13 
REMARK    5  A    between atoms: C_15  and  C_20 
REMARK    6  A    between atoms: C_20  and  C_19 
ROOT
ATOM      1  C   UNL d   1      52.221  33.232  52.875  0.00  0.00     0.102 C 
ENDROOT
BRANCH   1   2
ATOM      2  N   UNL d   1      52.379  32.462  52.626  0.00  0.00    -0.205 NA
ATOM      3  C   UNL d   1      53.006  32.031  52.967  0.00  0.00     0.299 C 
ATOM      4  O   UNL d   1      53.157  31.257  52.710  0.00  0.00    -0.263 OA
BRANCH   3   5
ATOM      5  C   UNL d   1      53.479  32.374  53.564  0.00  0.00     0.161 A 
ATOM      6  N   UNL d   1      53.237  32.323  54.348  0.00  0.00    -0.140 NA
ATOM      7  N   UNL d   1      53.696  32.658  54.936  0.00  0.00    -0.105 NA
ATOM      8  C   UNL d   1      54.399  33.045  54.744  0.00  0.00     0.297 A 
ATOM      9  C   UNL d   1      54.643  33.098  53.965  0.00  0.00     0.066 A 
ATOM     10  O   UNL d   1      54.862  33.384  55.353  0.00  0.00    -0.264 OA
ATOM     11  C   UNL d   1      54.182  32.762  53.373  0.00  0.00     0.031 A 
ENDBRANCH   3   5
ENDBRANCH   1   2
BRANCH   1  12
ATOM     12  C   UNL d   1      51.899  33.779  52.345  0.00  0.00     0.021 C 
BRANCH  12  13
ATOM     13  C   UNL d   1      51.171  34.125  52.502  0.00  0.00     0.004 A 
ATOM     14  C   UNL d   1      50.576  34.088  51.943  0.00  0.00     0.026 A 
ATOM     15  C   UNL d   1      49.844  34.436  52.099  0.00  0.00     0.116 A 
ATOM     16  C   UNL d   1      49.715  34.819  52.818  0.00  0.00     0.116 A 
ATOM     17  C   UNL d   1      50.318  34.855  53.381  0.00  0.00     0.026 A 
ATOM     18  C   UNL d   1      51.042  34.509  53.222  0.00  0.00     0.002 A 
BRANCH  15  19
ATOM     19  O   UNL d   1      49.234  34.398  51.526  0.00  0.00    -0.326 OA
ATOM     20  C   UNL d   1      49.420  34.354  50.723  0.00  0.00     0.181 C 
ENDBRANCH  15  19
BRANCH  16  21
ATOM     21  O   UNL d   1      48.974  35.171  52.976  0.00  0.00    -0.326 OA
ATOM     22  C   UNL d   1      48.871  35.628  53.655  0.00  0.00     0.181 C 
ENDBRANCH  16  21
ENDBRANCH  12  13
ENDBRANCH   1  12
TORSDOF 6
ENDMDL
MODEL 3
REMARK VINA RESULT:      -7.1      1.801      4.529
REMARK  6 active torsions:
REMARK  status: ('A' for Active; 'I' for Inactive)
REMARK    1  A    between atoms: C_4  and  C_2 
REMARK       I    between atoms: N_13  and  C_4 
REMARK    2  A    between atoms: O_17  and  C_8 
REMARK    3  A    between atoms: O_18  and  C_9 
REMARK    4  A    between atoms: C_19  and  N_13 
REMARK    5  A    between atoms: C_15  and  C_20 
REMARK    6  A    between atoms: C_20  and  C_19 
ROOT
ATOM      1  C   UNL d   1      53.402  33.046  53.999  0.00  0.00     0.102 C 
ENDROOT
BRANCH   1   2
ATOM      2  N   UNL d   1      53.591  33.794  54.292  0.00  0.00    -0.205 NA
ATOM      3  C   UNL d   1      53.104  34.448  54.117  0.00  0.00     0.299 C 
ATOM      4  O   UNL d   1      53.303  35.195  54.417  0.00  0.00    -0.263 OA
BRANCH   3   5
ATOM      5  C   UNL d   1      52.422  34.353  53.644  0.00  0.00     0.161 A 
ATOM      6  N   UNL d   1      51.723  34.100  53.993  0.00  0.00    -0.140 NA
ATOM      7  N   UNL d   1      51.053  34.006  53.534  0.00  0.00    -0.105 NA
ATOM      8  C   UNL d   1      51.078  34.163  52.725  0.00  0.00     0.297 A 
ATOM      9  C   UNL d   1      51.772  34.415  52.374  0.00  0.00     0.066 A 
ATOM     10  O   UNL d   1      50.386  34.063  52.264  0.00  0.00    -0.264 OA
ATOM     11  C   UNL d   1      52.447  34.510  52.834  0.00  0.00     0.031 A 
ENDBRANCH   3   5
ENDBRANCH   1   2
BRANCH   1  12
ATOM     12  C   UNL d   1      53.973  32.449  53.994  0.00  0.00     0.021 C 
BRANCH  12  13
ATOM     13  C   UNL d   1      53.747  31.662  54.060  0.00  0.00     0.004 A 
ATOM     14  C   UNL d   1      53.580  31.231  53.386  0.00  0.00     0.026 A 
ATOM     15  C   UNL d   1      53.352  30.440  53.451  0.00  0.00     0.116 A 
ATOM     16  C   UNL d   1      53.294  30.088  54.194  0.00  0.00     0.116 A 
ATOM     17  C   UNL d   1      53.463  30.526  54.874  0.00  0.00     0.026 A 
ATOM     18  C   UNL d   1      53.688  31.309  54.804  0.00  0.00     0.002 A 
BRANCH  15  19
ATOM     19  O   UNL d   1      53.181  29.998  52.760  0.00  0.00    -0.326 OA
ATOM     20  C   UNL d   1      52.868  30.372  52.094  0.00  0.00     0.181 C 
ENDBRANCH  15  19
BRANCH  16  21
ATOM     21  O   UNL d   1      53.063  29.287  54.260  0.00  0.00    -0.326 OA
ATOM     22  C   UNL d   1      53.305  28.841  54.910  0.00  0.00     0.181 C 
ENDBRANCH  16  21
ENDBRANCH  12  13
ENDBRANCH   1  12
TORSDOF 6
ENDMDL
MODEL 4
REMARK VINA RESULT:      -6.9      2.411      3.729
REMARK  6 active torsions:
REMARK  status: ('A' for Active; 'I' for Inactive)
REMARK    1  A    between atoms: C_4  and  C_2 
REMARK       I    between atoms: N_13  and  C_4 
REMARK    2  A    between atoms: O_17  and  C_8 
REMARK    3  A    between atoms: O_18  and  C_9 
REMARK    4  A    between atoms: C_19  and  N_13 
REMARK    5  A    between atoms: C_15  and  C_20 
REMARK    6  A    between atoms: C_20  and  C_19 
ROOT
ATOM      1  C   UNL d   1      52.954  34.184  53.823  0.00  0.00     0.102 C 
ENDROOT
BRANCH   1   2
ATOM      2  N   UNL d   1      53.522  34.356  54.396  0.00  0.00    -0.205 NA
ATOM      3  C   UNL d   1      54.041  33.762  54.665  0.00  0.00     0.299 C 
ATOM      4  O   UNL d   1      54.608  33.946  55.241  0.00  0.00    -0.263 OA
BRANCH   3   5
ATOM      5  C   UNL d   1      53.990  32.986  54.358  0.00  0.00     0.161 A 
ATOM      6  N   UNL d   1      53.496  32.441  54.723  0.00  0.00    -0.140 NA
ATOM      7  N   UNL d   1      53.443  31.681  54.426  0.00  0.00    -0.105 NA
ATOM      8  C   UNL d   1      53.884  31.462  53.764  0.00  0.00     0.297 A 
ATOM      9  C   UNL d   1      54.377  32.002  53.398  0.00  0.00     0.066 A 
ATOM     10  O   UNL d   1      53.823  30.681  53.467  0.00  0.00    -0.264 OA
ATOM     11  C   UNL d   1      54.431  32.767  53.696  0.00  0.00     0.031 A 
ENDBRANCH   3   5
ENDBRANCH   1   2
BRANCH   1  12
ATOM     12  C   UNL d   1      52.526  34.795  53.469  0.00  0.00     0.021 C 
BRANCH  12  13
ATOM     13  C   UNL d   1      51.849  34.627  53.035  0.00  0.00     0.004 A 
ATOM     14  C   UNL d   1      51.114  34.711  53.384  0.00  0.00     0.026 A 
ATOM     15  C   UNL d   1      50.433  34.543  52.950  0.00  0.00     0.116 A 
ATOM     16  C   UNL d   1      50.495  34.291  52.167  0.00  0.00     0.116 A 
ATOM     17  C   UNL d   1      51.239  34.207  51.818  0.00  0.00     0.026 A 
ATOM     18  C   UNL d   1      51.911  34.375  52.252  0.00  0.00     0.002 A 
BRANCH  15  19
ATOM     19  O   UNL d   1      49.680  34.629  53.307  0.00  0.00    -0.326 OA
ATOM     20  C   UNL d   1      49.484  35.327  53.701  0.00  0.00     0.181 C 
ENDBRANCH  15  19
BRANCH  16  21
ATOM     21  O   UNL d   1      49.805  34.120  51.728  0.00  0.00    -0.326 OA
ATOM     22  C   UNL d   1      49.810  34.198  50.906  0.00  0.00     0.181 C 
ENDBRANCH  16  21
ENDBRANCH  12  13
ENDBRANCH   1  12
TORSDOF 6
ENDMDL
MODEL 5
REMARK VINA RESULT:      -6.9      1.844      4.686
REMARK  6 active torsions:
REMARK  status: ('A' for Active; 'I' for Inactive)
REMARK    1  A    between atoms: C_4  and  C_2 
REMARK       I    between atoms: N_13  and  C_4 
REMARK    2  A    between atoms: O_17  and  C_8 
REMARK    3  A    between atoms: O_18  and  C_9 
REMARK    4  A    between atoms: C_19  and  N_13 
REMARK    5  A    between atoms: C_15  and  C_20 
REMARK    6  A    between atoms: C_20  and  C_19 
ROOT
ATOM      1  C   UNL d   1      54.337  32.955  54.096  0.00  0.00     0.102 C 
ENDROOT
BRANCH   1   2
ATOM      2  N   UNL d   1      54.939  33.191  54.608  0.00  0.00    -0.205 NA
ATOM      3  C   UNL d   1      54.891  33.924  55.003  0.00  0.00     0.299 C 
ATOM      4  O   UNL d   1      55.501  34.152  55.516  0.00  0.00    -0.263 OA
BRANCH   3   5
ATOM      5  C   UNL d   1      54.233  34.426  54.884  0.00  0.00     0.161 A 
ATOM      6  N   UNL d   1      54.264  34.994  54.291  0.00  0.00    -0.140 NA
ATOM      7  N   UNL d   1      53.623  35.487  54.171  0.00  0.00    -0.105 NA
ATOM      8  C   UNL d   1      52.949  35.416  54.641  0.00  0.00     0.297 A 
ATOM      9  C   UNL d   1      52.916  34.851  55.232  0.00  0.00     0.066 A 
ATOM     10  O   UNL d   1      52.298  35.926  54.510  0.00  0.00    -0.264 OA
ATOM     11  C   UNL d   1      53.559  34.354  55.354  0.00  0.00     0.031 A 
ENDBRANCH   3   5
ENDBRANCH   1   2
BRANCH   1  12
ATOM     12  C   UNL d   1      54.468  32.338  53.562  0.00  0.00     0.021 C 
BRANCH  12  13
ATOM     13  C   UNL d   1      53.899  31.754  53.460  0.00  0.00     0.004 A 
ATOM     14  C   UNL d   1      53.167  31.952  53.154  0.00  0.00     0.026 A 
ATOM     15  C   UNL d   1      52.594  31.367  53.051  0.00  0.00     0.116 A 
ATOM     16  C   UNL d   1      52.762  30.585  53.257  0.00  0.00     0.116 A 
ATOM     17  C   UNL d   1      53.502  30.389  53.566  0.00  0.00     0.026 A 
ATOM     18  C   UNL d   1      54.066  30.973  53.666  0.00  0.00     0.002 A 
BRANCH  15  19
ATOM     19  O   UNL d   1      51.844  31.569  52.737  0.00  0.00    -0.326 OA
ATOM     20  C   UNL d   1      51.559  32.340  52.805  0.00  0.00     0.181 C 
ENDBRANCH  15  19
BRANCH  16  21
ATOM     21  O   UNL d   1      52.182  29.993  53.152  0.00  0.00    -0.326 OA
ATOM     22  C   UNL d   1      52.361  29.206  53.323  0.00  0.00     0.181 C 
ENDBRANCH  16  21
ENDBRANCH  12  13
ENDBRANCH   1  12
TORSDOF 6
ENDMDL
MODEL 6
REMARK VINA RESULT:      -6.9      1.579      4.437
REMARK  6 active torsions:
REMARK  status: ('A' for Active; 'I' for Inactive)
REMARK    1  A    between atoms: C_4  and  C_2 
REMARK       I    between atoms: N_13  and  C_4 
REMARK    2  A    between atoms: O_17  and  C_8 
REMARK    3  A    between atoms: O_18  and  C_9 
REMARK    4  A    between atoms: C_19  and  N_13 
REMARK    5  A    between atoms: C_15  and  C_20 
REMARK    6  A    between atoms: C_20  and  C_19 
ROOT
ATOM      1  C   UNL d   1      53.130  32.468  53.214  0.00  0.00     0.102 C 
ENDROOT
BRANCH   1   2
ATOM      2  N   UNL d   1      52.822  33.197  52.983  0.00  0.00    -0.205 NA
ATOM      3  C   UNL d   1      53.060  33.896  53.371  0.00  0.00     0.299 C 
ATOM      4  O   UNL d   1      52.744  34.624  53.130  0.00  0.00    -0.263 OA
BRANCH   3   5
ATOM      5  C   UNL d   1      53.614  33.864  53.996  0.00  0.00     0.161 A 
ATOM      6  N   UNL d   1      53.342  33.811  54.770  0.00  0.00    -0.140 NA
ATOM      7  N   UNL d   1      53.879  33.779  55.386  0.00  0.00    -0.105 NA
ATOM      8  C   UNL d   1      54.689  33.801  55.232  0.00  0.00     0.297 A 
ATOM      9  C   UNL d   1      54.963  33.854  54.463  0.00  0.00     0.066 A 
ATOM     10  O   UNL d   1      55.231  33.768  55.869  0.00  0.00    -0.264 OA
ATOM     11  C   UNL d   1      54.424  33.886  53.843  0.00  0.00     0.031 A 
ENDBRANCH   3   5
ENDBRANCH   1   2
BRANCH   1  12
ATOM     12  C   UNL d   1      52.986  31.795  52.757  0.00  0.00     0.021 C 
BRANCH  12  13
ATOM     13  C   UNL d   1      52.996  31.051  53.105  0.00  0.00     0.004 A 
ATOM     14  C   UNL d   1      52.292  30.659  53.242  0.00  0.00     0.026 A 
ATOM     15  C   UNL d   1      52.301  29.911  53.591  0.00  0.00     0.116 A 
ATOM     16  C   UNL d   1      53.018  29.562  53.799  0.00  0.00     0.116 A 
ATOM     17  C   UNL d   1      53.728  29.960  53.659  0.00  0.00     0.026 A 
ATOM     18  C   UNL d   1      53.714  30.701  53.313  0.00  0.00     0.002 A 
BRANCH  15  19
ATOM     19  O   UNL d   1      51.579  29.509  53.733  0.00  0.00    -0.326 OA
ATOM     20  C   UNL d   1      50.859  29.900  53.633  0.00  0.00     0.181 C 
ENDBRANCH  15  19
BRANCH  16  21
ATOM     21  O   UNL d   1      53.027  28.805  54.153  0.00  0.00    -0.326 OA
ATOM     22  C   UNL d   1      53.617  28.610  54.695  0.00  0.00     0.181 C 
ENDBRANCH  16  21
ENDBRANCH  12  13
ENDBRANCH   1  12
TORSDOF 6
ENDMDL
MODEL 7
REMARK VINA RESULT:      -6.7      1.643      4.547
REMARK  6 active torsions:
REMARK  status: ('A' for Active; 'I' for Inactive)
REMARK    1  A    between atoms: C_4  and  C_2 
REMARK       I    between atoms: N_13  and  C_4 
REMARK    2  A    between atoms: O_17  and  C_8 
REMARK    3  A    between atoms: O_18  and  C_9 
REMARK    4  A    between atoms: C_19  and  N_13 
REMARK    5  A    between atoms: C_15  and  C_20 
REMARK    6  A    between atoms: C_20  and  C_19 
ROOT
ATOM      1  C   UNL d   1      52.630  32.532  52.939  0.00  0.00     0.102 C 
ENDROOT
BRANCH   1   2
ATOM      2  N   UNL d   1      52.093  32.985  52.506  0.00  0.00    -0.205 NA
ATOM      3  C   UNL d   1      51.951  33.780  52.714  0.00  0.00     0.299 C 
ATOM      4  O   UNL d   1      51.410  34.227  52.273  0.00  0.00    -0.263 OA
BRANCH   3   5
ATOM      5  C   UNL d   1      52.351  34.125  53.362  0.00  0.00     0.161 A 
ATOM      6  N   UNL d   1      52.120  33.931  54.126  0.00  0.00    -0.140 NA
ATOM      7  N   UNL d   1      52.509  34.266  54.763  0.00  0.00    -0.105 NA
ATOM      8  C   UNL d   1      53.129  34.796  54.641  0.00  0.00     0.297 A 
ATOM      9  C   UNL d   1      53.361  34.991  53.881  0.00  0.00     0.066 A 
ATOM     10  O   UNL d   1      53.520  35.133  55.299  0.00  0.00    -0.264 OA
ATOM     11  C   UNL d   1      52.972  34.655  53.239  0.00  0.00     0.031 A 
ENDBRANCH   3   5
ENDBRANCH   1   2
BRANCH   1  12
ATOM     12  C   UNL d   1      52.972  31.862  52.598  0.00  0.00     0.021 C 
BRANCH  12  13
ATOM     13  C   UNL d   1      53.009  31.158  53.021  0.00  0.00     0.004 A 
ATOM     14  C   UNL d   1      52.354  30.670  53.051  0.00  0.00     0.026 A 
ATOM     15  C   UNL d   1      52.390  29.963  53.475  0.00  0.00     0.116 A 
ATOM     16  C   UNL d   1      53.085  29.751  53.866  0.00  0.00     0.116 A 
ATOM     17  C   UNL d   1      53.744  30.247  53.833  0.00  0.00     0.026 A 
ATOM     18  C   UNL d   1      53.704  30.946  53.411  0.00  0.00     0.002 A 
BRANCH  15  19
ATOM     19  O   UNL d   1      51.719  29.462  53.507  0.00  0.00    -0.326 OA
ATOM     20  C   UNL d   1      50.964  29.783  53.596  0.00  0.00     0.181 C 
ENDBRANCH  15  19
BRANCH  16  21
ATOM     21  O   UNL d   1      53.120  29.035  54.295  0.00  0.00    -0.326 OA
ATOM     22  C   UNL d   1      53.756  28.889  54.801  0.00  0.00     0.181 C 
ENDBRANCH  16  21
ENDBRANCH  12  13
ENDBRANCH   1  12
TORSDOF 6
ENDMDL
