MODEL 1
REMARK VINA RESULT:       0.7      0.000      0.000
REMARK  2 active torsions:
REMARK  status: ('A' for Active; 'I' for Inactive)
REMARK    1  A    between atoms: N_11  and  C_4 
REMARK    2  A    between atoms: C_16  and  N_12 
ROOT
ATOM      1  N   UNL d   1     -41.764-122.315 -52.270  0.00  0.00    -0.195 N 
ATOM      2  C   UNL d   1     -41.657-122.003 -53.006  0.00  0.00     0.168 A 
ATOM      3  C   UNL d   1     -41.760-122.450 -53.656  0.00  0.00     0.073 A 
ATOM      4  C   UNL d   1     -41.658-121.854 -51.632  0.00  0.00     0.153 A 
ATOM      5  N   UNL d   1     -42.077-123.525 -52.829  0.00  0.00    -0.143 NA
ATOM      6  C   UNL d   1     -41.970-123.212 -53.566  0.00  0.00     0.185 A 
ATOM      7  N   UNL d   1     -41.447-121.236 -53.085  0.00  0.00    -0.227 NA
ATOM      8  C   UNL d   1     -41.654-122.140 -54.384  0.00  0.00     0.007 A 
ATOM      9  N   UNL d   1     -42.077-123.678 -54.214  0.00  0.00    -0.225 NA
ATOM     10  C   UNL d   1     -41.449-121.094 -51.705  0.00  0.00     0.057 A 
ATOM     11  C   UNL d   1     -41.757-122.588 -55.034  0.00  0.00     0.019 A 
ATOM     12  C   UNL d   1     -41.342-120.781 -52.442  0.00  0.00     0.086 A 
ATOM     13  C   UNL d   1     -41.970-123.365 -54.950  0.00  0.00     0.083 A 
ATOM     14  C   UNL d   1     -41.442-121.371 -54.461  0.00  0.00     0.000 C 
ATOM     15  C   UNL d   1     -41.123-119.985 -52.521  0.00  0.00     0.021 C 
ATOM     16  C   UNL d   1     -42.074-123.816 -55.592  0.00  0.00     0.021 C 
ENDROOT
BRANCH   4  17
ATOM     17  N   UNL d   1     -41.770-122.183 -50.876  0.00  0.00    -0.286 N 
ATOM     18  C   UNL d   1     -42.548-122.230 -50.586  0.00  0.00     0.101 A 
ATOM     19  C   UNL d   1     -42.697-122.553 -49.836  0.00  0.00     0.100 A 
ATOM     20  N   UNL d   1     -42.065-122.827 -49.381  0.00  0.00    -0.301 N 
ATOM     21  C   UNL d   1     -41.284-122.785 -49.663  0.00  0.00     0.100 A 
ATOM     22  C   UNL d   1     -41.138-122.460 -50.417  0.00  0.00     0.101 A 
BRANCH  20  23
ATOM     23  C   UNL d   1     -42.210-123.149 -48.635  0.00  0.00     0.065 A 
ATOM     24  C   UNL d   1     -41.594-123.210 -48.077  0.00  0.00     0.029 A 
ATOM     25  C   UNL d   1     -41.744-123.537 -47.320  0.00  0.00     0.059 A 
ATOM     26 CL   UNL d   1     -41.134-123.598 -46.763  0.00  0.00    -0.082 Cl
ATOM     27  C   UNL d   1     -42.514-123.802 -47.127  0.00  0.00     0.011 A 
ATOM     28  C   UNL d   1     -43.130-123.738 -47.693  0.00  0.00     0.002 A 
ATOM     29  C   UNL d   1     -42.976-123.415 -48.437  0.00  0.00     0.018 A 
ENDBRANCH  20  23
ENDBRANCH   4  17
TORSDOF 2
ENDMDL
