MODEL 1
REMARK VINA RESULT:      -5.6      0.000      0.000
REMARK  2 active torsions:
REMARK  status: ('A' for Active; 'I' for Inactive)
REMARK       I    between atoms: N_3  and  C_1 
REMARK    1  A    between atoms: C_4  and  C_1 
REMARK    2  A    between atoms: C_10  and  N_3 
ROOT
ATOM      1  C   UNL d   1      57.468   0.114  31.087  0.00  0.00     0.279 C 
ATOM      2  N   UNL d   1      57.529  -0.210  31.846  0.00  0.00    -0.208 NA
ATOM      3  O   UNL d   1      56.750   0.434  30.830  0.00  0.00    -0.265 OA
ENDROOT
BRANCH   1   4
ATOM      4  C   UNL d   1      58.128   0.113  30.594  0.00  0.00     0.059 A 
ATOM      5  C   UNL d   1      58.190  -0.451  29.999  0.00  0.00     0.013 A 
ATOM      6  C   UNL d   1      58.840  -0.463  29.502  0.00  0.00     0.049 A 
ATOM      7  S   UNL d   1      59.049  -0.956  28.867  0.00  0.00    -0.064 SA
ATOM      8  C   UNL d   1      59.451   0.106  29.601  0.00  0.00     0.088 A 
ATOM      9  C   UNL d   1      59.781  -0.686  28.583  0.00  0.00     0.135 A 
ATOM     10  N   UNL d   1      60.035  -0.041  29.022  0.00  0.00    -0.236 NA
ATOM     11  C   UNL d   1      59.400   0.681  30.198  0.00  0.00     0.020 A 
ATOM     12  C   UNL d   1      58.739   0.681  30.691  0.00  0.00     0.006 A 
ENDBRANCH   1   4
BRANCH   2  13
ATOM     13  C   UNL d   1      56.840  -0.205  32.352  0.00  0.00     0.087 A 
ATOM     14  C   UNL d   1      56.376  -0.880  32.432  0.00  0.00     0.049 A 
ATOM     15  C   UNL d   1      55.719  -0.869  32.917  0.00  0.00     0.142 A 
ATOM     16  F   UNL d   1      55.245  -1.547  33.003  0.00  0.00    -0.204 F 
ATOM     17  C   UNL d   1      55.524  -0.186  33.322  0.00  0.00     0.030 A 
ATOM     18  C   UNL d   1      55.985   0.490  33.245  0.00  0.00     0.004 A 
ATOM     19  C   UNL d   1      56.652   0.482  32.754  0.00  0.00     0.019 A 
ENDBRANCH   2  13
TORSDOF 2
ENDMDL
MODEL 2
REMARK VINA RESULT:      -5.3      2.206      4.430
REMARK  2 active torsions:
REMARK  status: ('A' for Active; 'I' for Inactive)
REMARK       I    between atoms: N_3  and  C_1 
REMARK    1  A    between atoms: C_4  and  C_1 
REMARK    2  A    between atoms: C_10  and  N_3 
ROOT
ATOM      1  C   UNL d   1      57.478  -0.051  31.317  0.00  0.00     0.279 C 
ATOM      2  N   UNL d   1      57.416  -0.373  30.558  0.00  0.00    -0.208 NA
ATOM      3  O   UNL d   1      58.111   0.448  31.505  0.00  0.00    -0.265 OA
ENDROOT
BRANCH   1   4
ATOM      4  C   UNL d   1      56.905  -0.233  31.881  0.00  0.00     0.059 A 
ATOM      5  C   UNL d   1      56.583   0.367  32.340  0.00  0.00     0.013 A 
ATOM      6  C   UNL d   1      56.012   0.200  32.903  0.00  0.00     0.049 A 
ATOM      7  S   UNL d   1      55.597   0.682  33.438  0.00  0.00    -0.064 SA
ATOM      8  C   UNL d   1      55.754  -0.592  33.013  0.00  0.00     0.088 A 
ATOM      9  C   UNL d   1      55.089   0.184  33.867  0.00  0.00     0.135 A 
ATOM     10  N   UNL d   1      55.177  -0.593  33.617  0.00  0.00    -0.236 NA
ATOM     11  C   UNL d   1      56.071  -1.207  32.554  0.00  0.00     0.020 A 
ATOM     12  C   UNL d   1      56.645  -1.024  31.990  0.00  0.00     0.006 A 
ENDBRANCH   1   4
BRANCH   2  13
ATOM     13  C   UNL d   1      58.015  -0.180  29.979  0.00  0.00     0.087 A 
ATOM     14  C   UNL d   1      58.685  -0.652  29.897  0.00  0.00     0.049 A 
ATOM     15  C   UNL d   1      59.252  -0.461  29.342  0.00  0.00     0.142 A 
ATOM     16  F   UNL d   1      59.932  -0.932  29.253  0.00  0.00    -0.204 F 
ATOM     17  C   UNL d   1      59.154   0.198  28.868  0.00  0.00     0.030 A 
ATOM     18  C   UNL d   1      58.486   0.671  28.947  0.00  0.00     0.004 A 
ATOM     19  C   UNL d   1      57.908   0.481  29.509  0.00  0.00     0.019 A 
ENDBRANCH   2  13
TORSDOF 2
ENDMDL
MODEL 3
REMARK VINA RESULT:      -3.9      2.167      4.292
REMARK  2 active torsions:
REMARK  status: ('A' for Active; 'I' for Inactive)
REMARK       I    between atoms: N_3  and  C_1 
REMARK    1  A    between atoms: C_4  and  C_1 
REMARK    2  A    between atoms: C_10  and  N_3 
ROOT
ATOM      1  C   UNL d   1      58.013  -0.504  30.529  0.00  0.00     0.279 C 
ATOM      2  N   UNL d   1      57.973  -1.242  30.157  0.00  0.00    -0.208 NA
ATOM      3  O   UNL d   1      58.622   0.023  30.339  0.00  0.00    -0.265 OA
ENDROOT
BRANCH   1   4
ATOM      4  C   UNL d   1      57.442  -0.302  31.088  0.00  0.00     0.059 A 
ATOM      5  C   UNL d   1      57.167  -0.873  31.611  0.00  0.00     0.013 A 
ATOM      6  C   UNL d   1      56.599  -0.686  32.171  0.00  0.00     0.049 A 
ATOM      7  S   UNL d   1      56.225  -1.137  32.759  0.00  0.00    -0.064 SA
ATOM      8  C   UNL d   1      56.295   0.097  32.211  0.00  0.00     0.088 A 
ATOM      9  C   UNL d   1      55.697  -0.630  33.153  0.00  0.00     0.135 A 
ATOM     10  N   UNL d   1      55.732   0.123  32.827  0.00  0.00    -0.236 NA
ATOM     11  C   UNL d   1      56.565   0.682  31.688  0.00  0.00     0.020 A 
ATOM     12  C   UNL d   1      57.137   0.479  31.128  0.00  0.00     0.006 A 
ENDBRANCH   1   4
BRANCH   2  13
ATOM     13  C   UNL d   1      58.569  -1.444  29.579  0.00  0.00     0.087 A 
ATOM     14  C   UNL d   1      58.927  -2.186  29.590  0.00  0.00     0.049 A 
ATOM     15  C   UNL d   1      59.495  -2.373  29.034  0.00  0.00     0.142 A 
ATOM     16  F   UNL d   1      59.861  -3.119  29.038  0.00  0.00    -0.204 F 
ATOM     17  C   UNL d   1      59.709  -1.822  28.469  0.00  0.00     0.030 A 
ATOM     18  C   UNL d   1      59.354  -1.081  28.455  0.00  0.00     0.004 A 
ATOM     19  C   UNL d   1      58.777  -0.888  29.017  0.00  0.00     0.019 A 
ENDBRANCH   2  13
TORSDOF 2
ENDMDL
MODEL 4
REMARK VINA RESULT:      -2.6      9.432      9.783
REMARK  2 active torsions:
REMARK  status: ('A' for Active; 'I' for Inactive)
REMARK       I    between atoms: N_3  and  C_1 
REMARK    1  A    between atoms: C_4  and  C_1 
REMARK    2  A    between atoms: C_10  and  N_3 
ROOT
ATOM      1  C   UNL d   1      58.909  -9.524  33.477  0.00  0.00     0.279 C 
ATOM      2  N   UNL d   1      59.550  -9.145  33.839  0.00  0.00    -0.208 NA
ATOM      3  O   UNL d   1      58.288  -9.818  33.938  0.00  0.00    -0.265 OA
ENDROOT
BRANCH   1   4
ATOM      4  C   UNL d   1      58.899  -9.604  32.657  0.00  0.00     0.059 A 
ATOM      5  C   UNL d   1      58.184  -9.551  32.253  0.00  0.00     0.013 A 
ATOM      6  C   UNL d   1      58.160  -9.628  31.439  0.00  0.00     0.049 A 
ATOM      7  S   UNL d   1      57.533  -9.601  30.894  0.00  0.00    -0.064 SA
ATOM      8  C   UNL d   1      58.870  -9.763  31.011  0.00  0.00     0.088 A 
ATOM      9  C   UNL d   1      57.863  -9.718  30.141  0.00  0.00     0.135 A 
ATOM     10  N   UNL d   1      58.676  -9.818  30.201  0.00  0.00    -0.236 NA
ATOM     11  C   UNL d   1      59.598  -9.818  31.407  0.00  0.00     0.020 A 
ATOM     12  C   UNL d   1      59.608  -9.738  32.228  0.00  0.00     0.006 A 
ENDBRANCH   1   4
BRANCH   2  13
ATOM     13  C   UNL d   1      59.554  -9.066  34.690  0.00  0.00     0.087 A 
ATOM     14  C   UNL d   1      59.288  -8.374  35.047  0.00  0.00     0.049 A 
ATOM     15  C   UNL d   1      59.294  -8.306  35.860  0.00  0.00     0.142 A 
ATOM     16  F   UNL d   1      59.027  -7.610  36.228  0.00  0.00    -0.204 F 
ATOM     17  C   UNL d   1      59.567  -8.925  36.319  0.00  0.00     0.030 A 
ATOM     18  C   UNL d   1      59.834  -9.618  35.966  0.00  0.00     0.004 A 
ATOM     19  C   UNL d   1      59.828  -9.691  35.141  0.00  0.00     0.019 A 
ENDBRANCH   2  13
TORSDOF 2
ENDMDL
