MODEL 1
REMARK VINA RESULT:      -9.0      0.000      0.000
REMARK  4 active torsions:
REMARK  status: ('A' for Active; 'I' for Inactive)
REMARK    1  A    between atoms: C_11  and  C_3 
REMARK    2  A    between atoms: N_10  and  C_4 
REMARK    3  A    between atoms: C_13  and  N_10 
REMARK    4  A    between atoms: C_14  and  C_13 
ROOT
ATOM      1  C   UNL d   1     -47.861  13.148  23.197  0.00  0.00     0.167 A 
ATOM      2  N   UNL d   1     -47.086  12.895  23.313  0.00  0.00    -0.195 N 
ATOM      3  C   UNL d   1     -47.837  13.931  22.962  0.00  0.00     0.057 A 
ATOM      4  C   UNL d   1     -46.936  12.123  23.554  0.00  0.00     0.167 A 
ATOM      5  N   UNL d   1     -46.590  13.525  23.148  0.00  0.00    -0.161 NA
ATOM      6  N   UNL d   1     -48.487  12.629  23.322  0.00  0.00    -0.227 NA
ATOM      7  C   UNL d   1     -47.568  11.602  23.680  0.00  0.00     0.058 A 
ATOM      8  C   UNL d   1     -47.045  14.159  22.933  0.00  0.00     0.124 A 
ATOM      9  C   UNL d   1     -48.335  11.852  23.565  0.00  0.00     0.086 A 
ATOM     10  C   UNL d   1     -48.948  11.315  23.696  0.00  0.00     0.021 C 
ENDROOT
BRANCH   4  11
ATOM     11  N   UNL d   1     -46.160  11.870  23.670  0.00  0.00    -0.224 NA
BRANCH  11  12
ATOM     12  C   UNL d   1     -45.926  11.128  23.405  0.00  0.00     0.120 C 
BRANCH  12  13
ATOM     13  C   UNL d   1     -45.117  10.929  23.385  0.00  0.00     0.101 A 
ATOM     14  N   UNL d   1     -44.567  11.451  23.052  0.00  0.00    -0.242 NA
ATOM     15  C   UNL d   1     -43.772  11.255  23.032  0.00  0.00     0.099 A 
ATOM     16  C   UNL d   1     -43.513  10.534  23.347  0.00  0.00     0.021 A 
ATOM     17  C   UNL d   1     -44.062  10.015  23.679  0.00  0.00     0.003 A 
ATOM     18  C   UNL d   1     -44.866  10.213  23.698  0.00  0.00     0.021 A 
ENDBRANCH  12  13
ENDBRANCH  11  12
ENDBRANCH   4  11
BRANCH   3  19
ATOM     19  C   UNL d   1     -48.534  14.346  22.801  0.00  0.00     0.004 A 
ATOM     20  C   UNL d   1     -48.837  14.345  22.030  0.00  0.00     0.000 A 
ATOM     21  C   UNL d   1     -49.528  14.754  21.863  0.00  0.00     0.000 A 
ATOM     22  C   UNL d   1     -49.925  15.168  22.466  0.00  0.00     0.000 A 
ATOM     23  C   UNL d   1     -49.616  15.164  23.230  0.00  0.00     0.000 A 
ATOM     24  C   UNL d   1     -48.920  14.751  23.396  0.00  0.00     0.000 A 
ENDBRANCH   3  19
TORSDOF 4
ENDMDL
MODEL 2
REMARK VINA RESULT:      -8.1      1.185      1.760
REMARK  4 active torsions:
REMARK  status: ('A' for Active; 'I' for Inactive)
REMARK    1  A    between atoms: C_11  and  C_3 
REMARK    2  A    between atoms: N_10  and  C_4 
REMARK    3  A    between atoms: C_13  and  N_10 
REMARK    4  A    between atoms: C_14  and  C_13 
ROOT
ATOM      1  C   UNL d   1     -48.261  12.574  22.884  0.00  0.00     0.167 A 
ATOM      2  N   UNL d   1     -47.692  12.001  23.049  0.00  0.00    -0.195 N 
ATOM      3  C   UNL d   1     -48.980  12.193  22.791  0.00  0.00     0.057 A 
ATOM      4  C   UNL d   1     -46.909  12.222  23.172  0.00  0.00     0.167 A 
ATOM      5  N   UNL d   1     -48.064  11.273  23.056  0.00  0.00    -0.161 NA
ATOM      6  N   UNL d   1     -48.047  13.367  22.842  0.00  0.00    -0.227 NA
ATOM      7  C   UNL d   1     -46.696  13.021  23.128  0.00  0.00     0.058 A 
ATOM      8  C   UNL d   1     -48.851  11.385  22.898  0.00  0.00     0.124 A 
ATOM      9  C   UNL d   1     -47.259  13.588  22.965  0.00  0.00     0.086 A 
ATOM     10  C   UNL d   1     -47.023  14.378  22.927  0.00  0.00     0.021 C 
ENDROOT
BRANCH   4  11
ATOM     11  N   UNL d   1     -46.340  11.649  23.336  0.00  0.00    -0.224 NA
BRANCH  11  12
ATOM     12  C   UNL d   1     -45.541  11.834  23.276  0.00  0.00     0.120 C 
BRANCH  12  13
ATOM     13  C   UNL d   1     -44.968  11.231  23.330  0.00  0.00     0.101 A 
ATOM     14  N   UNL d   1     -44.193  11.369  23.074  0.00  0.00    -0.242 NA
ATOM     15  C   UNL d   1     -43.630  10.777  23.126  0.00  0.00     0.099 A 
ATOM     16  C   UNL d   1     -43.833  10.035  23.435  0.00  0.00     0.021 A 
ATOM     17  C   UNL d   1     -44.606   9.900  23.689  0.00  0.00     0.003 A 
ATOM     18  C   UNL d   1     -45.175  10.499  23.636  0.00  0.00     0.021 A 
ENDBRANCH  12  13
ENDBRANCH  11  12
ENDBRANCH   4  11
BRANCH   3  19
ATOM     19  C   UNL d   1     -49.665  12.623  22.619  0.00  0.00     0.004 A 
ATOM     20  C   UNL d   1     -50.010  12.552  21.870  0.00  0.00     0.000 A 
ATOM     21  C   UNL d   1     -50.690  12.975  21.692  0.00  0.00     0.000 A 
ATOM     22  C   UNL d   1     -51.034  13.473  22.263  0.00  0.00     0.000 A 
ATOM     23  C   UNL d   1     -50.684  13.537  23.007  0.00  0.00     0.000 A 
ATOM     24  C   UNL d   1     -49.999  13.111  23.183  0.00  0.00     0.000 A 
ENDBRANCH   3  19
TORSDOF 4
ENDMDL
