MODEL 1
REMARK VINA RESULT:      -8.9      0.000      0.000
REMARK  7 active torsions:
REMARK  status: ('A' for Active; 'I' for Inactive)
REMARK    1  A    between atoms: C_6  and  N_2 
REMARK    2  A    between atoms: C_7  and  C_3 
REMARK    3  A    between atoms: C_12  and  C_6 
REMARK    4  A    between atoms: C_21  and  C_7 
REMARK    5  A    between atoms: C_9  and  O_11 
REMARK    6  A    between atoms: O_11  and  C_12 
REMARK    7  A    between atoms: C_19  and  C_21 
ROOT
ATOM      1  N   UNL d   1      53.776  31.622  54.526  0.00  0.00    -0.227 NA
ATOM      2  N   UNL d   1      53.244  32.263  53.451  0.00  0.00    -0.287 N 
ATOM      3  C   UNL d   1      53.623  32.372  54.188  0.00  0.00     0.148 A 
ATOM      4  C   UNL d   1      53.163  31.437  53.335  0.00  0.00     0.083 A 
ATOM      5  C   UNL d   1      53.487  31.050  53.989  0.00  0.00     0.099 A 
ATOM      6  C   UNL d   1      52.836  30.992  52.717  0.00  0.00     0.019 A 
ATOM      7  C   UNL d   1      53.486  30.227  54.030  0.00  0.00     0.021 A 
ATOM      8  C   UNL d   1      52.835  30.169  52.757  0.00  0.00     0.002 A 
ATOM      9  C   UNL d   1      53.160  29.786  53.414  0.00  0.00     0.002 A 
ENDROOT
BRANCH   2  10
ATOM     10  C   UNL d   1      52.995  32.850  52.933  0.00  0.00     0.108 C 
BRANCH  10  11
ATOM     11  C   UNL d   1      52.253  33.210  53.030  0.00  0.00     0.142 C 
BRANCH  11  12
ATOM     12  O   UNL d   1      52.027  33.818  52.529  0.00  0.00    -0.304 OA
BRANCH  12  13
ATOM     13  C   UNL d   1      51.254  34.099  52.546  0.00  0.00     0.100 A 
ATOM     14  C   UNL d   1      50.796  34.072  51.865  0.00  0.00     0.025 A 
ATOM     15  C   UNL d   1      50.020  34.353  51.880  0.00  0.00     0.002 A 
ATOM     16  C   UNL d   1      49.559  34.327  51.196  0.00  0.00     0.000 C 
ATOM     17  C   UNL d   1      49.703  34.662  52.581  0.00  0.00     0.000 A 
ATOM     18  C   UNL d   1      50.172  34.686  53.267  0.00  0.00     0.002 A 
ATOM     19  C   UNL d   1      50.945  34.405  53.250  0.00  0.00     0.025 A 
ENDBRANCH  12  13
ENDBRANCH  11  12
ENDBRANCH  10  11
ENDBRANCH   2  10
BRANCH   3  20
ATOM     20  C   UNL d   1      53.949  32.813  54.804  0.00  0.00     0.041 C 
BRANCH  20  21
ATOM     21  C   UNL d   1      54.656  33.219  54.688  0.00  0.00     0.049 C 
BRANCH  21  22
ATOM     22  C   UNL d   1      54.939  33.727  55.273  0.00  0.00     0.234 C 
ATOM     23  O   UNL d   1      55.647  34.131  55.163  0.00  0.00    -0.283 OA
ENDBRANCH  21  22
ENDBRANCH  20  21
ENDBRANCH   3  20
TORSDOF 7
ENDMDL
MODEL 2
REMARK VINA RESULT:      -8.4      1.163      4.027
REMARK  7 active torsions:
REMARK  status: ('A' for Active; 'I' for Inactive)
REMARK    1  A    between atoms: C_6  and  N_2 
REMARK    2  A    between atoms: C_7  and  C_3 
REMARK    3  A    between atoms: C_12  and  C_6 
REMARK    4  A    between atoms: C_21  and  C_7 
REMARK    5  A    between atoms: C_9  and  O_11 
REMARK    6  A    between atoms: O_11  and  C_12 
REMARK    7  A    between atoms: C_19  and  C_21 
ROOT
ATOM      1  N   UNL d   1      52.772  34.240  54.293  0.00  0.00    -0.227 NA
ATOM      2  N   UNL d   1      53.017  33.187  53.468  0.00  0.00    -0.287 N 
ATOM      3  C   UNL d   1      53.259  33.571  54.170  0.00  0.00     0.148 A 
ATOM      4  C   UNL d   1      52.375  33.626  53.156  0.00  0.00     0.083 A 
ATOM      5  C   UNL d   1      52.228  34.266  53.660  0.00  0.00     0.099 A 
ATOM      6  C   UNL d   1      51.908  33.524  52.480  0.00  0.00     0.019 A 
ATOM      7  C   UNL d   1      51.623  34.799  53.492  0.00  0.00     0.021 A 
ATOM      8  C   UNL d   1      51.301  34.057  52.312  0.00  0.00     0.002 A 
ATOM      9  C   UNL d   1      51.159  34.695  52.818  0.00  0.00     0.002 A 
ENDROOT
BRANCH   2  10
ATOM     10  C   UNL d   1      53.342  32.509  53.139  0.00  0.00     0.108 C 
BRANCH  10  11
ATOM     11  C   UNL d   1      53.085  31.758  53.383  0.00  0.00     0.142 C 
BRANCH  11  12
ATOM     12  O   UNL d   1      53.524  31.094  53.189  0.00  0.00    -0.304 OA
BRANCH  12  13
ATOM     13  C   UNL d   1      53.250  30.346  53.392  0.00  0.00     0.100 A 
ATOM     14  C   UNL d   1      53.538  29.977  54.066  0.00  0.00     0.025 A 
ATOM     15  C   UNL d   1      53.264  29.225  54.273  0.00  0.00     0.002 A 
ATOM     16  C   UNL d   1      53.552  28.853  54.951  0.00  0.00     0.000 C 
ATOM     17  C   UNL d   1      52.700  28.844  53.799  0.00  0.00     0.000 A 
ATOM     18  C   UNL d   1      52.414  29.223  53.118  0.00  0.00     0.002 A 
ATOM     19  C   UNL d   1      52.688  29.972  52.914  0.00  0.00     0.025 A 
ENDBRANCH  12  13
ENDBRANCH  11  12
ENDBRANCH  10  11
ENDBRANCH   2  10
BRANCH   3  20
ATOM     20  C   UNL d   1      53.723  33.674  54.844  0.00  0.00     0.041 C 
BRANCH  20  21
ATOM     21  C   UNL d   1      54.534  33.793  54.769  0.00  0.00     0.049 C 
BRANCH  21  22
ATOM     22  C   UNL d   1      55.016  33.775  55.438  0.00  0.00     0.234 C 
ATOM     23  O   UNL d   1      55.746  34.155  55.433  0.00  0.00    -0.283 OA
ENDBRANCH  21  22
ENDBRANCH  20  21
ENDBRANCH   3  20
TORSDOF 7
ENDMDL
MODEL 3
REMARK VINA RESULT:      -8.3      1.320      4.442
REMARK  7 active torsions:
REMARK  status: ('A' for Active; 'I' for Inactive)
REMARK    1  A    between atoms: C_6  and  N_2 
REMARK    2  A    between atoms: C_7  and  C_3 
REMARK    3  A    between atoms: C_12  and  C_6 
REMARK    4  A    between atoms: C_21  and  C_7 
REMARK    5  A    between atoms: C_9  and  O_11 
REMARK    6  A    between atoms: O_11  and  C_12 
REMARK    7  A    between atoms: C_19  and  C_21 
ROOT
ATOM      1  N   UNL d   1      52.858  34.261  54.268  0.00  0.00    -0.227 NA
ATOM      2  N   UNL d   1      53.474  33.164  53.752  0.00  0.00    -0.287 N 
ATOM      3  C   UNL d   1      52.783  33.631  53.721  0.00  0.00     0.148 A 
ATOM      4  C   UNL d   1      53.981  33.509  54.323  0.00  0.00     0.083 A 
ATOM      5  C   UNL d   1      53.603  34.175  54.635  0.00  0.00     0.099 A 
ATOM      6  C   UNL d   1      54.734  33.300  54.596  0.00  0.00     0.019 A 
ATOM      7  C   UNL d   1      53.972  34.631  55.214  0.00  0.00     0.021 A 
ATOM      8  C   UNL d   1      55.104  33.756  55.176  0.00  0.00     0.002 A 
ATOM      9  C   UNL d   1      54.722  34.421  55.485  0.00  0.00     0.002 A 
ENDROOT
BRANCH   2  10
ATOM     10  C   UNL d   1      53.635  32.491  53.308  0.00  0.00     0.108 C 
BRANCH  10  11
ATOM     11  C   UNL d   1      53.320  31.756  53.529  0.00  0.00     0.142 C 
BRANCH  11  12
ATOM     12  O   UNL d   1      53.615  31.069  53.193  0.00  0.00    -0.304 OA
BRANCH  12  13
ATOM     13  C   UNL d   1      53.286  30.341  53.390  0.00  0.00     0.100 A 
ATOM     14  C   UNL d   1      53.565  29.933  54.045  0.00  0.00     0.025 A 
ATOM     15  C   UNL d   1      53.236  29.202  54.245  0.00  0.00     0.002 A 
ATOM     16  C   UNL d   1      53.515  28.790  54.903  0.00  0.00     0.000 C 
ATOM     17  C   UNL d   1      52.626  28.881  53.784  0.00  0.00     0.000 A 
ATOM     18  C   UNL d   1      52.349  29.300  53.122  0.00  0.00     0.002 A 
ATOM     19  C   UNL d   1      52.678  30.028  52.925  0.00  0.00     0.025 A 
ENDBRANCH  12  13
ENDBRANCH  11  12
ENDBRANCH  10  11
ENDBRANCH   2  10
BRANCH   3  20
ATOM     20  C   UNL d   1      52.032  33.841  53.450  0.00  0.00     0.041 C 
BRANCH  20  21
ATOM     21  C   UNL d   1      51.940  34.143  52.689  0.00  0.00     0.049 C 
BRANCH  21  22
ATOM     22  C   UNL d   1      51.184  34.280  52.390  0.00  0.00     0.234 C 
ATOM     23  O   UNL d   1      51.054  34.275  51.577  0.00  0.00    -0.283 OA
ENDBRANCH  21  22
ENDBRANCH  20  21
ENDBRANCH   3  20
TORSDOF 7
ENDMDL
MODEL 4
REMARK VINA RESULT:      -7.8      1.173      2.712
REMARK  7 active torsions:
REMARK  status: ('A' for Active; 'I' for Inactive)
REMARK    1  A    between atoms: C_6  and  N_2 
REMARK    2  A    between atoms: C_7  and  C_3 
REMARK    3  A    between atoms: C_12  and  C_6 
REMARK    4  A    between atoms: C_21  and  C_7 
REMARK    5  A    between atoms: C_9  and  O_11 
REMARK    6  A    between atoms: O_11  and  C_12 
REMARK    7  A    between atoms: C_19  and  C_21 
ROOT
ATOM      1  N   UNL d   1      54.192  32.220  53.742  0.00  0.00    -0.227 NA
ATOM      2  N   UNL d   1      53.066  32.943  53.987  0.00  0.00    -0.287 N 
ATOM      3  C   UNL d   1      53.369  32.268  53.599  0.00  0.00     0.148 A 
ATOM      4  C   UNL d   1      53.710  33.315  54.373  0.00  0.00     0.083 A 
ATOM      5  C   UNL d   1      54.393  32.873  54.223  0.00  0.00     0.099 A 
ATOM      6  C   UNL d   1      53.758  33.997  54.840  0.00  0.00     0.019 A 
ATOM      7  C   UNL d   1      55.118  33.108  54.534  0.00  0.00     0.021 A 
ATOM      8  C   UNL d   1      54.485  34.232  55.153  0.00  0.00     0.002 A 
ATOM      9  C   UNL d   1      55.165  33.787  55.000  0.00  0.00     0.002 A 
ENDROOT
BRANCH   2  10
ATOM     10  C   UNL d   1      52.286  33.200  53.993  0.00  0.00     0.108 C 
BRANCH  10  11
ATOM     11  C   UNL d   1      51.957  33.565  53.324  0.00  0.00     0.142 C 
BRANCH  11  12
ATOM     12  O   UNL d   1      51.311  34.062  53.407  0.00  0.00    -0.304 OA
BRANCH  12  13
ATOM     13  C   UNL d   1      50.820  34.210  52.764  0.00  0.00     0.100 A 
ATOM     14  C   UNL d   1      50.054  34.474  52.889  0.00  0.00     0.025 A 
ATOM     15  C   UNL d   1      49.559  34.623  52.245  0.00  0.00     0.002 A 
ATOM     16  C   UNL d   1      48.788  34.888  52.370  0.00  0.00     0.000 C 
ATOM     17  C   UNL d   1      49.837  34.505  51.472  0.00  0.00     0.000 A 
ATOM     18  C   UNL d   1      50.614  34.238  51.353  0.00  0.00     0.002 A 
ATOM     19  C   UNL d   1      51.105  34.090  51.996  0.00  0.00     0.025 A 
ENDBRANCH  12  13
ENDBRANCH  11  12
ENDBRANCH  10  11
ENDBRANCH   2  10
BRANCH   3  20
ATOM     20  C   UNL d   1      53.322  31.588  53.133  0.00  0.00     0.041 C 
BRANCH  20  21
ATOM     21  C   UNL d   1      53.092  30.873  53.473  0.00  0.00     0.049 C 
BRANCH  21  22
ATOM     22  C   UNL d   1      52.922  30.226  52.991  0.00  0.00     0.234 C 
ATOM     23  O   UNL d   1      52.589  29.546  53.314  0.00  0.00    -0.283 OA
ENDBRANCH  21  22
ENDBRANCH  20  21
ENDBRANCH   3  20
TORSDOF 7
ENDMDL
MODEL 5
REMARK VINA RESULT:      -7.0      1.517      2.150
REMARK  7 active torsions:
REMARK  status: ('A' for Active; 'I' for Inactive)
REMARK    1  A    between atoms: C_6  and  N_2 
REMARK    2  A    between atoms: C_7  and  C_3 
REMARK    3  A    between atoms: C_12  and  C_6 
REMARK    4  A    between atoms: C_21  and  C_7 
REMARK    5  A    between atoms: C_9  and  O_11 
REMARK    6  A    between atoms: O_11  and  C_12 
REMARK    7  A    between atoms: C_19  and  C_21 
ROOT
ATOM      1  N   UNL d   1      53.297  33.563  53.360  0.00  0.00    -0.227 NA
ATOM      2  N   UNL d   1      51.942  33.440  53.326  0.00  0.00    -0.287 N 
ATOM      3  C   UNL d   1      52.573  33.979  53.420  0.00  0.00     0.148 A 
ATOM      4  C   UNL d   1      52.281  32.683  53.206  0.00  0.00     0.083 A 
ATOM      5  C   UNL d   1      53.104  32.760  53.227  0.00  0.00     0.099 A 
ATOM      6  C   UNL d   1      51.944  31.937  53.081  0.00  0.00     0.019 A 
ATOM      7  C   UNL d   1      53.588  32.101  53.125  0.00  0.00     0.021 A 
ATOM      8  C   UNL d   1      52.428  31.277  52.978  0.00  0.00     0.002 A 
ATOM      9  C   UNL d   1      53.251  31.359  53.000  0.00  0.00     0.002 A 
ENDROOT
BRANCH   2  10
ATOM     10  C   UNL d   1      51.140  33.611  53.345  0.00  0.00     0.108 C 
BRANCH  10  11
ATOM     11  C   UNL d   1      50.768  33.962  52.691  0.00  0.00     0.142 C 
BRANCH  11  12
ATOM     12  O   UNL d   1      50.068  34.376  52.794  0.00  0.00    -0.304 OA
BRANCH  12  13
ATOM     13  C   UNL d   1      49.572  34.510  52.152  0.00  0.00     0.100 A 
ATOM     14  C   UNL d   1      48.891  34.959  52.251  0.00  0.00     0.025 A 
ATOM     15  C   UNL d   1      48.392  35.096  51.608  0.00  0.00     0.002 A 
ATOM     16  C   UNL d   1      47.708  35.547  51.705  0.00  0.00     0.000 C 
ATOM     17  C   UNL d   1      48.577  34.780  50.863  0.00  0.00     0.000 A 
ATOM     18  C   UNL d   1      49.267  34.327  50.771  0.00  0.00     0.002 A 
ATOM     19  C   UNL d   1      49.763  34.192  51.413  0.00  0.00     0.025 A 
ENDBRANCH  12  13
ENDBRANCH  11  12
ENDBRANCH  10  11
ENDBRANCH   2  10
BRANCH   3  20
ATOM     20  C   UNL d   1      52.911  34.721  53.545  0.00  0.00     0.041 C 
BRANCH  20  21
ATOM     21  C   UNL d   1      52.876  35.068  54.292  0.00  0.00     0.049 C 
BRANCH  21  22
ATOM     22  C   UNL d   1      53.249  35.791  54.426  0.00  0.00     0.234 C 
ATOM     23  O   UNL d   1      52.877  36.370  54.879  0.00  0.00    -0.283 OA
ENDBRANCH  21  22
ENDBRANCH  20  21
ENDBRANCH   3  20
TORSDOF 7
ENDMDL
