MODEL 1
REMARK VINA RESULT:      -5.1      0.000      0.000
REMARK  3 active torsions:
REMARK  status: ('A' for Active; 'I' for Inactive)
REMARK    1  A    between atoms: C_8  and  C_2 
REMARK    2  A    between atoms: C_7  and  C_5 
REMARK    3  A    between atoms: C_10  and  C_8 
ROOT
ATOM      1  C   UNL d   1      57.336   0.326  31.540  0.00  0.00     0.101 A 
ATOM      2  O   UNL d   1      58.146   0.298  31.471  0.00  0.00    -0.307 OA
ATOM      3  C   UNL d   1      58.328   0.528  30.691  0.00  0.00     0.101 A 
ATOM      4  C   UNL d   1      57.050   0.567  30.818  0.00  0.00     0.027 A 
ATOM      5  C   UNL d   1      57.681   0.682  30.322  0.00  0.00     0.027 A 
ENDROOT
BRANCH   1   6
ATOM      6  C   UNL d   1      56.919   0.138  32.229  0.00  0.00     0.034 A 
ATOM      7  C   UNL d   1      56.578  -0.638  32.298  0.00  0.00     0.070 A 
ATOM      8  C   UNL d   1      56.149  -0.841  32.999  0.00  0.00     0.068 A 
ATOM      9 CL   UNL d   1      56.618  -1.293  31.701  0.00  0.00    -0.081 Cl
ATOM     10 CL   UNL d   1      55.880  -1.609  32.933  0.00  0.00    -0.082 Cl
ATOM     11  C   UNL d   1      56.076  -0.270  33.597  0.00  0.00     0.012 A 
ATOM     12  C   UNL d   1      56.419   0.491  33.510  0.00  0.00     0.001 A 
ATOM     13  C   UNL d   1      56.829   0.682  32.839  0.00  0.00     0.003 A 
ENDBRANCH   1   6
BRANCH   3  14
ATOM     14  C   UNL d   1      59.089   0.591  30.341  0.00  0.00     0.036 C 
BRANCH  14  15
ATOM     15  C   UNL d   1      59.348  -0.010  29.838  0.00  0.00     0.094 A 
ATOM     16  C   UNL d   1      60.146  -0.153  29.726  0.00  0.00     0.288 A 
ATOM     17  N   UNL d   1      60.234  -0.791  29.189  0.00  0.00    -0.163 NA
ATOM     18  O   UNL d   1      60.797   0.281  30.099  0.00  0.00    -0.265 OA
ATOM     19  C   UNL d   1      59.519  -1.009  28.997  0.00  0.00     0.313 A 
ATOM     20  S   UNL d   1      58.936  -0.545  29.382  0.00  0.00    -0.021 SA
ATOM     21  O   UNL d   1      59.426  -1.644  28.461  0.00  0.00    -0.258 OA
ENDBRANCH  14  15
ENDBRANCH   3  14
TORSDOF 3
ENDMDL
MODEL 2
REMARK VINA RESULT:      -3.5      2.651      4.560
REMARK  3 active torsions:
REMARK  status: ('A' for Active; 'I' for Inactive)
REMARK    1  A    between atoms: C_8  and  C_2 
REMARK    2  A    between atoms: C_7  and  C_5 
REMARK    3  A    between atoms: C_10  and  C_8 
ROOT
ATOM      1  C   UNL d   1      57.373  -0.277  31.295  0.00  0.00     0.101 A 
ATOM      2  O   UNL d   1      57.539   0.116  31.988  0.00  0.00    -0.307 OA
ATOM      3  C   UNL d   1      56.998  -0.163  32.556  0.00  0.00     0.101 A 
ATOM      4  C   UNL d   1      56.750  -0.774  31.454  0.00  0.00     0.027 A 
ATOM      5  C   UNL d   1      56.545  -0.681  32.232  0.00  0.00     0.027 A 
ENDROOT
BRANCH   1   6
ATOM      6  C   UNL d   1      57.782  -0.165  30.584  0.00  0.00     0.034 A 
ATOM      7  C   UNL d   1      58.127  -0.843  30.204  0.00  0.00     0.070 A 
ATOM      8  C   UNL d   1      58.548  -0.740  29.476  0.00  0.00     0.068 A 
ATOM      9 CL   UNL d   1      58.101  -1.683  30.486  0.00  0.00    -0.081 Cl
ATOM     10 CL   UNL d   1      58.824  -1.466  29.224  0.00  0.00    -0.082 Cl
ATOM     11  C   UNL d   1      58.608   0.025  29.159  0.00  0.00     0.012 A 
ATOM     12  C   UNL d   1      58.260   0.682  29.549  0.00  0.00     0.001 A 
ATOM     13  C   UNL d   1      57.859   0.579  30.245  0.00  0.00     0.003 A 
ENDBRANCH   1   6
BRANCH   3  14
ATOM     14  C   UNL d   1      56.939   0.068  33.361  0.00  0.00     0.036 C 
BRANCH  14  15
ATOM     15  C   UNL d   1      56.198   0.262  33.668  0.00  0.00     0.094 A 
ATOM     16  C   UNL d   1      56.116   0.533  34.436  0.00  0.00     0.288 A 
ATOM     17  N   UNL d   1      55.304   0.682  34.585  0.00  0.00    -0.163 NA
ATOM     18  O   UNL d   1      56.759   0.650  35.004  0.00  0.00    -0.265 OA
ATOM     19  C   UNL d   1      54.930   0.505  33.933  0.00  0.00     0.313 A 
ATOM     20  S   UNL d   1      55.454   0.238  33.335  0.00  0.00    -0.021 SA
ATOM     21  O   UNL d   1      54.100   0.597  33.911  0.00  0.00    -0.258 OA
ENDBRANCH  14  15
ENDBRANCH   3  14
TORSDOF 3
ENDMDL
MODEL 3
REMARK VINA RESULT:      -2.4      2.155      4.198
REMARK  3 active torsions:
REMARK  status: ('A' for Active; 'I' for Inactive)
REMARK    1  A    between atoms: C_8  and  C_2 
REMARK    2  A    between atoms: C_7  and  C_5 
REMARK    3  A    between atoms: C_10  and  C_8 
ROOT
ATOM      1  C   UNL d   1      58.816  -0.965  29.385  0.00  0.00     0.101 A 
ATOM      2  O   UNL d   1      58.358  -0.854  30.048  0.00  0.00    -0.307 OA
ATOM      3  C   UNL d   1      57.923  -0.154  29.925  0.00  0.00     0.101 A 
ATOM      4  C   UNL d   1      58.653  -0.344  28.885  0.00  0.00     0.027 A 
ATOM      5  C   UNL d   1      58.105   0.132  29.244  0.00  0.00     0.027 A 
ENDROOT
BRANCH   1   6
ATOM      6  C   UNL d   1      59.336  -1.599  29.275  0.00  0.00     0.034 A 
ATOM      7  C   UNL d   1      59.018  -2.342  29.011  0.00  0.00     0.070 A 
ATOM      8  C   UNL d   1      59.541  -2.998  28.896  0.00  0.00     0.068 A 
ATOM      9 CL   UNL d   1      58.169  -2.526  28.833  0.00  0.00    -0.081 Cl
ATOM     10 CL   UNL d   1      59.108  -3.642  28.644  0.00  0.00    -0.082 Cl
ATOM     11  C   UNL d   1      60.350  -2.889  29.047  0.00  0.00     0.012 A 
ATOM     12  C   UNL d   1      60.645  -2.148  29.307  0.00  0.00     0.001 A 
ATOM     13  C   UNL d   1      60.141  -1.523  29.416  0.00  0.00     0.003 A 
ENDBRANCH   1   6
BRANCH   3  14
ATOM     14  C   UNL d   1      57.370   0.202  30.446  0.00  0.00     0.036 C 
BRANCH  14  15
ATOM     15  C   UNL d   1      57.565   0.281  31.244  0.00  0.00     0.094 A 
ATOM     16  C   UNL d   1      57.031   0.082  31.832  0.00  0.00     0.288 A 
ATOM     17  N   UNL d   1      57.386   0.221  32.578  0.00  0.00    -0.163 NA
ATOM     18  O   UNL d   1      56.230  -0.223  31.708  0.00  0.00    -0.265 OA
ATOM     19  C   UNL d   1      58.095   0.489  32.432  0.00  0.00     0.313 A 
ATOM     20  S   UNL d   1      58.246   0.542  31.608  0.00  0.00    -0.021 SA
ATOM     21  O   UNL d   1      58.591   0.681  33.077  0.00  0.00    -0.258 OA
ENDBRANCH  14  15
ENDBRANCH   3  14
TORSDOF 3
ENDMDL
