MODEL 1
REMARK VINA RESULT:      -8.2      0.000      0.000
REMARK  8 active torsions:
REMARK  status: ('A' for Active; 'I' for Inactive)
REMARK    1  A    between atoms: N_3  and  C_1 
REMARK       I    between atoms: C_8  and  N_3 
REMARK    2  A    between atoms: O_12  and  C_4 
REMARK    3  A    between atoms: S_20  and  C_5 
REMARK    4  A    between atoms: C_13  and  C_8 
REMARK    5  A    between atoms: C_9  and  O_12 
REMARK    6  A    between atoms: C_14  and  C_9 
REMARK    7  A    between atoms: C_16  and  C_28 
REMARK    8  A    between atoms: C_28  and  S_20 
ROOT
ATOM      1  C   UNL d   1      48.035  35.329  51.976  0.00  0.00     0.167 A 
ATOM      2  C   UNL d   1      48.229  34.920  51.291  0.00  0.00     0.222 A 
ATOM      3  C   UNL d   1      48.980  34.569  51.245  0.00  0.00     0.069 A 
ATOM      4  C   UNL d   1      48.569  35.391  52.601  0.00  0.00     0.151 A 
ATOM      5  C   UNL d   1      49.514  34.631  51.870  0.00  0.00     0.110 A 
ATOM      6  O   UNL d   1      49.302  35.044  52.548  0.00  0.00    -0.302 OA
ATOM      7  O   UNL d   1      47.701  34.859  50.672  0.00  0.00    -0.284 OA
ENDROOT
BRANCH   5   8
ATOM      8  C   UNL d   1      50.255  34.280  51.816  0.00  0.00     0.062 C 
BRANCH   8   9
ATOM      9  S   UNL d   1      50.722  34.207  52.491  0.00  0.00    -0.057 SA
BRANCH   9  10
ATOM     10  C   UNL d   1      51.552  33.973  52.878  0.00  0.00     0.166 A 
ATOM     11  S   UNL d   1      52.285  34.254  53.125  0.00  0.00    -0.006 SA
ATOM     12  C   UNL d   1      52.719  33.618  53.425  0.00  0.00     0.269 A 
ATOM     13  N   UNL d   1      52.247  32.940  53.361  0.00  0.00    -0.107 NA
ATOM     14  N   UNL d   1      51.527  33.159  53.023  0.00  0.00    -0.132 NA
BRANCH  12  15
ATOM     15  N   UNL d   1      53.438  33.400  53.763  0.00  0.00    -0.337 NA
ATOM     16  C   UNL d   1      54.158  33.181  54.101  0.00  0.00     0.330 C 
ATOM     17  O   UNL d   1      54.314  32.709  53.442  0.00  0.00    -0.251 OA
BRANCH  16  18
ATOM     18  C   UNL d   1      54.555  33.359  54.803  0.00  0.00     0.070 A 
ATOM     19  C   UNL d   1      54.612  33.296  55.624  0.00  0.00     0.006 A 
ATOM     20  C   UNL d   1      55.187  33.733  55.195  0.00  0.00     0.006 A 
ENDBRANCH  16  18
ENDBRANCH  12  15
ENDBRANCH   9  10
ENDBRANCH   8   9
ENDBRANCH   5   8
BRANCH   1  21
ATOM     21  O   UNL d   1      47.288  35.685  52.035  0.00  0.00    -0.268 OA
BRANCH  21  22
ATOM     22  C   UNL d   1      47.128  36.209  52.656  0.00  0.00     0.300 C 
ATOM     23  O   UNL d   1      47.733  36.693  52.952  0.00  0.00    -0.259 OA
BRANCH  22  24
ATOM     24  C   UNL d   1      46.355  36.246  52.981  0.00  0.00     0.064 A 
ATOM     25  C   UNL d   1      45.721  36.455  52.496  0.00  0.00     0.005 A 
ATOM     26  C   UNL d   1      44.945  36.494  52.812  0.00  0.00     0.000 A 
ATOM     27  C   UNL d   1      44.316  36.704  52.321  0.00  0.00     0.000 C 
ATOM     28  C   UNL d   1      44.830  36.320  53.614  0.00  0.00     0.000 A 
ATOM     29  C   UNL d   1      45.474  36.108  54.106  0.00  0.00     0.000 A 
ATOM     30  C   UNL d   1      46.223  36.075  53.780  0.00  0.00     0.005 A 
ATOM     31  C   UNL d   1      45.335  35.940  54.895  0.00  0.00     0.000 C 
ENDBRANCH  22  24
ENDBRANCH  21  22
ENDBRANCH   1  21
TORSDOF 8
ENDMDL
MODEL 2
REMARK VINA RESULT:      -7.5      1.791      2.067
REMARK  8 active torsions:
REMARK  status: ('A' for Active; 'I' for Inactive)
REMARK    1  A    between atoms: N_3  and  C_1 
REMARK       I    between atoms: C_8  and  N_3 
REMARK    2  A    between atoms: O_12  and  C_4 
REMARK    3  A    between atoms: S_20  and  C_5 
REMARK    4  A    between atoms: C_13  and  C_8 
REMARK    5  A    between atoms: C_9  and  O_12 
REMARK    6  A    between atoms: C_14  and  C_9 
REMARK    7  A    between atoms: C_16  and  C_28 
REMARK    8  A    between atoms: C_28  and  S_20 
ROOT
ATOM      1  C   UNL d   1      49.168  34.961  52.497  0.00  0.00     0.167 A 
ATOM      2  C   UNL d   1      49.438  34.586  51.818  0.00  0.00     0.222 A 
ATOM      3  C   UNL d   1      50.219  34.306  51.812  0.00  0.00     0.069 A 
ATOM      4  C   UNL d   1      49.656  35.059  53.153  0.00  0.00     0.151 A 
ATOM      5  C   UNL d   1      50.708  34.403  52.469  0.00  0.00     0.110 A 
ATOM      6  O   UNL d   1      50.420  34.781  53.139  0.00  0.00    -0.302 OA
ATOM      7  O   UNL d   1      48.955  34.490  51.168  0.00  0.00    -0.284 OA
ENDROOT
BRANCH   5   8
ATOM      8  C   UNL d   1      51.480  34.122  52.453  0.00  0.00     0.062 C 
BRANCH   8   9
ATOM      9  S   UNL d   1      51.709  33.532  52.980  0.00  0.00    -0.057 SA
BRANCH   9  10
ATOM     10  C   UNL d   1      52.146  32.706  53.128  0.00  0.00     0.166 A 
ATOM     11  S   UNL d   1      52.182  31.913  52.911  0.00  0.00    -0.006 SA
ATOM     12  C   UNL d   1      52.777  31.549  53.354  0.00  0.00     0.269 A 
ATOM     13  N   UNL d   1      53.109  32.125  53.848  0.00  0.00    -0.107 NA
ATOM     14  N   UNL d   1      52.719  32.839  53.709  0.00  0.00    -0.132 NA
BRANCH  12  15
ATOM     15  N   UNL d   1      53.166  30.836  53.493  0.00  0.00    -0.337 NA
ATOM     16  C   UNL d   1      53.555  30.123  53.632  0.00  0.00     0.330 C 
ATOM     17  O   UNL d   1      54.098  30.314  53.041  0.00  0.00    -0.251 OA
BRANCH  16  18
ATOM     18  C   UNL d   1      53.446  29.485  54.147  0.00  0.00     0.070 A 
ATOM     19  C   UNL d   1      53.286  28.685  54.264  0.00  0.00     0.006 A 
ATOM     20  C   UNL d   1      53.420  29.187  54.923  0.00  0.00     0.006 A 
ENDBRANCH  16  18
ENDBRANCH  12  15
ENDBRANCH   9  10
ENDBRANCH   8   9
ENDBRANCH   5   8
BRANCH   1  21
ATOM     21  O   UNL d   1      48.388  35.246  52.516  0.00  0.00    -0.268 OA
BRANCH  21  22
ATOM     22  C   UNL d   1      48.187  35.862  53.031  0.00  0.00     0.300 C 
ATOM     23  O   UNL d   1      48.785  36.297  53.407  0.00  0.00    -0.259 OA
BRANCH  22  24
ATOM     24  C   UNL d   1      47.379  36.041  53.170  0.00  0.00     0.064 A 
ATOM     25  C   UNL d   1      46.904  36.284  52.541  0.00  0.00     0.005 A 
ATOM     26  C   UNL d   1      46.095  36.465  52.670  0.00  0.00     0.000 A 
ATOM     27  C   UNL d   1      45.626  36.707  52.036  0.00  0.00     0.000 C 
ATOM     28  C   UNL d   1      45.787  36.396  53.436  0.00  0.00     0.000 A 
ATOM     29  C   UNL d   1      46.269  36.149  54.075  0.00  0.00     0.000 A 
ATOM     30  C   UNL d   1      47.055  35.977  53.929  0.00  0.00     0.005 A 
ATOM     31  C   UNL d   1      45.942  36.088  54.822  0.00  0.00     0.000 C 
ENDBRANCH  22  24
ENDBRANCH  21  22
ENDBRANCH   1  21
TORSDOF 8
ENDMDL
MODEL 3
REMARK VINA RESULT:      -7.1      2.322      7.132
REMARK  8 active torsions:
REMARK  status: ('A' for Active; 'I' for Inactive)
REMARK    1  A    between atoms: N_3  and  C_1 
REMARK       I    between atoms: C_8  and  N_3 
REMARK    2  A    between atoms: O_12  and  C_4 
REMARK    3  A    between atoms: S_20  and  C_5 
REMARK    4  A    between atoms: C_13  and  C_8 
REMARK    5  A    between atoms: C_9  and  O_12 
REMARK    6  A    between atoms: C_14  and  C_9 
REMARK    7  A    between atoms: C_16  and  C_28 
REMARK    8  A    between atoms: C_28  and  S_20 
ROOT
ATOM      1  C   UNL d   1      51.367  33.961  52.696  0.00  0.00     0.167 A 
ATOM      2  C   UNL d   1      51.246  34.235  51.931  0.00  0.00     0.222 A 
ATOM      3  C   UNL d   1      50.501  34.546  51.740  0.00  0.00     0.069 A 
ATOM      4  C   UNL d   1      50.767  33.992  53.259  0.00  0.00     0.151 A 
ATOM      5  C   UNL d   1      49.900  34.577  52.304  0.00  0.00     0.110 A 
ATOM      6  O   UNL d   1      50.039  34.298  53.064  0.00  0.00    -0.302 OA
ATOM      7  O   UNL d   1      51.841  34.204  51.372  0.00  0.00    -0.284 OA
ENDROOT
BRANCH   5   8
ATOM      8  C   UNL d   1      49.165  34.886  52.106  0.00  0.00     0.062 C 
BRANCH   8   9
ATOM      9  S   UNL d   1      48.749  35.333  52.660  0.00  0.00    -0.057 SA
BRANCH   9  10
ATOM     10  C   UNL d   1      47.917  35.606  53.017  0.00  0.00     0.166 A 
ATOM     11  S   UNL d   1      47.538  35.944  53.665  0.00  0.00    -0.006 SA
ATOM     12  C   UNL d   1      46.730  35.985  53.501  0.00  0.00     0.269 A 
ATOM     13  N   UNL d   1      46.611  35.670  52.744  0.00  0.00    -0.107 NA
ATOM     14  N   UNL d   1      47.344  35.437  52.445  0.00  0.00    -0.132 NA
BRANCH  12  15
ATOM     15  N   UNL d   1      45.998  36.219  53.799  0.00  0.00    -0.337 NA
ATOM     16  C   UNL d   1      45.266  36.452  54.098  0.00  0.00     0.330 C 
ATOM     17  O   UNL d   1      45.050  36.709  53.345  0.00  0.00    -0.251 OA
BRANCH  16  18
ATOM     18  C   UNL d   1      44.902  36.435  54.840  0.00  0.00     0.070 A 
ATOM     19  C   UNL d   1      44.314  36.140  55.338  0.00  0.00     0.006 A 
ATOM     20  C   UNL d   1      44.864  36.704  55.626  0.00  0.00     0.006 A 
ENDBRANCH  16  18
ENDBRANCH  12  15
ENDBRANCH   9  10
ENDBRANCH   8   9
ENDBRANCH   5   8
BRANCH   1  21
ATOM     21  O   UNL d   1      52.109  33.648  52.899  0.00  0.00    -0.268 OA
BRANCH  21  22
ATOM     22  C   UNL d   1      52.492  33.909  53.585  0.00  0.00     0.300 C 
ATOM     23  O   UNL d   1      52.248  34.612  53.951  0.00  0.00    -0.259 OA
BRANCH  22  24
ATOM     24  C   UNL d   1      53.124  33.459  53.905  0.00  0.00     0.064 A 
ATOM     25  C   UNL d   1      53.170  32.652  53.743  0.00  0.00     0.005 A 
ATOM     26  C   UNL d   1      53.799  32.195  54.058  0.00  0.00     0.000 A 
ATOM     27  C   UNL d   1      53.838  31.387  53.892  0.00  0.00     0.000 C 
ATOM     28  C   UNL d   1      54.367  32.569  54.531  0.00  0.00     0.000 A 
ATOM     29  C   UNL d   1      54.321  33.388  54.695  0.00  0.00     0.000 A 
ATOM     30  C   UNL d   1      53.700  33.817  54.379  0.00  0.00     0.005 A 
ATOM     31  C   UNL d   1      54.894  33.734  55.165  0.00  0.00     0.000 C 
ENDBRANCH  22  24
ENDBRANCH  21  22
ENDBRANCH   1  21
TORSDOF 8
ENDMDL
MODEL 4
REMARK VINA RESULT:      -6.7      1.526      1.985
REMARK  8 active torsions:
REMARK  status: ('A' for Active; 'I' for Inactive)
REMARK    1  A    between atoms: N_3  and  C_1 
REMARK       I    between atoms: C_8  and  N_3 
REMARK    2  A    between atoms: O_12  and  C_4 
REMARK    3  A    between atoms: S_20  and  C_5 
REMARK    4  A    between atoms: C_13  and  C_8 
REMARK    5  A    between atoms: C_9  and  O_12 
REMARK    6  A    between atoms: C_14  and  C_9 
REMARK    7  A    between atoms: C_16  and  C_28 
REMARK    8  A    between atoms: C_28  and  S_20 
ROOT
ATOM      1  C   UNL d   1      48.070  35.525  52.499  0.00  0.00     0.167 A 
ATOM      2  C   UNL d   1      48.538  35.782  53.123  0.00  0.00     0.222 A 
ATOM      3  C   UNL d   1      49.331  35.536  53.143  0.00  0.00     0.069 A 
ATOM      4  C   UNL d   1      48.375  35.037  51.910  0.00  0.00     0.151 A 
ATOM      5  C   UNL d   1      49.636  35.048  52.554  0.00  0.00     0.110 A 
ATOM      6  O   UNL d   1      49.152  34.800  51.938  0.00  0.00    -0.302 OA
ATOM      7  O   UNL d   1      48.236  36.265  53.707  0.00  0.00    -0.284 OA
ENDROOT
BRANCH   5   8
ATOM      8  C   UNL d   1      50.422  34.809  52.582  0.00  0.00     0.062 C 
BRANCH   8   9
ATOM      9  S   UNL d   1      50.610  34.060  52.872  0.00  0.00    -0.057 SA
BRANCH   9  10
ATOM     10  C   UNL d   1      51.261  33.391  53.017  0.00  0.00     0.166 A 
ATOM     11  S   UNL d   1      52.056  33.192  52.933  0.00  0.00    -0.006 SA
ATOM     12  C   UNL d   1      52.165  32.429  53.231  0.00  0.00     0.269 A 
ATOM     13  N   UNL d   1      51.431  32.157  53.501  0.00  0.00    -0.107 NA
ATOM     14  N   UNL d   1      50.873  32.751  53.369  0.00  0.00    -0.132 NA
BRANCH  12  15
ATOM     15  N   UNL d   1      52.723  31.837  53.364  0.00  0.00    -0.337 NA
ATOM     16  C   UNL d   1      53.281  31.244  53.496  0.00  0.00     0.330 C 
ATOM     17  O   UNL d   1      53.841  31.823  53.674  0.00  0.00    -0.251 OA
BRANCH  16  18
ATOM     18  C   UNL d   1      53.278  30.418  53.464  0.00  0.00     0.070 A 
ATOM     19  C   UNL d   1      53.352  29.691  53.847  0.00  0.00     0.006 A 
ATOM     20  C   UNL d   1      53.199  29.718  53.022  0.00  0.00     0.006 A 
ENDBRANCH  16  18
ENDBRANCH  12  15
ENDBRANCH   9  10
ENDBRANCH   8   9
ENDBRANCH   5   8
BRANCH   1  21
ATOM     21  O   UNL d   1      47.276  35.764  52.467  0.00  0.00    -0.268 OA
BRANCH  21  22
ATOM     22  C   UNL d   1      46.792  35.504  51.847  0.00  0.00     0.300 C 
ATOM     23  O   UNL d   1      47.134  35.175  51.168  0.00  0.00    -0.259 OA
BRANCH  22  24
ATOM     24  C   UNL d   1      45.958  35.576  51.913  0.00  0.00     0.064 A 
ATOM     25  C   UNL d   1      45.549  36.054  51.378  0.00  0.00     0.005 A 
ATOM     26  C   UNL d   1      44.716  36.131  51.436  0.00  0.00     0.000 A 
ATOM     27  C   UNL d   1      44.314  36.611  50.898  0.00  0.00     0.000 C 
ATOM     28  C   UNL d   1      44.316  35.721  52.035  0.00  0.00     0.000 A 
ATOM     29  C   UNL d   1      44.731  35.237  52.577  0.00  0.00     0.000 A 
ATOM     30  C   UNL d   1      45.544  35.174  52.505  0.00  0.00     0.005 A 
ATOM     31  C   UNL d   1      44.314  34.842  53.160  0.00  0.00     0.000 C 
ENDBRANCH  22  24
ENDBRANCH  21  22
ENDBRANCH   1  21
TORSDOF 8
ENDMDL
MODEL 5
REMARK VINA RESULT:      -6.5      2.457      7.389
REMARK  8 active torsions:
REMARK  status: ('A' for Active; 'I' for Inactive)
REMARK    1  A    between atoms: N_3  and  C_1 
REMARK       I    between atoms: C_8  and  N_3 
REMARK    2  A    between atoms: O_12  and  C_4 
REMARK    3  A    between atoms: S_20  and  C_5 
REMARK    4  A    between atoms: C_13  and  C_8 
REMARK    5  A    between atoms: C_9  and  O_12 
REMARK    6  A    between atoms: C_14  and  C_9 
REMARK    7  A    between atoms: C_16  and  C_28 
REMARK    8  A    between atoms: C_28  and  S_20 
ROOT
ATOM      1  C   UNL d   1      52.660  32.787  53.643  0.00  0.00     0.167 A 
ATOM      2  C   UNL d   1      52.605  33.478  54.084  0.00  0.00     0.222 A 
ATOM      3  C   UNL d   1      52.127  34.091  53.791  0.00  0.00     0.069 A 
ATOM      4  C   UNL d   1      52.255  32.703  52.930  0.00  0.00     0.151 A 
ATOM      5  C   UNL d   1      51.722  34.006  53.079  0.00  0.00     0.110 A 
ATOM      6  O   UNL d   1      51.789  33.308  52.651  0.00  0.00    -0.302 OA
ATOM      7  O   UNL d   1      53.006  33.562  54.789  0.00  0.00    -0.284 OA
ENDROOT
BRANCH   5   8
ATOM      8  C   UNL d   1      51.252  34.619  52.797  0.00  0.00     0.062 C 
BRANCH   8   9
ATOM      9  S   UNL d   1      50.452  34.483  52.650  0.00  0.00    -0.057 SA
BRANCH   9  10
ATOM     10  C   UNL d   1      49.584  34.835  52.521  0.00  0.00     0.166 A 
ATOM     11  S   UNL d   1      48.969  35.261  52.866  0.00  0.00    -0.006 SA
ATOM     12  C   UNL d   1      48.356  35.323  52.316  0.00  0.00     0.269 A 
ATOM     13  N   UNL d   1      48.596  34.932  51.627  0.00  0.00    -0.107 NA
ATOM     14  N   UNL d   1      49.354  34.630  51.753  0.00  0.00    -0.132 NA
BRANCH  12  15
ATOM     15  N   UNL d   1      47.599  35.624  52.190  0.00  0.00    -0.337 NA
ATOM     16  C   UNL d   1      46.842  35.925  52.064  0.00  0.00     0.330 C 
ATOM     17  O   UNL d   1      47.166  36.515  51.586  0.00  0.00    -0.251 OA
BRANCH  16  18
ATOM     18  C   UNL d   1      46.080  35.721  52.311  0.00  0.00     0.070 A 
ATOM     19  C   UNL d   1      45.334  35.414  52.138  0.00  0.00     0.006 A 
ATOM     20  C   UNL d   1      45.511  35.676  52.916  0.00  0.00     0.006 A 
ENDBRANCH  16  18
ENDBRANCH  12  15
ENDBRANCH   9  10
ENDBRANCH   8   9
ENDBRANCH   5   8
BRANCH   1  21
ATOM     21  O   UNL d   1      53.134  32.167  53.924  0.00  0.00    -0.268 OA
BRANCH  21  22
ATOM     22  C   UNL d   1      53.413  31.591  53.399  0.00  0.00     0.300 C 
ATOM     23  O   UNL d   1      53.816  31.820  52.711  0.00  0.00    -0.259 OA
BRANCH  22  24
ATOM     24  C   UNL d   1      53.286  30.778  53.567  0.00  0.00     0.064 A 
ATOM     25  C   UNL d   1      52.954  30.292  52.989  0.00  0.00     0.005 A 
ATOM     26  C   UNL d   1      52.823  29.479  53.148  0.00  0.00     0.000 A 
ATOM     27  C   UNL d   1      52.491  28.999  52.565  0.00  0.00     0.000 C 
ATOM     28  C   UNL d   1      53.032  29.178  53.891  0.00  0.00     0.000 A 
ATOM     29  C   UNL d   1      53.369  29.671  54.478  0.00  0.00     0.000 A 
ATOM     30  C   UNL d   1      53.489  30.462  54.304  0.00  0.00     0.005 A 
ATOM     31  C   UNL d   1      53.568  29.350  55.204  0.00  0.00     0.000 C 
ENDBRANCH  22  24
ENDBRANCH  21  22
ENDBRANCH   1  21
TORSDOF 8
ENDMDL
