MODEL 1
REMARK VINA RESULT:      -1.8      0.000      0.000
REMARK  5 active torsions:
REMARK  status: ('A' for Active; 'I' for Inactive)
REMARK    1  A    between atoms: O_6  and  C_1 
REMARK    2  A    between atoms: C_2  and  C_4 
REMARK    3  A    between atoms: O_7  and  C_3 
REMARK    4  A    between atoms: C_8  and  O_6 
REMARK    5  A    between atoms: C_9  and  O_7 
ROOT
ATOM      1  C   UNL d   1     -41.280-122.208 -52.196  0.00  0.00     0.126 A 
ATOM      2  C   UNL d   1     -41.284-122.714 -52.847  0.00  0.00     0.126 A 
ATOM      3  C   UNL d   1     -41.591-123.315 -51.340  0.00  0.00     0.067 A 
ATOM      4  C   UNL d   1     -41.434-122.507 -51.443  0.00  0.00     0.033 A 
ATOM      5  C   UNL d   1     -41.441-123.523 -52.744  0.00  0.00     0.027 A 
ATOM      6  C   UNL d   1     -41.594-123.817 -51.992  0.00  0.00     0.008 A 
ENDROOT
BRANCH   1   7
ATOM      7  O   UNL d   1     -41.124-121.405 -52.298  0.00  0.00    -0.271 OA
BRANCH   7   8
ATOM      8  C   UNL d   1     -41.369-120.861 -51.730  0.00  0.00     0.300 C 
ATOM      9  O   UNL d   1     -41.315-121.052 -50.913  0.00  0.00    -0.259 OA
ATOM     10  C   UNL d   1     -41.667-120.128 -51.964  0.00  0.00     0.074 C 
ENDBRANCH   7   8
ENDBRANCH   1   7
BRANCH   2  11
ATOM     11  O   UNL d   1     -41.127-122.408 -53.616  0.00  0.00    -0.271 OA
BRANCH  11  12
ATOM     12  C   UNL d   1     -41.496-122.735 -54.273  0.00  0.00     0.300 C 
ATOM     13  O   UNL d   1     -42.230-122.449 -54.521  0.00  0.00    -0.259 OA
ATOM     14  C   UNL d   1     -41.129-123.353 -54.685  0.00  0.00     0.074 C 
ENDBRANCH  11  12
ENDBRANCH   2  11
BRANCH   3  15
ATOM     15  C   UNL d   1     -41.749-123.631 -50.575  0.00  0.00     0.211 C 
ATOM     16  O   UNL d   1     -42.531-123.801 -50.367  0.00  0.00    -0.644 OA
ATOM     17  O   UNL d   1     -41.123-123.767 -50.040  0.00  0.00    -0.644 OA
ENDBRANCH   3  15
TORSDOF 5
ENDMDL
MODEL 2
REMARK VINA RESULT:      -1.3      0.890      2.372
REMARK  5 active torsions:
REMARK  status: ('A' for Active; 'I' for Inactive)
REMARK    1  A    between atoms: O_6  and  C_1 
REMARK    2  A    between atoms: C_2  and  C_4 
REMARK    3  A    between atoms: O_7  and  C_3 
REMARK    4  A    between atoms: C_8  and  O_6 
REMARK    5  A    between atoms: C_9  and  O_7 
ROOT
ATOM      1  C   UNL d   1     -41.379-122.553 -51.962  0.00  0.00     0.126 A 
ATOM      2  C   UNL d   1     -41.302-122.526 -52.782  0.00  0.00     0.126 A 
ATOM      3  C   UNL d   1     -41.206-121.132 -51.903  0.00  0.00     0.067 A 
ATOM      4  C   UNL d   1     -41.331-121.858 -51.522  0.00  0.00     0.033 A 
ATOM      5  C   UNL d   1     -41.176-121.800 -53.164  0.00  0.00     0.027 A 
ATOM      6  C   UNL d   1     -41.129-121.109 -52.722  0.00  0.00     0.008 A 
ENDROOT
BRANCH   1   7
ATOM      7  O   UNL d   1     -41.504-123.275 -51.583  0.00  0.00    -0.271 OA
BRANCH   7   8
ATOM      8  C   UNL d   1     -41.820-123.293 -50.822  0.00  0.00     0.300 C 
ATOM      9  O   UNL d   1     -42.650-123.226 -50.710  0.00  0.00    -0.259 OA
ATOM     10  C   UNL d   1     -41.320-123.376 -50.171  0.00  0.00     0.074 C 
ENDBRANCH   7   8
ENDBRANCH   1   7
BRANCH   2  11
ATOM     11  O   UNL d   1     -41.350-123.237 -53.232  0.00  0.00    -0.271 OA
BRANCH  11  12
ATOM     12  C   UNL d   1     -41.736-123.241 -53.957  0.00  0.00     0.300 C 
ATOM     13  O   UNL d   1     -42.557-123.157 -53.990  0.00  0.00    -0.259 OA
ATOM     14  C   UNL d   1     -41.297-123.329 -54.655  0.00  0.00     0.074 C 
ENDBRANCH  11  12
ENDBRANCH   2  11
BRANCH   3  15
ATOM     15  C   UNL d   1     -41.156-120.415 -51.462  0.00  0.00     0.211 C 
ATOM     16  O   UNL d   1     -41.139-120.455 -50.638  0.00  0.00    -0.644 OA
ATOM     17  O   UNL d   1     -41.123-119.680 -51.859  0.00  0.00    -0.644 OA
ENDBRANCH   3  15
TORSDOF 5
ENDMDL
MODEL 3
REMARK VINA RESULT:      -1.0      0.942      3.298
REMARK  5 active torsions:
REMARK  status: ('A' for Active; 'I' for Inactive)
REMARK    1  A    between atoms: O_6  and  C_1 
REMARK    2  A    between atoms: C_2  and  C_4 
REMARK    3  A    between atoms: O_7  and  C_3 
REMARK    4  A    between atoms: C_8  and  O_6 
REMARK    5  A    between atoms: C_9  and  O_7 
ROOT
ATOM      1  C   UNL d   1     -41.663-122.479 -51.988  0.00  0.00     0.126 A 
ATOM      2  C   UNL d   1     -41.879-122.634 -51.208  0.00  0.00     0.126 A 
ATOM      3  C   UNL d   1     -41.447-121.103 -51.650  0.00  0.00     0.067 A 
ATOM      4  C   UNL d   1     -41.447-121.715 -52.211  0.00  0.00     0.033 A 
ATOM      5  C   UNL d   1     -41.879-122.021 -50.647  0.00  0.00     0.027 A 
ATOM      6  C   UNL d   1     -41.664-121.262 -50.873  0.00  0.00     0.008 A 
ENDROOT
BRANCH   1   7
ATOM      7  O   UNL d   1     -41.662-123.088 -52.545  0.00  0.00    -0.271 OA
BRANCH   7   8
ATOM      8  C   UNL d   1     -41.775-122.917 -53.343  0.00  0.00     0.300 C 
ATOM      9  O   UNL d   1     -42.505-122.594 -53.606  0.00  0.00    -0.259 OA
ATOM     10  C   UNL d   1     -41.169-123.063 -53.884  0.00  0.00     0.074 C 
ENDBRANCH   7   8
ENDBRANCH   1   7
BRANCH   2  11
ATOM     11  O   UNL d   1     -42.099-123.415 -50.981  0.00  0.00    -0.271 OA
BRANCH  11  12
ATOM     12  C   UNL d   1     -42.379-123.560 -50.223  0.00  0.00     0.300 C 
ATOM     13  O   UNL d   1     -43.171-123.764 -50.105  0.00  0.00    -0.259 OA
ATOM     14  C   UNL d   1     -41.863-123.501 -49.576  0.00  0.00     0.074 C 
ENDBRANCH  11  12
ENDBRANCH   2  11
BRANCH   3  15
ATOM     15  C   UNL d   1     -41.229-120.318 -51.868  0.00  0.00     0.211 C 
ATOM     16  O   UNL d   1     -41.123-120.141 -52.667  0.00  0.00    -0.644 OA
ATOM     17  O   UNL d   1     -41.123-119.735 -51.280  0.00  0.00    -0.644 OA
ENDBRANCH   3  15
TORSDOF 5
ENDMDL
MODEL 4
REMARK VINA RESULT:      -0.8      1.863      3.269
REMARK  5 active torsions:
REMARK  status: ('A' for Active; 'I' for Inactive)
REMARK    1  A    between atoms: O_6  and  C_1 
REMARK    2  A    between atoms: C_2  and  C_4 
REMARK    3  A    between atoms: O_7  and  C_3 
REMARK    4  A    between atoms: C_8  and  O_6 
REMARK    5  A    between atoms: C_9  and  O_7 
ROOT
ATOM      1  C   UNL d   1     -41.896-122.892 -49.426  0.00  0.00     0.126 A 
ATOM      2  C   UNL d   1     -41.950-122.435 -50.110  0.00  0.00     0.126 A 
ATOM      3  C   UNL d   1     -43.292-123.203 -49.529  0.00  0.00     0.067 A 
ATOM      4  C   UNL d   1     -42.565-123.276 -49.134  0.00  0.00     0.033 A 
ATOM      5  C   UNL d   1     -42.677-122.362 -50.504  0.00  0.00     0.027 A 
ATOM      6  C   UNL d   1     -43.341-122.746 -50.211  0.00  0.00     0.008 A 
ENDROOT
BRANCH   1   7
ATOM      7  O   UNL d   1     -41.174-122.964 -49.033  0.00  0.00    -0.271 OA
BRANCH   7   8
ATOM      8  C   UNL d   1     -41.153-122.998 -48.210  0.00  0.00     0.300 C 
ATOM      9  O   UNL d   1     -41.162-122.289 -47.759  0.00  0.00    -0.259 OA
ATOM     10  C   UNL d   1     -41.123-123.729 -47.830  0.00  0.00     0.074 C 
ENDBRANCH   7   8
ENDBRANCH   1   7
BRANCH   2  11
ATOM     11  O   UNL d   1     -41.266-122.043 -50.407  0.00  0.00    -0.271 OA
BRANCH  11  12
ATOM     12  C   UNL d   1     -41.189-121.903 -51.213  0.00  0.00     0.300 C 
ATOM     13  O   UNL d   1     -41.123-121.129 -51.494  0.00  0.00    -0.259 OA
ATOM     14  C   UNL d   1     -41.179-122.542 -51.741  0.00  0.00     0.074 C 
ENDBRANCH  11  12
ENDBRANCH   2  11
BRANCH   3  15
ATOM     15  C   UNL d   1     -43.982-123.591 -49.239  0.00  0.00     0.211 C 
ATOM     16  O   UNL d   1     -44.604-123.741 -49.762  0.00  0.00    -0.644 OA
ATOM     17  O   UNL d   1     -44.030-123.817 -48.437  0.00  0.00    -0.644 OA
ENDBRANCH   3  15
TORSDOF 5
ENDMDL
