MODEL 1
REMARK VINA RESULT:      25.8      0.000      0.000
REMARK  2 active torsions:
REMARK  status: ('A' for Active; 'I' for Inactive)
REMARK       I    between atoms: C_2  and  N_1 
REMARK    1  A    between atoms: C_4  and  C_2 
REMARK    2  A    between atoms: C_6  and  C_7 
ROOT
ATOM      1  C   UNL d   1      59.264  49.664  50.226  0.00  0.00     0.057 A 
ATOM      2  C   UNL d   1      60.392  49.655  51.445  0.00  0.00    -0.023 A 
ATOM      3  C   UNL d   1      59.013  49.706  51.019  0.00  0.00     0.004 A 
ATOM      4  C   UNL d   1      60.053  49.619  50.030  0.00  0.00     0.004 A 
ATOM      5  C   UNL d   1      59.601  49.700  51.641  0.00  0.00    -0.004 A 
ATOM      6  C   UNL d   1      60.642  49.614  50.652  0.00  0.00    -0.004 A 
ENDROOT
BRANCH   1   7
ATOM      7  C   UNL d   1      58.707  49.669  49.623  0.00  0.00     0.267 C 
ATOM      8  N   UNL d   1      57.893  49.637  49.818  0.00  0.00    -0.240 N 
ATOM      9  C   UNL d   1      57.642  49.600  50.614  0.00  0.00     0.267 A 
ATOM     10  C   UNL d   1      57.399  49.645  49.152  0.00  0.00     0.086 A 
ATOM     11  O   UNL d   1      58.292  49.599  51.216  0.00  0.00    -0.267 OA
ATOM     12  C   UNL d   1      56.889  49.565  50.942  0.00  0.00     0.061 A 
ATOM     13  C   UNL d   1      56.149  49.558  50.510  0.00  0.00     0.005 A 
ATOM     14  C   UNL d   1      56.036  49.582  49.751  0.00  0.00     0.002 A 
ATOM     15  C   UNL d   1      56.575  49.621  49.122  0.00  0.00     0.019 A 
ATOM     16  O   UNL d   1      58.934  49.703  48.848  0.00  0.00    -0.267 OA
ENDBRANCH   1   7
BRANCH   2  17
ATOM     17  C   UNL d   1      60.949  49.651  52.052  0.00  0.00     0.019 C 
ATOM     18  C   UNL d   1      61.559  49.597  51.506  0.00  0.00     0.004 C 
ATOM     19  C   UNL d   1      61.501  49.647  52.663  0.00  0.00     0.004 C 
ATOM     20  C   UNL d   1      60.334  49.706  52.603  0.00  0.00     0.004 C 
ENDBRANCH   2  17
TORSDOF 2
ENDMDL
