MODEL 1
REMARK VINA RESULT:      36.1      0.000      0.000
REMARK  3 active torsions:
REMARK  status: ('A' for Active; 'I' for Inactive)
REMARK    1  A    between atoms: N_6  and  S_1 
REMARK    2  A    between atoms: C_7  and  S_1 
REMARK    3  A    between atoms: C_10  and  N_6 
ROOT
ATOM      1  S   UNL d   1     -54.767-101.740 -40.724  0.00  0.00     0.327 S 
ATOM      2  O   UNL d   1     -54.813-100.959 -40.975  0.00  0.00    -0.186 OA
ATOM      3  O   UNL d   1     -54.713-102.347 -41.277  0.00  0.00    -0.186 OA
ENDROOT
BRANCH   1   4
ATOM      4  N   UNL d   1     -54.759-101.557 -41.524  0.00  0.00    -0.317 NA
BRANCH   4   5
ATOM      5  C   UNL d   1     -54.750-101.371 -42.343  0.00  0.00     0.145 A 
ATOM      6  C   UNL d   1     -54.738-100.574 -42.580  0.00  0.00     0.033 A 
ATOM      7  C   UNL d   1     -54.730-100.393 -43.388  0.00  0.00     0.003 A 
ATOM      8  C   UNL d   1     -54.718 -99.607 -43.634  0.00  0.00     0.000 C 
ATOM      9  C   UNL d   1     -54.733-101.002 -43.948  0.00  0.00     0.000 A 
ATOM     10  C   UNL d   1     -54.745-101.788 -43.703  0.00  0.00     0.003 A 
ATOM     11  C   UNL d   1     -54.754-101.969 -42.898  0.00  0.00     0.033 A 
ATOM     12  C   UNL d   1     -54.749-102.394 -44.255  0.00  0.00     0.000 C 
ENDBRANCH   4   5
ENDBRANCH   1   4
BRANCH   1  13
ATOM     13  C   UNL d   1     -54.776-101.913 -39.922  0.00  0.00     0.118 A 
ATOM     14  C   UNL d   1     -54.737-101.305 -39.371  0.00  0.00     0.035 A 
ATOM     15  C   UNL d   1     -54.745-101.475 -38.560  0.00  0.00     0.105 A 
ATOM     16  N   UNL d   1     -54.713-100.995 -37.890  0.00  0.00    -0.189 NA
ATOM     17  C   UNL d   1     -54.794-102.266 -38.305  0.00  0.00     0.104 A 
ATOM     18  C   UNL d   1     -54.742-101.484 -37.217  0.00  0.00     0.369 A 
ATOM     19  O   UNL d   1     -54.724-101.232 -36.433  0.00  0.00    -0.242 OA
ATOM     20  N   UNL d   1     -54.792-102.266 -37.480  0.00  0.00    -0.189 NA
ATOM     21  C   UNL d   1     -54.834-102.876 -38.864  0.00  0.00     0.022 A 
ATOM     22  C   UNL d   1     -54.825-102.695 -39.670  0.00  0.00     0.016 A 
ENDBRANCH   1  13
TORSDOF 3
ENDMDL
