MODEL 1
REMARK VINA RESULT:      28.2      0.000      0.000
REMARK  6 active torsions:
REMARK  status: ('A' for Active; 'I' for Inactive)
REMARK    1  A    between atoms: C_5  and  N_1 
REMARK    2  A    between atoms: C_7  and  C_5 
REMARK    3  A    between atoms: O_14  and  C_10 
REMARK    4  A    between atoms: C_18  and  O_14 
REMARK    5  A    between atoms: C_19  and  C_18 
REMARK    6  A    between atoms: C_20  and  C_19 
ROOT
ATOM      1  C   UNL d   1      14.167  13.220  -1.803  0.00  0.00     0.087 C 
ENDROOT
BRANCH   1   2
ATOM      2  N   UNL d   1      13.667  12.732  -2.242  0.00  0.00    -0.251 N 
ATOM      3  C   UNL d   1      13.225  12.082  -1.983  0.00  0.00     0.378 A 
ATOM      4  O   UNL d   1      12.815  11.779  -2.635  0.00  0.00    -0.258 OA
ATOM      5  O   UNL d   1      13.195  11.786  -1.215  0.00  0.00    -0.237 OA
ATOM      6  C   UNL d   1      13.004  12.242  -3.294  0.00  0.00     0.121 A 
ATOM      7  C   UNL d   1      13.532  12.831  -3.051  0.00  0.00     0.092 A 
ATOM      8  C   UNL d   1      12.771  12.211  -4.088  0.00  0.00     0.026 A 
ATOM      9  C   UNL d   1      13.821  13.380  -3.588  0.00  0.00     0.020 A 
ATOM     10  C   UNL d   1      13.587  13.346  -4.374  0.00  0.00     0.002 A 
ATOM     11  C   UNL d   1      13.060  12.760  -4.624  0.00  0.00     0.002 A 
ATOM     12  C   UNL d   1      13.877  13.897  -4.914  0.00  0.00     0.000 C 
ENDBRANCH   1   2
BRANCH   1  13
ATOM     13  C   UNL d   1      14.650  12.901  -1.212  0.00  0.00     0.041 A 
ATOM     14  C   UNL d   1      14.907  13.366  -0.598  0.00  0.00     0.102 A 
ATOM     15  C   UNL d   1      15.384  13.048  -0.014  0.00  0.00     0.025 A 
ATOM     16  C   UNL d   1      15.606  12.256  -0.048  0.00  0.00     0.002 A 
ATOM     17  C   UNL d   1      15.345  11.785  -0.672  0.00  0.00     0.000 A 
ATOM     18  C   UNL d   1      14.864  12.110  -1.258  0.00  0.00     0.004 A 
BRANCH  14  19
ATOM     19  O   UNL d   1      14.687  14.162  -0.559  0.00  0.00    -0.305 OA
BRANCH  19  20
ATOM     20  C   UNL d   1      15.263  14.749  -0.488  0.00  0.00     0.123 C 
BRANCH  20  21
ATOM     21  C   UNL d   1      15.054  15.503  -0.250  0.00  0.00     0.027 C 
BRANCH  21  22
ATOM     22  C   UNL d   1      15.483  16.156  -0.515  0.00  0.00     0.002 C 
ATOM     23  C   UNL d   1      15.266  16.541  -1.215  0.00  0.00     0.000 C 
ENDBRANCH  21  22
ENDBRANCH  20  21
ENDBRANCH  19  20
ENDBRANCH  14  19
ENDBRANCH   1  13
TORSDOF 6
ENDMDL
