MODEL 1
REMARK VINA RESULT:      -8.0      0.000      0.000
REMARK  3 active torsions:
REMARK  status: ('A' for Active; 'I' for Inactive)
REMARK    1  A    between atoms: C_2  and  C_3 
REMARK    2  A    between atoms: C_5  and  C_2 
REMARK    3  A    between atoms: C_3  and  C_6 
ROOT
ATOM      1  N   UNL d   1     -47.741  13.117  23.402  0.00  0.00    -0.246 NA
ATOM      2  C   UNL d   1     -47.096  12.606  23.369  0.00  0.00     0.081 A 
ATOM      3  C   UNL d   1     -47.664  13.881  23.064  0.00  0.00     0.081 A 
ATOM      4  C   UNL d   1     -46.385  12.849  23.005  0.00  0.00     0.018 A 
ATOM      5  C   UNL d   1     -46.341  13.597  22.685  0.00  0.00     0.003 A 
ATOM      6  C   UNL d   1     -46.988  14.113  22.718  0.00  0.00     0.019 A 
ATOM      7  C   UNL d   1     -47.155  11.847  23.698  0.00  0.00     0.019 A 
ATOM      8  C   UNL d   1     -45.754  12.327  22.981  0.00  0.00     0.002 A 
ATOM      9  C   UNL d   1     -46.494  11.346  23.654  0.00  0.00     0.002 A 
ATOM     10  C   UNL d   1     -45.818  11.578  23.308  0.00  0.00     0.000 A 
ENDROOT
BRANCH   3  11
ATOM     11  C   UNL d   1     -48.299  14.423  23.081  0.00  0.00     0.019 C 
BRANCH  11  12
ATOM     12  C   UNL d   1     -48.957  14.316  22.611  0.00  0.00     0.005 C 
BRANCH  12  13
ATOM     13  C   UNL d   1     -49.646  14.741  22.769  0.00  0.00     0.039 A 
ATOM     14  C   UNL d   1     -50.326  14.585  22.354  0.00  0.00     0.196 A 
ATOM     15  O   UNL d   1     -50.354  13.988  21.751  0.00  0.00    -0.287 OA
ATOM     16  C   UNL d   1     -51.015  15.010  22.511  0.00  0.00     0.042 A 
ATOM     17  C   UNL d   1     -51.001  15.599  23.099  0.00  0.00     0.003 A 
ATOM     18  C   UNL d   1     -50.345  15.753  23.503  0.00  0.00     0.000 A 
ATOM     19  C   UNL d   1     -49.656  15.328  23.346  0.00  0.00     0.003 A 
ENDBRANCH  12  13
ENDBRANCH  11  12
ENDBRANCH   3  11
TORSDOF 3
ENDMDL
MODEL 2
REMARK VINA RESULT:      -7.4      1.390      4.371
REMARK  3 active torsions:
REMARK  status: ('A' for Active; 'I' for Inactive)
REMARK    1  A    between atoms: C_2  and  C_3 
REMARK    2  A    between atoms: C_5  and  C_2 
REMARK    3  A    between atoms: C_3  and  C_6 
ROOT
ATOM      1  N   UNL d   1     -48.680  13.753  22.080  0.00  0.00    -0.246 NA
ATOM      2  C   UNL d   1     -49.476  13.967  22.076  0.00  0.00     0.081 A 
ATOM      3  C   UNL d   1     -48.145  14.217  22.531  0.00  0.00     0.081 A 
ATOM      4  C   UNL d   1     -49.736  14.629  22.512  0.00  0.00     0.018 A 
ATOM      5  C   UNL d   1     -49.193  15.059  22.939  0.00  0.00     0.003 A 
ATOM      6  C   UNL d   1     -48.392  14.847  22.945  0.00  0.00     0.019 A 
ATOM      7  C   UNL d   1     -50.019  13.520  21.636  0.00  0.00     0.019 A 
ATOM      8  C   UNL d   1     -50.532  14.826  22.495  0.00  0.00     0.002 A 
ATOM      9  C   UNL d   1     -50.817  13.751  21.644  0.00  0.00     0.002 A 
ATOM     10  C   UNL d   1     -51.064  14.381  22.059  0.00  0.00     0.000 A 
ENDROOT
BRANCH   3  11
ATOM     11  C   UNL d   1     -47.332  14.027  22.557  0.00  0.00     0.019 C 
BRANCH  11  12
ATOM     12  C   UNL d   1     -47.072  13.332  22.896  0.00  0.00     0.005 C 
BRANCH  12  13
ATOM     13  C   UNL d   1     -46.309  13.060  22.738  0.00  0.00     0.039 A 
ATOM     14  C   UNL d   1     -46.026  12.399  23.114  0.00  0.00     0.196 A 
ATOM     15  O   UNL d   1     -46.495  11.969  23.675  0.00  0.00    -0.287 OA
ATOM     16  C   UNL d   1     -45.263  12.127  22.956  0.00  0.00     0.042 A 
ATOM     17  C   UNL d   1     -44.793  12.540  22.407  0.00  0.00     0.003 A 
ATOM     18  C   UNL d   1     -45.063  13.180  22.041  0.00  0.00     0.000 A 
ATOM     19  C   UNL d   1     -45.826  13.452  22.199  0.00  0.00     0.003 A 
ENDBRANCH  12  13
ENDBRANCH  11  12
ENDBRANCH   3  11
TORSDOF 3
ENDMDL
MODEL 3
REMARK VINA RESULT:      -6.3      8.890      9.536
REMARK  3 active torsions:
REMARK  status: ('A' for Active; 'I' for Inactive)
REMARK    1  A    between atoms: C_2  and  C_3 
REMARK    2  A    between atoms: C_5  and  C_2 
REMARK    3  A    between atoms: C_3  and  C_6 
ROOT
ATOM      1  N   UNL d   1     -38.827  14.172  20.571  0.00  0.00    -0.246 NA
ATOM      2  C   UNL d   1     -38.692  13.858  21.321  0.00  0.00     0.081 A 
ATOM      3  C   UNL d   1     -39.472  14.700  20.468  0.00  0.00     0.081 A 
ATOM      4  C   UNL d   1     -39.189  14.066  21.959  0.00  0.00     0.018 A 
ATOM      5  C   UNL d   1     -39.806  14.581  21.828  0.00  0.00     0.003 A 
ATOM      6  C   UNL d   1     -39.944  14.897  21.075  0.00  0.00     0.019 A 
ATOM      7  C   UNL d   1     -38.060  13.335  21.440  0.00  0.00     0.019 A 
ATOM      8  C   UNL d   1     -39.038  13.744  22.698  0.00  0.00     0.002 A 
ATOM      9  C   UNL d   1     -37.940  13.030  22.204  0.00  0.00     0.002 A 
ATOM     10  C   UNL d   1     -38.412  13.227  22.811  0.00  0.00     0.000 A 
ENDROOT
BRANCH   3  11
ATOM     11  C   UNL d   1     -39.636  15.034  19.721  0.00  0.00     0.019 C 
BRANCH  11  12
ATOM     12  C   UNL d   1     -40.129  14.659  19.190  0.00  0.00     0.005 C 
BRANCH  12  13
ATOM     13  C   UNL d   1     -40.180  14.934  18.415  0.00  0.00     0.039 A 
ATOM     14  C   UNL d   1     -40.577  14.502  17.854  0.00  0.00     0.196 A 
ATOM     15  O   UNL d   1     -40.948  13.762  18.041  0.00  0.00    -0.287 OA
ATOM     16  C   UNL d   1     -40.629  14.777  17.078  0.00  0.00     0.042 A 
ATOM     17  C   UNL d   1     -40.269  15.501  16.882  0.00  0.00     0.003 A 
ATOM     18  C   UNL d   1     -39.884  15.922  17.421  0.00  0.00     0.000 A 
ATOM     19  C   UNL d   1     -39.832  15.647  18.198  0.00  0.00     0.003 A 
ENDBRANCH  12  13
ENDBRANCH  11  12
ENDBRANCH   3  11
TORSDOF 3
ENDMDL
MODEL 4
REMARK VINA RESULT:      -6.1      1.826      4.753
REMARK  3 active torsions:
REMARK  status: ('A' for Active; 'I' for Inactive)
REMARK    1  A    between atoms: C_2  and  C_3 
REMARK    2  A    between atoms: C_5  and  C_2 
REMARK    3  A    between atoms: C_3  and  C_6 
ROOT
ATOM      1  N   UNL d   1     -47.814  12.722  22.440  0.00  0.00    -0.246 NA
ATOM      2  C   UNL d   1     -48.381  13.270  22.200  0.00  0.00     0.081 A 
ATOM      3  C   UNL d   1     -47.194  12.982  22.943  0.00  0.00     0.081 A 
ATOM      4  C   UNL d   1     -48.333  14.064  22.454  0.00  0.00     0.018 A 
ATOM      5  C   UNL d   1     -47.719  14.286  22.942  0.00  0.00     0.003 A 
ATOM      6  C   UNL d   1     -47.149  13.737  23.185  0.00  0.00     0.019 A 
ATOM      7  C   UNL d   1     -49.000  13.030  21.703  0.00  0.00     0.019 A 
ATOM      8  C   UNL d   1     -48.905  14.594  22.205  0.00  0.00     0.002 A 
ATOM      9  C   UNL d   1     -49.562  13.597  21.472  0.00  0.00     0.002 A 
ATOM     10  C   UNL d   1     -49.516  14.352  21.714  0.00  0.00     0.000 A 
ENDROOT
BRANCH   3  11
ATOM     11  C   UNL d   1     -46.605  12.452  23.204  0.00  0.00     0.019 C 
BRANCH  11  12
ATOM     12  C   UNL d   1     -45.894  12.383  22.808  0.00  0.00     0.005 C 
BRANCH  12  13
ATOM     13  C   UNL d   1     -45.372  11.777  23.008  0.00  0.00     0.039 A 
ATOM     14  C   UNL d   1     -44.612  11.783  22.723  0.00  0.00     0.196 A 
ATOM     15  O   UNL d   1     -44.330  12.403  22.216  0.00  0.00    -0.287 OA
ATOM     16  C   UNL d   1     -44.088  11.177  22.922  0.00  0.00     0.042 A 
ATOM     17  C   UNL d   1     -44.353  10.563  23.418  0.00  0.00     0.003 A 
ATOM     18  C   UNL d   1     -45.087  10.554  23.696  0.00  0.00     0.000 A 
ATOM     19  C   UNL d   1     -45.610  11.160  23.496  0.00  0.00     0.003 A 
ENDBRANCH  12  13
ENDBRANCH  11  12
ENDBRANCH   3  11
TORSDOF 3
ENDMDL
MODEL 5
REMARK VINA RESULT:      -6.0      8.698     10.307
REMARK  3 active torsions:
REMARK  status: ('A' for Active; 'I' for Inactive)
REMARK    1  A    between atoms: C_2  and  C_3 
REMARK    2  A    between atoms: C_5  and  C_2 
REMARK    3  A    between atoms: C_3  and  C_6 
ROOT
ATOM      1  N   UNL d   1     -39.232  14.933  17.498  0.00  0.00    -0.246 NA
ATOM      2  C   UNL d   1     -38.813  14.573  16.886  0.00  0.00     0.081 A 
ATOM      3  C   UNL d   1     -39.550  14.448  18.104  0.00  0.00     0.081 A 
ATOM      4  C   UNL d   1     -38.712  13.744  16.877  0.00  0.00     0.018 A 
ATOM      5  C   UNL d   1     -39.032  13.300  17.479  0.00  0.00     0.003 A 
ATOM      6  C   UNL d   1     -39.454  13.660  18.095  0.00  0.00     0.019 A 
ATOM      7  C   UNL d   1     -38.492  15.038  16.279  0.00  0.00     0.019 A 
ATOM      8  C   UNL d   1     -38.293  13.405  16.260  0.00  0.00     0.002 A 
ATOM      9  C   UNL d   1     -38.074  14.656  15.671  0.00  0.00     0.002 A 
ATOM     10  C   UNL d   1     -37.977  13.868  15.662  0.00  0.00     0.000 A 
ENDROOT
BRANCH   3  11
ATOM     11  C   UNL d   1     -39.979  14.781  18.738  0.00  0.00     0.019 C 
BRANCH  11  12
ATOM     12  C   UNL d   1     -39.688  14.762  19.500  0.00  0.00     0.005 C 
BRANCH  12  13
ATOM     13  C   UNL d   1     -40.095  15.150  20.104  0.00  0.00     0.039 A 
ATOM     14  C   UNL d   1     -39.737  15.280  20.820  0.00  0.00     0.196 A 
ATOM     15  O   UNL d   1     -38.941  15.026  20.974  0.00  0.00    -0.287 OA
ATOM     16  C   UNL d   1     -40.143  15.668  21.424  0.00  0.00     0.042 A 
ATOM     17  C   UNL d   1     -40.924  15.922  21.286  0.00  0.00     0.003 A 
ATOM     18  C   UNL d   1     -41.274  15.798  20.594  0.00  0.00     0.000 A 
ATOM     19  C   UNL d   1     -40.867  15.410  19.990  0.00  0.00     0.003 A 
ENDBRANCH  12  13
ENDBRANCH  11  12
ENDBRANCH   3  11
TORSDOF 3
ENDMDL
MODEL 6
REMARK VINA RESULT:      -5.9      8.590     10.577
REMARK  3 active torsions:
REMARK  status: ('A' for Active; 'I' for Inactive)
REMARK    1  A    between atoms: C_2  and  C_3 
REMARK    2  A    between atoms: C_5  and  C_2 
REMARK    3  A    between atoms: C_3  and  C_6 
ROOT
ATOM      1  N   UNL d   1     -39.318  14.752  19.662  0.00  0.00    -0.246 NA
ATOM      2  C   UNL d   1     -39.701  15.143  20.279  0.00  0.00     0.081 A 
ATOM      3  C   UNL d   1     -39.777  14.483  19.013  0.00  0.00     0.081 A 
ATOM      4  C   UNL d   1     -40.526  15.264  20.251  0.00  0.00     0.018 A 
ATOM      5  C   UNL d   1     -40.945  14.991  19.608  0.00  0.00     0.003 A 
ATOM      6  C   UNL d   1     -40.562  14.598  18.987  0.00  0.00     0.019 A 
ATOM      7  C   UNL d   1     -39.262  15.416  20.927  0.00  0.00     0.019 A 
ATOM      8  C   UNL d   1     -40.889  15.654  20.874  0.00  0.00     0.002 A 
ATOM      9  C   UNL d   1     -39.666  15.807  21.539  0.00  0.00     0.002 A 
ATOM     10  C   UNL d   1     -40.451  15.922  21.513  0.00  0.00     0.000 A 
ENDROOT
BRANCH   3  11
ATOM     11  C   UNL d   1     -39.420  14.084  18.373  0.00  0.00     0.019 C 
BRANCH  11  12
ATOM     12  C   UNL d   1     -39.387  14.423  17.631  0.00  0.00     0.005 C 
BRANCH  12  13
ATOM     13  C   UNL d   1     -38.903  14.091  17.051  0.00  0.00     0.039 A 
ATOM     14  C   UNL d   1     -38.767  14.490  16.357  0.00  0.00     0.196 A 
ATOM     15  O   UNL d   1     -39.110  15.251  16.204  0.00  0.00    -0.287 OA
ATOM     16  C   UNL d   1     -38.283  14.159  15.776  0.00  0.00     0.042 A 
ATOM     17  C   UNL d   1     -37.940  13.413  15.914  0.00  0.00     0.003 A 
ATOM     18  C   UNL d   1     -38.070  13.024  16.584  0.00  0.00     0.000 A 
ATOM     19  C   UNL d   1     -38.553  13.355  17.165  0.00  0.00     0.003 A 
ENDBRANCH  12  13
ENDBRANCH  11  12
ENDBRANCH   3  11
TORSDOF 3
ENDMDL
MODEL 7
REMARK VINA RESULT:      -5.9      8.772      9.711
REMARK  3 active torsions:
REMARK  status: ('A' for Active; 'I' for Inactive)
REMARK    1  A    between atoms: C_2  and  C_3 
REMARK    2  A    between atoms: C_5  and  C_2 
REMARK    3  A    between atoms: C_3  and  C_6 
ROOT
ATOM      1  N   UNL d   1     -40.120  14.477  19.112  0.00  0.00    -0.246 NA
ATOM      2  C   UNL d   1     -40.335  14.811  18.390  0.00  0.00     0.081 A 
ATOM      3  C   UNL d   1     -40.322  14.885  19.818  0.00  0.00     0.081 A 
ATOM      4  C   UNL d   1     -40.744  15.539  18.369  0.00  0.00     0.018 A 
ATOM      5  C   UNL d   1     -40.926  15.911  19.070  0.00  0.00     0.003 A 
ATOM      6  C   UNL d   1     -40.711  15.577  19.797  0.00  0.00     0.019 A 
ATOM      7  C   UNL d   1     -40.144  14.422  17.684  0.00  0.00     0.019 A 
ATOM      8  C   UNL d   1     -40.950  15.855  17.642  0.00  0.00     0.002 A 
ATOM      9  C   UNL d   1     -40.369  14.775  16.966  0.00  0.00     0.002 A 
ATOM     10  C   UNL d   1     -40.758  15.466  16.946  0.00  0.00     0.000 A 
ENDROOT
BRANCH   3  11
ATOM     11  C   UNL d   1     -40.118  14.574  20.565  0.00  0.00     0.019 C 
BRANCH  11  12
ATOM     12  C   UNL d   1     -39.649  14.995  21.084  0.00  0.00     0.005 C 
BRANCH  12  13
ATOM     13  C   UNL d   1     -39.345  14.623  21.754  0.00  0.00     0.039 A 
ATOM     14  C   UNL d   1     -38.959  15.057  22.321  0.00  0.00     0.196 A 
ATOM     15  O   UNL d   1     -38.854  15.896  22.247  0.00  0.00    -0.287 OA
ATOM     16  C   UNL d   1     -38.655  14.686  22.992  0.00  0.00     0.042 A 
ATOM     17  C   UNL d   1     -38.751  13.864  23.077  0.00  0.00     0.003 A 
ATOM     18  C   UNL d   1     -39.125  13.441  22.531  0.00  0.00     0.000 A 
ATOM     19  C   UNL d   1     -39.429  13.812  21.860  0.00  0.00     0.003 A 
ENDBRANCH  12  13
ENDBRANCH  11  12
ENDBRANCH   3  11
TORSDOF 3
ENDMDL
MODEL 8
REMARK VINA RESULT:      -5.7      1.426      2.372
REMARK  3 active torsions:
REMARK  status: ('A' for Active; 'I' for Inactive)
REMARK    1  A    between atoms: C_2  and  C_3 
REMARK    2  A    between atoms: C_5  and  C_2 
REMARK    3  A    between atoms: C_3  and  C_6 
ROOT
ATOM      1  N   UNL d   1     -45.923  11.584  23.348  0.00  0.00    -0.246 NA
ATOM      2  C   UNL d   1     -45.216  11.162  23.330  0.00  0.00     0.081 A 
ATOM      3  C   UNL d   1     -45.948  12.338  22.980  0.00  0.00     0.081 A 
ATOM      4  C   UNL d   1     -44.543  11.484  22.954  0.00  0.00     0.018 A 
ATOM      5  C   UNL d   1     -44.599  12.218  22.606  0.00  0.00     0.003 A 
ATOM      6  C   UNL d   1     -45.309  12.644  22.622  0.00  0.00     0.019 A 
ATOM      7  C   UNL d   1     -45.173  10.415  23.688  0.00  0.00     0.019 A 
ATOM      8  C   UNL d   1     -43.849  11.049  22.947  0.00  0.00     0.002 A 
ATOM      9  C   UNL d   1     -44.451  10.006  23.660  0.00  0.00     0.002 A 
ATOM     10  C   UNL d   1     -43.812  10.311  23.302  0.00  0.00     0.000 A 
ENDROOT
BRANCH   3  11
ATOM     11  C   UNL d   1     -46.649  12.791  22.980  0.00  0.00     0.019 C 
BRANCH  11  12
ATOM     12  C   UNL d   1     -47.237  12.659  22.428  0.00  0.00     0.005 C 
BRANCH  12  13
ATOM     13  C   UNL d   1     -47.891  13.160  22.400  0.00  0.00     0.039 A 
ATOM     14  C   UNL d   1     -48.518  12.985  21.915  0.00  0.00     0.196 A 
ATOM     15  O   UNL d   1     -48.524  12.291  21.425  0.00  0.00    -0.287 OA
ATOM     16  C   UNL d   1     -49.173  13.485  21.886  0.00  0.00     0.042 A 
ATOM     17  C   UNL d   1     -49.180  14.168  22.361  0.00  0.00     0.003 A 
ATOM     18  C   UNL d   1     -48.576  14.341  22.832  0.00  0.00     0.000 A 
ATOM     19  C   UNL d   1     -47.920  13.841  22.861  0.00  0.00     0.003 A 
ENDBRANCH  12  13
ENDBRANCH  11  12
ENDBRANCH   3  11
TORSDOF 3
ENDMDL
