MODEL 1
REMARK VINA RESULT:      -5.7      0.000      0.000
REMARK  1 active torsions:
REMARK  status: ('A' for Active; 'I' for Inactive)
REMARK    1  A    between atoms: C_7  and  C_2 
ROOT
ATOM      1  C   UNL d   1     -41.438-122.018 -51.399  0.00  0.00     0.257 A 
ATOM      2  C   UNL d   1     -41.581-122.797 -51.175  0.00  0.00     0.142 A 
ATOM      3  C   UNL d   1     -41.288-121.836 -52.194  0.00  0.00     0.238 A 
ATOM      4  O   UNL d   1     -41.575-123.384 -51.739  0.00  0.00    -0.304 OA
ATOM      5  C   UNL d   1     -41.285-122.452 -52.764  0.00  0.00     0.065 A 
ATOM      6  C   UNL d   1     -41.429-123.230 -52.541  0.00  0.00     0.103 A 
ATOM      7  O   UNL d   1     -41.143-121.038 -52.413  0.00  0.00    -0.283 OA
ATOM      8  O   UNL d   1     -41.441-121.402 -50.828  0.00  0.00    -0.281 OA
ATOM      9  C   UNL d   1     -41.135-122.268 -53.564  0.00  0.00     0.005 A 
ATOM     10  C   UNL d   1     -41.423-123.817 -53.104  0.00  0.00     0.025 A 
ATOM     11  C   UNL d   1     -41.130-122.865 -54.130  0.00  0.00     0.000 A 
ATOM     12  C   UNL d   1     -41.273-123.634 -53.904  0.00  0.00     0.002 A 
ENDROOT
BRANCH   2  13
ATOM     13  C   UNL d   1     -41.733-123.000 -50.380  0.00  0.00     0.026 A 
ATOM     14  C   UNL d   1     -42.501-122.848 -50.069  0.00  0.00     0.002 A 
ATOM     15  C   UNL d   1     -42.646-123.050 -49.284  0.00  0.00     0.000 A 
ATOM     16  C   UNL d   1     -42.073-123.392 -48.800  0.00  0.00     0.000 A 
ATOM     17  C   UNL d   1     -41.323-123.536 -49.120  0.00  0.00     0.000 A 
ATOM     18  C   UNL d   1     -41.154-123.342 -49.901  0.00  0.00     0.002 A 
ENDBRANCH   2  13
TORSDOF 1
ENDMDL
MODEL 2
REMARK VINA RESULT:      -5.4      1.000      3.586
REMARK  1 active torsions:
REMARK  status: ('A' for Active; 'I' for Inactive)
REMARK    1  A    between atoms: C_7  and  C_2 
ROOT
ATOM      1  C   UNL d   1     -41.429-121.625 -52.694  0.00  0.00     0.257 A 
ATOM      2  C   UNL d   1     -41.580-122.321 -53.105  0.00  0.00     0.142 A 
ATOM      3  C   UNL d   1     -41.276-121.648 -51.880  0.00  0.00     0.238 A 
ATOM      4  O   UNL d   1     -41.578-123.031 -52.707  0.00  0.00    -0.304 OA
ATOM      5  C   UNL d   1     -41.277-122.388 -51.481  0.00  0.00     0.065 A 
ATOM      6  C   UNL d   1     -41.428-123.084 -51.893  0.00  0.00     0.103 A 
ATOM      7  O   UNL d   1     -41.123-120.932 -51.468  0.00  0.00    -0.283 OA
ATOM      8  O   UNL d   1     -41.428-120.885 -53.092  0.00  0.00    -0.281 OA
ATOM      9  C   UNL d   1     -41.124-122.411 -50.662  0.00  0.00     0.005 A 
ATOM     10  C   UNL d   1     -41.426-123.794 -51.494  0.00  0.00     0.025 A 
ATOM     11  C   UNL d   1     -41.122-123.131 -50.264  0.00  0.00     0.000 A 
ATOM     12  C   UNL d   1     -41.272-123.818 -50.675  0.00  0.00     0.002 A 
ENDROOT
BRANCH   2  13
ATOM     13  C   UNL d   1     -41.736-122.317 -53.925  0.00  0.00     0.026 A 
ATOM     14  C   UNL d   1     -41.162-122.652 -54.442  0.00  0.00     0.002 A 
ATOM     15  C   UNL d   1     -41.320-122.646 -55.250  0.00  0.00     0.000 A 
ATOM     16  C   UNL d   1     -42.012-122.328 -55.565  0.00  0.00     0.000 A 
ATOM     17  C   UNL d   1     -42.568-122.002 -55.044  0.00  0.00     0.000 A 
ATOM     18  C   UNL d   1     -42.431-121.996 -54.233  0.00  0.00     0.002 A 
ENDBRANCH   2  13
TORSDOF 1
ENDMDL
MODEL 3
REMARK VINA RESULT:      -4.8      1.395      2.419
REMARK  1 active torsions:
REMARK  status: ('A' for Active; 'I' for Inactive)
REMARK    1  A    between atoms: C_7  and  C_2 
ROOT
ATOM      1  C   UNL d   1     -41.469-123.049 -53.256  0.00  0.00     0.257 A 
ATOM      2  C   UNL d   1     -41.765-122.374 -52.890  0.00  0.00     0.142 A 
ATOM      3  C   UNL d   1     -41.511-123.125 -54.081  0.00  0.00     0.238 A 
ATOM      4  O   UNL d   1     -42.098-121.785 -53.342  0.00  0.00    -0.304 OA
ATOM      5  C   UNL d   1     -41.858-122.509 -54.535  0.00  0.00     0.065 A 
ATOM      6  C   UNL d   1     -42.153-121.835 -54.168  0.00  0.00     0.103 A 
ATOM      7  O   UNL d   1     -41.207-123.817 -54.446  0.00  0.00    -0.283 OA
ATOM      8  O   UNL d   1     -41.123-123.665 -52.803  0.00  0.00    -0.281 OA
ATOM      9  C   UNL d   1     -41.900-122.586 -55.364  0.00  0.00     0.005 A 
ATOM     10  C   UNL d   1     -42.486-121.245 -54.620  0.00  0.00     0.025 A 
ATOM     11  C   UNL d   1     -42.238-121.988 -55.816  0.00  0.00     0.000 A 
ATOM     12  C   UNL d   1     -42.529-121.322 -55.449  0.00  0.00     0.002 A 
ENDROOT
BRANCH   2  13
ATOM     13  C   UNL d   1     -41.731-122.279 -52.061  0.00  0.00     0.026 A 
ATOM     14  C   UNL d   1     -41.154-121.755 -51.743  0.00  0.00     0.002 A 
ATOM     15  C   UNL d   1     -41.125-121.664 -50.925  0.00  0.00     0.000 A 
ATOM     16  C   UNL d   1     -41.634-122.064 -50.415  0.00  0.00     0.000 A 
ATOM     17  C   UNL d   1     -42.196-122.577 -50.742  0.00  0.00     0.000 A 
ATOM     18  C   UNL d   1     -42.244-122.683 -51.557  0.00  0.00     0.002 A 
ENDBRANCH   2  13
TORSDOF 1
ENDMDL
MODEL 4
REMARK VINA RESULT:      -4.8      1.421      4.025
REMARK  1 active torsions:
REMARK  status: ('A' for Active; 'I' for Inactive)
REMARK    1  A    between atoms: C_7  and  C_2 
ROOT
ATOM      1  C   UNL d   1     -42.735-123.264 -49.901  0.00  0.00     0.257 A 
ATOM      2  C   UNL d   1     -41.948-123.060 -50.026  0.00  0.00     0.142 A 
ATOM      3  C   UNL d   1     -42.988-123.498 -49.147  0.00  0.00     0.238 A 
ATOM      4  O   UNL d   1     -41.422-123.089 -49.405  0.00  0.00    -0.304 OA
ATOM      5  C   UNL d   1     -42.435-123.524 -48.516  0.00  0.00     0.065 A 
ATOM      6  C   UNL d   1     -41.648-123.319 -48.641  0.00  0.00     0.103 A 
ATOM      7  O   UNL d   1     -43.794-123.705 -49.030  0.00  0.00    -0.283 OA
ATOM      8  O   UNL d   1     -43.288-123.239 -50.533  0.00  0.00    -0.281 OA
ATOM      9  C   UNL d   1     -42.690-123.759 -47.758  0.00  0.00     0.005 A 
ATOM     10  C   UNL d   1     -41.123-123.348 -48.020  0.00  0.00     0.025 A 
ATOM     11  C   UNL d   1     -42.155-123.787 -47.133  0.00  0.00     0.000 A 
ATOM     12  C   UNL d   1     -41.378-123.584 -47.262  0.00  0.00     0.002 A 
ENDROOT
BRANCH   2  13
ATOM     13  C   UNL d   1     -41.674-122.822 -50.777  0.00  0.00     0.026 A 
ATOM     14  C   UNL d   1     -41.695-122.002 -50.969  0.00  0.00     0.002 A 
ATOM     15  C   UNL d   1     -41.423-121.772 -51.711  0.00  0.00     0.000 A 
ATOM     16  C   UNL d   1     -41.137-122.310 -52.266  0.00  0.00     0.000 A 
ATOM     17  C   UNL d   1     -41.123-123.113 -52.064  0.00  0.00     0.000 A 
ATOM     18  C   UNL d   1     -41.388-123.367 -51.328  0.00  0.00     0.002 A 
ENDBRANCH   2  13
TORSDOF 1
ENDMDL
