MODEL 1
REMARK VINA RESULT:      -9.3      0.000      0.000
REMARK  5 active torsions:
REMARK  status: ('A' for Active; 'I' for Inactive)
REMARK    1  A    between atoms: C_10  and  C_3 
REMARK    2  A    between atoms: C_11  and  N_5 
REMARK    3  A    between atoms: O_17  and  C_10 
REMARK    4  A    between atoms: C_22  and  O_17 
REMARK    5  A    between atoms: O_21  and  C_18 
ROOT
ATOM      1  C   UNL d   1      53.475  33.634  54.404  0.00  0.00     0.086 A 
ATOM      2  C   UNL d   1      53.769  32.883  54.251  0.00  0.00     0.038 A 
ATOM      3  C   UNL d   1      53.402  32.381  53.705  0.00  0.00     0.165 A 
ATOM      4  C   UNL d   1      52.796  33.895  54.005  0.00  0.00     0.282 A 
ATOM      5  N   UNL d   1      52.423  33.406  53.460  0.00  0.00    -0.194 N 
ATOM      6  N   UNL d   1      52.725  32.650  53.311  0.00  0.00    -0.157 NA
ATOM      7  C   UNL d   1      53.962  33.991  54.969  0.00  0.00     0.137 A 
ATOM      8  C   UNL d   1      54.439  32.766  54.717  0.00  0.00     0.039 A 
ATOM      9  S   UNL d   1      54.556  33.454  55.161  0.00  0.00    -0.066 SA
ATOM     10  O   UNL d   1      52.494  34.645  54.151  0.00  0.00    -0.265 OA
ATOM     11  N   UNL d   1      53.865  34.751  55.283  0.00  0.00    -0.141 N 
ENDROOT
BRANCH   5  12
ATOM     12  C   UNL d   1      51.749  33.665  53.064  0.00  0.00     0.086 A 
ATOM     13  C   UNL d   1      51.817  34.047  52.330  0.00  0.00     0.021 A 
ATOM     14  C   UNL d   1      51.139  34.305  51.938  0.00  0.00     0.026 A 
ATOM     15  C   UNL d   1      50.396  34.186  52.271  0.00  0.00     0.094 A 
ATOM     16  C   UNL d   1      50.327  33.805  53.004  0.00  0.00     0.026 A 
ATOM     17  C   UNL d   1      51.010  33.546  53.397  0.00  0.00     0.021 A 
BRANCH  15  18
ATOM     18  O   UNL d   1      49.725  34.446  51.873  0.00  0.00    -0.328 OA
ATOM     19  C   UNL d   1      49.139  34.869  52.284  0.00  0.00     0.181 C 
ENDBRANCH  15  18
ENDBRANCH   5  12
BRANCH   3  20
ATOM     20  C   UNL d   1      53.702  31.629  53.555  0.00  0.00     0.320 C 
ATOM     21  O   UNL d   1      54.393  31.540  53.106  0.00  0.00    -0.257 OA
BRANCH  20  22
ATOM     22  O   UNL d   1      53.312  30.962  53.852  0.00  0.00    -0.270 OA
BRANCH  22  23
ATOM     23  C   UNL d   1      53.446  30.225  53.515  0.00  0.00     0.126 C 
ATOM     24  C   UNL d   1      53.094  29.550  53.831  0.00  0.00     0.029 C 
ENDBRANCH  22  23
ENDBRANCH  20  22
ENDBRANCH   3  20
TORSDOF 5
ENDMDL
MODEL 2
REMARK VINA RESULT:      -8.7      1.368      2.512
REMARK  5 active torsions:
REMARK  status: ('A' for Active; 'I' for Inactive)
REMARK    1  A    between atoms: C_10  and  C_3 
REMARK    2  A    between atoms: C_11  and  N_5 
REMARK    3  A    between atoms: O_17  and  C_10 
REMARK    4  A    between atoms: C_22  and  O_17 
REMARK    5  A    between atoms: O_21  and  C_18 
ROOT
ATOM      1  C   UNL d   1      52.892  31.416  53.253  0.00  0.00     0.086 A 
ATOM      2  C   UNL d   1      53.605  31.714  53.528  0.00  0.00     0.038 A 
ATOM      3  C   UNL d   1      53.721  32.527  53.630  0.00  0.00     0.165 A 
ATOM      4  C   UNL d   1      52.274  31.940  53.073  0.00  0.00     0.282 A 
ATOM      5  N   UNL d   1      52.376  32.749  53.170  0.00  0.00    -0.194 N 
ATOM      6  N   UNL d   1      53.099  33.042  53.448  0.00  0.00    -0.157 NA
ATOM      7  C   UNL d   1      52.955  30.593  53.213  0.00  0.00     0.137 A 
ATOM      8  C   UNL d   1      54.117  31.081  53.662  0.00  0.00     0.039 A 
ATOM      9  S   UNL d   1      53.711  30.388  53.466  0.00  0.00    -0.066 SA
ATOM     10  O   UNL d   1      51.556  31.651  52.797  0.00  0.00    -0.265 OA
ATOM     11  N   UNL d   1      52.362  30.072  52.964  0.00  0.00    -0.141 N 
ENDROOT
BRANCH   5  12
ATOM     12  C   UNL d   1      51.762  33.269  52.991  0.00  0.00     0.086 A 
ATOM     13  C   UNL d   1      51.126  33.360  53.518  0.00  0.00     0.021 A 
ATOM     14  C   UNL d   1      50.514  33.882  53.333  0.00  0.00     0.026 A 
ATOM     15  C   UNL d   1      50.532  34.311  52.631  0.00  0.00     0.094 A 
ATOM     16  C   UNL d   1      51.166  34.220  52.106  0.00  0.00     0.026 A 
ATOM     17  C   UNL d   1      51.780  33.695  52.292  0.00  0.00     0.021 A 
BRANCH  15  18
ATOM     18  O   UNL d   1      49.917  34.828  52.455  0.00  0.00    -0.328 OA
ATOM     19  C   UNL d   1      49.332  34.605  51.909  0.00  0.00     0.181 C 
ENDBRANCH  15  18
ENDBRANCH   5  12
BRANCH   3  20
ATOM     20  C   UNL d   1      54.439  32.821  53.906  0.00  0.00     0.320 C 
ATOM     21  O   UNL d   1      55.091  32.868  53.397  0.00  0.00    -0.257 OA
BRANCH  20  22
ATOM     22  O   UNL d   1      54.509  33.069  54.693  0.00  0.00    -0.270 OA
BRANCH  22  23
ATOM     23  C   UNL d   1      55.099  33.599  54.905  0.00  0.00     0.126 C 
ATOM     24  C   UNL d   1      55.126  33.914  55.666  0.00  0.00     0.029 C 
ENDBRANCH  22  23
ENDBRANCH  20  22
ENDBRANCH   3  20
TORSDOF 5
ENDMDL
MODEL 3
REMARK VINA RESULT:      -7.9      1.119      3.714
REMARK  5 active torsions:
REMARK  status: ('A' for Active; 'I' for Inactive)
REMARK    1  A    between atoms: C_10  and  C_3 
REMARK    2  A    between atoms: C_11  and  N_5 
REMARK    3  A    between atoms: O_17  and  C_10 
REMARK    4  A    between atoms: C_22  and  O_17 
REMARK    5  A    between atoms: O_21  and  C_18 
ROOT
ATOM      1  C   UNL d   1      53.011  33.849  53.996  0.00  0.00     0.086 A 
ATOM      2  C   UNL d   1      52.488  34.210  53.477  0.00  0.00     0.038 A 
ATOM      3  C   UNL d   1      52.052  33.768  52.929  0.00  0.00     0.165 A 
ATOM      4  C   UNL d   1      53.107  33.025  53.972  0.00  0.00     0.282 A 
ATOM      5  N   UNL d   1      52.680  32.575  53.432  0.00  0.00    -0.194 N 
ATOM      6  N   UNL d   1      52.154  32.946  52.912  0.00  0.00    -0.157 NA
ATOM      7  C   UNL d   1      53.355  34.437  54.465  0.00  0.00     0.137 A 
ATOM      8  C   UNL d   1      52.500  35.022  53.618  0.00  0.00     0.039 A 
ATOM      9  S   UNL d   1      53.038  35.159  54.231  0.00  0.00    -0.066 SA
ATOM     10  O   UNL d   1      53.629  32.655  54.487  0.00  0.00    -0.265 OA
ATOM     11  N   UNL d   1      53.915  34.316  55.062  0.00  0.00    -0.141 N 
ENDROOT
BRANCH   5  12
ATOM     12  C   UNL d   1      52.775  31.757  53.408  0.00  0.00     0.086 A 
ATOM     13  C   UNL d   1      53.517  31.428  53.235  0.00  0.00     0.021 A 
ATOM     14  C   UNL d   1      53.607  30.608  53.213  0.00  0.00     0.026 A 
ATOM     15  C   UNL d   1      52.963  30.116  53.362  0.00  0.00     0.094 A 
ATOM     16  C   UNL d   1      52.222  30.445  53.534  0.00  0.00     0.026 A 
ATOM     17  C   UNL d   1      52.134  31.269  53.556  0.00  0.00     0.021 A 
BRANCH  15  18
ATOM     18  O   UNL d   1      53.061  29.300  53.337  0.00  0.00    -0.328 OA
ATOM     19  C   UNL d   1      53.237  28.884  54.034  0.00  0.00     0.181 C 
ENDBRANCH  15  18
ENDBRANCH   5  12
BRANCH   3  20
ATOM     20  C   UNL d   1      51.528  34.135  52.411  0.00  0.00     0.320 C 
ATOM     21  O   UNL d   1      51.799  34.418  51.680  0.00  0.00    -0.257 OA
BRANCH  20  22
ATOM     22  O   UNL d   1      50.732  34.220  52.620  0.00  0.00    -0.270 OA
BRANCH  22  23
ATOM     23  C   UNL d   1      50.169  34.368  52.040  0.00  0.00     0.126 C 
ATOM     24  C   UNL d   1      49.389  34.535  52.246  0.00  0.00     0.029 C 
ENDBRANCH  22  23
ENDBRANCH  20  22
ENDBRANCH   3  20
TORSDOF 5
ENDMDL
MODEL 4
REMARK VINA RESULT:      -6.9      1.655      3.841
REMARK  5 active torsions:
REMARK  status: ('A' for Active; 'I' for Inactive)
REMARK    1  A    between atoms: C_10  and  C_3 
REMARK    2  A    between atoms: C_11  and  N_5 
REMARK    3  A    between atoms: O_17  and  C_10 
REMARK    4  A    between atoms: C_22  and  O_17 
REMARK    5  A    between atoms: O_21  and  C_18 
ROOT
ATOM      1  C   UNL d   1      52.294  33.560  52.968  0.00  0.00     0.086 A 
ATOM      2  C   UNL d   1      52.717  33.969  53.540  0.00  0.00     0.038 A 
ATOM      3  C   UNL d   1      53.186  33.570  54.095  0.00  0.00     0.165 A 
ATOM      4  C   UNL d   1      52.336  32.732  52.943  0.00  0.00     0.282 A 
ATOM      5  N   UNL d   1      52.798  32.325  53.488  0.00  0.00    -0.194 N 
ATOM      6  N   UNL d   1      53.222  32.744  54.062  0.00  0.00    -0.157 NA
ATOM      7  C   UNL d   1      51.887  34.113  52.506  0.00  0.00     0.137 A 
ATOM      8  C   UNL d   1      52.578  34.775  53.441  0.00  0.00     0.039 A 
ATOM      9  S   UNL d   1      52.064  34.861  52.799  0.00  0.00    -0.066 SA
ATOM     10  O   UNL d   1      51.916  32.314  52.373  0.00  0.00    -0.265 OA
ATOM     11  N   UNL d   1      51.393  33.939  51.865  0.00  0.00    -0.141 N 
ENDROOT
BRANCH   5  12
ATOM     12  C   UNL d   1      52.839  31.502  53.463  0.00  0.00     0.086 A 
ATOM     13  C   UNL d   1      52.158  31.046  53.596  0.00  0.00     0.021 A 
ATOM     14  C   UNL d   1      52.206  30.223  53.570  0.00  0.00     0.026 A 
ATOM     15  C   UNL d   1      52.924  29.853  53.412  0.00  0.00     0.094 A 
ATOM     16  C   UNL d   1      53.604  30.309  53.279  0.00  0.00     0.026 A 
ATOM     17  C   UNL d   1      53.555  31.136  53.306  0.00  0.00     0.021 A 
BRANCH  15  18
ATOM     18  O   UNL d   1      52.963  29.032  53.387  0.00  0.00    -0.328 OA
ATOM     19  C   UNL d   1      53.222  28.610  54.055  0.00  0.00     0.181 C 
ENDBRANCH  15  18
ENDBRANCH   5  12
BRANCH   3  20
ATOM     20  C   UNL d   1      53.608  33.985  54.667  0.00  0.00     0.320 C 
ATOM     21  O   UNL d   1      53.205  34.369  55.282  0.00  0.00    -0.257 OA
BRANCH  20  22
ATOM     22  O   UNL d   1      54.434  34.017  54.629  0.00  0.00    -0.270 OA
BRANCH  22  23
ATOM     23  C   UNL d   1      54.877  34.026  55.320  0.00  0.00     0.126 C 
ATOM     24  C   UNL d   1      55.701  34.008  55.290  0.00  0.00     0.029 C 
ENDBRANCH  22  23
ENDBRANCH  20  22
ENDBRANCH   3  20
TORSDOF 5
ENDMDL
