MODEL 1
REMARK VINA RESULT:      -6.3      0.000      0.000
REMARK  2 active torsions:
REMARK  status: ('A' for Active; 'I' for Inactive)
REMARK    1  A    between atoms: C_6  and  C_4 
REMARK    2  A    between atoms: C_7  and  C_6 
ROOT
ATOM      1  N   UNL d   1     -46.190  12.564  23.611  0.00  0.00    -0.163 NA
ATOM      2  C   UNL d   1     -46.728  11.954  23.492  0.00  0.00     0.288 A 
ATOM      3  C   UNL d   1     -46.526  13.259  23.320  0.00  0.00     0.313 A 
ATOM      4  C   UNL d   1     -47.398  12.270  23.127  0.00  0.00     0.098 A 
ATOM      5  S   UNL d   1     -47.272  13.080  23.020  0.00  0.00    -0.020 SA
ATOM      6  O   UNL d   1     -46.624  11.168  23.698  0.00  0.00    -0.265 OA
ATOM      7  O   UNL d   1     -46.174  14.005  23.328  0.00  0.00    -0.258 OA
ENDROOT
BRANCH   4   8
ATOM      8  C   UNL d   1     -48.156  12.213  22.797  0.00  0.00     0.075 C 
ATOM      9  C   UNL d   1     -48.307  12.507  22.043  0.00  0.00     0.007 C 
BRANCH   8  10
ATOM     10  C   UNL d   1     -48.767  11.858  23.225  0.00  0.00     0.211 C 
ATOM     11  O   UNL d   1     -48.881  11.043  23.176  0.00  0.00    -0.644 OA
ATOM     12  O   UNL d   1     -49.263  12.311  23.698  0.00  0.00    -0.644 OA
ENDBRANCH   8  10
ENDBRANCH   4   8
TORSDOF 2
ENDMDL
MODEL 2
REMARK VINA RESULT:      -6.3      1.030      2.456
REMARK  2 active torsions:
REMARK  status: ('A' for Active; 'I' for Inactive)
REMARK    1  A    between atoms: C_6  and  C_4 
REMARK    2  A    between atoms: C_7  and  C_6 
ROOT
ATOM      1  N   UNL d   1     -47.088  11.130  23.698  0.00  0.00    -0.163 NA
ATOM      2  C   UNL d   1     -46.528  11.718  23.568  0.00  0.00     0.288 A 
ATOM      3  C   UNL d   1     -47.829  11.438  23.507  0.00  0.00     0.313 A 
ATOM      4  C   UNL d   1     -46.921  12.392  23.296  0.00  0.00     0.098 A 
ATOM      5  S   UNL d   1     -47.728  12.217  23.258  0.00  0.00    -0.020 SA
ATOM      6  O   UNL d   1     -45.720  11.654  23.686  0.00  0.00    -0.265 OA
ATOM      7  O   UNL d   1     -48.546  11.035  23.556  0.00  0.00    -0.258 OA
ENDROOT
BRANCH   4   8
ATOM      8  C   UNL d   1     -46.946  13.176  23.031  0.00  0.00     0.075 C 
ATOM      9  C   UNL d   1     -47.667  13.559  22.927  0.00  0.00     0.007 C 
BRANCH   8  10
ATOM     10  C   UNL d   1     -46.244  13.580  22.869  0.00  0.00     0.211 C 
ATOM     11  O   UNL d   1     -45.901  14.054  23.450  0.00  0.00    -0.644 OA
ATOM     12  O   UNL d   1     -45.885  13.514  22.133  0.00  0.00    -0.644 OA
ENDBRANCH   8  10
ENDBRANCH   4   8
TORSDOF 2
ENDMDL
MODEL 3
REMARK VINA RESULT:      -6.2      1.112      2.007
REMARK  2 active torsions:
REMARK  status: ('A' for Active; 'I' for Inactive)
REMARK    1  A    between atoms: C_6  and  C_4 
REMARK    2  A    between atoms: C_7  and  C_6 
ROOT
ATOM      1  N   UNL d   1     -46.237  12.623  23.624  0.00  0.00    -0.163 NA
ATOM      2  C   UNL d   1     -46.480  13.339  23.301  0.00  0.00     0.288 A 
ATOM      3  C   UNL d   1     -46.823  12.063  23.471  0.00  0.00     0.313 A 
ATOM      4  C   UNL d   1     -47.218  13.224  22.948  0.00  0.00     0.098 A 
ATOM      5  S   UNL d   1     -47.430  12.433  23.054  0.00  0.00    -0.020 SA
ATOM      6  O   UNL d   1     -46.067  14.047  23.323  0.00  0.00    -0.265 OA
ATOM      7  O   UNL d   1     -46.804  11.271  23.698  0.00  0.00    -0.258 OA
ENDROOT
BRANCH   4   8
ATOM      8  C   UNL d   1     -47.884  13.482  22.530  0.00  0.00     0.075 C 
ATOM      9  C   UNL d   1     -48.118  13.100  21.839  0.00  0.00     0.007 C 
BRANCH   8  10
ATOM     10  C   UNL d   1     -48.320  14.128  22.804  0.00  0.00     0.211 C 
ATOM     11  O   UNL d   1     -48.125  14.889  22.555  0.00  0.00    -0.644 OA
ATOM     12  O   UNL d   1     -48.947  14.017  23.323  0.00  0.00    -0.644 OA
ENDBRANCH   8  10
ENDBRANCH   4   8
TORSDOF 2
ENDMDL
