MODEL 1
REMARK VINA RESULT:      15.9      0.000      0.000
REMARK  0 active torsions:
REMARK  status: ('A' for Active; 'I' for Inactive)
ROOT
ATOM      1  C   UNL d   1     -54.825-101.600 -36.959  0.00  0.00     0.086 A 
ATOM      2  S   UNL d   1     -54.847-101.210 -37.681  0.00  0.00    -0.081 SA
ATOM      3  C   UNL d   1     -54.827-102.444 -36.942  0.00  0.00     0.090 A 
ATOM      4  N   UNL d   1     -54.851-102.863 -37.648  0.00  0.00    -0.244 NA
ATOM      5  C   UNL d   1     -54.872-101.629 -38.385  0.00  0.00     0.047 A 
ATOM      6  C   UNL d   1     -54.873-102.453 -38.369  0.00  0.00     0.087 A 
ATOM      7  C   UNL d   1     -54.800-101.181 -36.236  0.00  0.00     0.203 A 
ATOM      8  O   UNL d   1     -54.798-100.338 -36.253  0.00  0.00    -0.286 OA
ATOM      9  C   UNL d   1     -54.804-102.835 -36.203  0.00  0.00     0.020 A 
ATOM     10  C   UNL d   1     -54.778-101.572 -35.515  0.00  0.00     0.043 A 
ATOM     11  C   UNL d   1     -54.779-102.396 -35.499  0.00  0.00     0.005 A 
ATOM     12  C   UNL d   1     -54.894-101.238 -39.107  0.00  0.00     0.008 A 
ATOM     13  C   UNL d   1     -54.898-102.877 -39.074  0.00  0.00     0.020 A 
ATOM     14  C   UNL d   1     -54.918-101.679 -39.811  0.00  0.00     0.001 A 
ATOM     15  C   UNL d   1     -54.920-102.482 -39.795  0.00  0.00     0.002 A 
ENDROOT
TORSDOF 0
ENDMDL
