MODEL 1
REMARK VINA RESULT:     160.9      0.000      0.000
REMARK  5 active torsions:
REMARK  status: ('A' for Active; 'I' for Inactive)
REMARK    1  A    between atoms: N_8  and  S_1 
REMARK    2  A    between atoms: C_11  and  S_1 
REMARK    3  A    between atoms: S_2  and  C_10 
REMARK    4  A    between atoms: N_9  and  S_2 
REMARK    5  A    between atoms: N_20  and  C_5 
ROOT
ATOM      1  C   UNL d   1      61.723  44.614  50.376  0.00  0.00     0.021 A 
ATOM      2  C   UNL d   1      62.027  43.332  50.194  0.00  0.00     0.021 A 
ATOM      3  C   UNL d   1      61.747  43.868  50.754  0.00  0.00     0.111 A 
ATOM      4  C   UNL d   1      62.168  43.747  49.495  0.00  0.00     0.002 A 
ATOM      5  C   UNL d   1      61.974  44.538  49.627  0.00  0.00     0.002 A 
ATOM      6  C   UNL d   1      62.457  42.113  49.577  0.00  0.00     0.104 A 
ATOM      7  C   UNL d   1      61.512  46.016  50.188  0.00  0.00     0.104 A 
ATOM      8  C   UNL d   1      62.171  42.526  50.230  0.00  0.00     0.015 A 
ATOM      9  C   UNL d   1      61.486  45.352  50.675  0.00  0.00     0.015 A 
ATOM     10  C   UNL d   1      62.000  45.203  49.140  0.00  0.00     0.001 A 
ATOM     11  C   UNL d   1      62.456  43.347  48.829  0.00  0.00     0.001 A 
ATOM     12  C   UNL d   1      61.763  45.929  49.447  0.00  0.00     0.013 A 
ATOM     13  C   UNL d   1      62.592  42.556  48.881  0.00  0.00     0.013 A 
ENDROOT
BRANCH   6  14
ATOM     14  S   UNL d   1      62.607  41.284  49.608  0.00  0.00     0.271 S 
ATOM     15  O   UNL d   1      63.116  41.401  50.277  0.00  0.00    -0.200 OA
ATOM     16  O   UNL d   1      62.094  41.206  48.942  0.00  0.00    -0.200 OA
BRANCH  14  17
ATOM     17  N   UNL d   1      62.738  40.476  49.620  0.00  0.00    -0.229 N 
ATOM     18  C   UNL d   1      62.589  40.052  50.302  0.00  0.00     0.092 A 
ATOM     19  C   UNL d   1      62.724  39.246  50.299  0.00  0.00     0.020 A 
ATOM     20  C   UNL d   1      63.004  38.858  49.635  0.00  0.00     0.003 A 
ATOM     21  C   UNL d   1      63.158  39.290  48.938  0.00  0.00     0.020 A 
ATOM     22  C   UNL d   1      63.138  38.036  49.646  0.00  0.00     0.000 C 
ATOM     23  C   UNL d   1      63.022  40.109  48.934  0.00  0.00     0.092 A 
ENDBRANCH  14  17
ENDBRANCH   6  14
BRANCH   3  24
ATOM     24  N   UNL d   1      61.530  43.714  51.535  0.00  0.00    -0.096 NA
ATOM     25  O   UNL d   1      61.486  42.913  51.774  0.00  0.00    -0.061 OA
ENDBRANCH   3  24
BRANCH   7  26
ATOM     26  S   UNL d   1      61.282  46.770  50.458  0.00  0.00     0.271 S 
ATOM     27  O   UNL d   1      60.684  46.415  50.934  0.00  0.00    -0.200 OA
ATOM     28  O   UNL d   1      61.877  47.100  49.981  0.00  0.00    -0.200 OA
BRANCH  26  29
ATOM     29  N   UNL d   1      61.040  47.525  50.737  0.00  0.00    -0.229 N 
ATOM     30  C   UNL d   1      60.561  47.552  51.404  0.00  0.00     0.092 A 
ATOM     31  C   UNL d   1      60.314  48.267  51.694  0.00  0.00     0.020 A 
ATOM     32  C   UNL d   1      60.532  48.976  51.334  0.00  0.00     0.003 A 
ATOM     33  C   UNL d   1      61.021  48.951  50.653  0.00  0.00     0.020 A 
ATOM     34  C   UNL d   1      60.268  49.707  51.647  0.00  0.00     0.000 C 
ATOM     35  C   UNL d   1      61.272  48.220  50.359  0.00  0.00     0.092 A 
ENDBRANCH  26  29
ENDBRANCH   7  26
TORSDOF 5
ENDMDL
