MODEL 1
REMARK VINA RESULT:      -7.5      0.000      0.000
REMARK  11 active torsions:
REMARK  status: ('A' for Active; 'I' for Inactive)
REMARK    1  A    between atoms: C_3  and  C_1 
REMARK    2  A    between atoms: N_4  and  C_1 
REMARK    3  A    between atoms: C_5  and  C_1 
REMARK       I    between atoms: C_2  and  N_4 
REMARK    4  A    between atoms: O_10  and  C_2 
REMARK    5  A    between atoms: O_7  and  C_3 
REMARK    6  A    between atoms: C_12  and  C_5 
REMARK    7  A    between atoms: C_6  and  C_12 
REMARK    8  A    between atoms: C_13  and  O_7 
REMARK    9  A    between atoms: C_15  and  O_10 
REMARK   10  A    between atoms: C_16  and  C_13 
REMARK   11  A    between atoms: C_17  and  C_15 
ROOT
ATOM      1  C   UNL d   1      51.756  33.865  53.027  0.00  0.00     0.150 C 
ENDROOT
BRANCH   1   2
ATOM      2  C   UNL d   1      51.660  33.098  53.316  0.00  0.00     0.318 C 
ATOM      3  O   UNL d   1      51.006  32.912  53.787  0.00  0.00    -0.257 OA
BRANCH   2   4
ATOM      4  O   UNL d   1      52.220  32.510  53.136  0.00  0.00    -0.270 OA
BRANCH   4   5
ATOM      5  C   UNL d   1      52.471  31.867  52.680  0.00  0.00     0.126 C 
BRANCH   5   6
ATOM      6  C   UNL d   1      52.846  31.231  53.048  0.00  0.00     0.025 A 
ATOM      7  C   UNL d   1      53.563  31.342  53.427  0.00  0.00     0.002 A 
ATOM      8  C   UNL d   1      53.939  30.718  53.792  0.00  0.00     0.000 A 
ATOM      9  C   UNL d   1      53.597  29.960  53.784  0.00  0.00     0.000 A 
ATOM     10  C   UNL d   1      52.866  29.851  53.397  0.00  0.00     0.000 A 
ATOM     11  C   UNL d   1      52.497  30.484  53.034  0.00  0.00     0.002 A 
ENDBRANCH   5   6
ENDBRANCH   4   5
ENDBRANCH   2   4
ENDBRANCH   1   2
BRANCH   1  12
ATOM     12  N   UNL d   1      51.694  34.009  52.217  0.00  0.00    -0.180 NA
ATOM     13  C   UNL d   1      50.993  34.318  51.905  0.00  0.00     0.393 C 
ATOM     14  O   UNL d   1      50.932  34.463  51.091  0.00  0.00    -0.236 OA
BRANCH  13  15
ATOM     15  O   UNL d   1      50.355  34.481  52.402  0.00  0.00    -0.256 OA
BRANCH  15  16
ATOM     16  C   UNL d   1      49.585  34.483  52.101  0.00  0.00     0.128 C 
BRANCH  16  17
ATOM     17  C   UNL d   1      49.034  35.017  52.401  0.00  0.00     0.025 A 
ATOM     18  C   UNL d   1      48.439  35.306  51.907  0.00  0.00     0.002 A 
ATOM     19  C   UNL d   1      47.879  35.846  52.206  0.00  0.00     0.000 A 
ATOM     20  C   UNL d   1      47.919  36.091  52.994  0.00  0.00     0.000 A 
ATOM     21  C   UNL d   1      48.521  35.795  53.484  0.00  0.00     0.000 A 
ATOM     22  C   UNL d   1      49.076  35.259  53.186  0.00  0.00     0.002 A 
ENDBRANCH  16  17
ENDBRANCH  15  16
ENDBRANCH  13  15
ENDBRANCH   1  12
BRANCH   1  23
ATOM     23  C   UNL d   1      51.915  34.487  53.548  0.00  0.00     0.031 C 
BRANCH  23  24
ATOM     24  C   UNL d   1      52.680  34.788  53.612  0.00  0.00     0.072 C 
BRANCH  24  25
ATOM     25  C   UNL d   1      52.889  35.256  54.260  0.00  0.00     0.211 C 
ATOM     26  O   UNL d   1      52.481  35.960  54.422  0.00  0.00    -0.644 OA
ATOM     27  O   UNL d   1      53.510  35.030  54.762  0.00  0.00    -0.644 OA
ENDBRANCH  24  25
ENDBRANCH  23  24
ENDBRANCH   1  23
TORSDOF 11
ENDMDL
MODEL 2
REMARK VINA RESULT:      -7.3      1.479      5.142
REMARK  11 active torsions:
REMARK  status: ('A' for Active; 'I' for Inactive)
REMARK    1  A    between atoms: C_3  and  C_1 
REMARK    2  A    between atoms: N_4  and  C_1 
REMARK    3  A    between atoms: C_5  and  C_1 
REMARK       I    between atoms: C_2  and  N_4 
REMARK    4  A    between atoms: O_10  and  C_2 
REMARK    5  A    between atoms: O_7  and  C_3 
REMARK    6  A    between atoms: C_12  and  C_5 
REMARK    7  A    between atoms: C_6  and  C_12 
REMARK    8  A    between atoms: C_13  and  O_7 
REMARK    9  A    between atoms: C_15  and  O_10 
REMARK   10  A    between atoms: C_16  and  C_13 
REMARK   11  A    between atoms: C_17  and  C_15 
ROOT
ATOM      1  C   UNL d   1      53.023  32.634  53.437  0.00  0.00     0.150 C 
ENDROOT
BRANCH   1   2
ATOM      2  C   UNL d   1      52.362  33.067  53.672  0.00  0.00     0.318 C 
ATOM      3  O   UNL d   1      52.082  33.007  54.448  0.00  0.00    -0.257 OA
BRANCH   2   4
ATOM      4  O   UNL d   1      51.973  33.564  53.130  0.00  0.00    -0.270 OA
BRANCH   4   5
ATOM      5  C   UNL d   1      51.682  34.306  52.911  0.00  0.00     0.126 C 
BRANCH   5   6
ATOM      6  C   UNL d   1      50.952  34.360  52.531  0.00  0.00     0.025 A 
ATOM      7  C   UNL d   1      50.899  34.228  51.725  0.00  0.00     0.002 A 
ATOM      8  C   UNL d   1      50.180  34.279  51.345  0.00  0.00     0.000 A 
ATOM      9  C   UNL d   1      49.491  34.466  51.771  0.00  0.00     0.000 A 
ATOM     10  C   UNL d   1      49.550  34.600  52.593  0.00  0.00     0.000 A 
ATOM     11  C   UNL d   1      50.275  34.546  52.965  0.00  0.00     0.002 A 
ENDBRANCH   5   6
ENDBRANCH   4   5
ENDBRANCH   2   4
ENDBRANCH   1   2
BRANCH   1  12
ATOM     12  N   UNL d   1      53.018  32.233  52.715  0.00  0.00    -0.180 NA
ATOM     13  C   UNL d   1      52.982  31.407  52.701  0.00  0.00     0.393 C 
ATOM     14  O   UNL d   1      52.977  31.007  51.975  0.00  0.00    -0.236 OA
BRANCH  13  15
ATOM     15  O   UNL d   1      52.952  30.982  53.407  0.00  0.00    -0.256 OA
BRANCH  15  16
ATOM     16  C   UNL d   1      52.724  30.187  53.403  0.00  0.00     0.128 C 
BRANCH  16  17
ATOM     17  C   UNL d   1      52.996  29.685  53.998  0.00  0.00     0.025 A 
ATOM     18  C   UNL d   1      53.612  29.160  53.836  0.00  0.00     0.002 A 
ATOM     19  C   UNL d   1      53.890  28.651  54.434  0.00  0.00     0.000 A 
ATOM     20  C   UNL d   1      53.550  28.671  55.186  0.00  0.00     0.000 A 
ATOM     21  C   UNL d   1      52.929  29.202  55.340  0.00  0.00     0.000 A 
ATOM     22  C   UNL d   1      52.655  29.706  54.746  0.00  0.00     0.002 A 
ENDBRANCH  16  17
ENDBRANCH  15  16
ENDBRANCH  13  15
ENDBRANCH   1  12
BRANCH   1  23
ATOM     23  C   UNL d   1      53.691  32.601  53.923  0.00  0.00     0.031 C 
BRANCH  23  24
ATOM     24  C   UNL d   1      54.165  33.270  54.022  0.00  0.00     0.072 C 
BRANCH  24  25
ATOM     25  C   UNL d   1      54.848  33.229  54.485  0.00  0.00     0.211 C 
ATOM     26  O   UNL d   1      55.597  33.303  54.138  0.00  0.00    -0.644 OA
ATOM     27  O   UNL d   1      54.796  33.114  55.304  0.00  0.00    -0.644 OA
ENDBRANCH  24  25
ENDBRANCH  23  24
ENDBRANCH   1  23
TORSDOF 11
ENDMDL
MODEL 3
REMARK VINA RESULT:      -7.1      1.972      4.654
REMARK  11 active torsions:
REMARK  status: ('A' for Active; 'I' for Inactive)
REMARK    1  A    between atoms: C_3  and  C_1 
REMARK    2  A    between atoms: N_4  and  C_1 
REMARK    3  A    between atoms: C_5  and  C_1 
REMARK       I    between atoms: C_2  and  N_4 
REMARK    4  A    between atoms: O_10  and  C_2 
REMARK    5  A    between atoms: O_7  and  C_3 
REMARK    6  A    between atoms: C_12  and  C_5 
REMARK    7  A    between atoms: C_6  and  C_12 
REMARK    8  A    between atoms: C_13  and  O_7 
REMARK    9  A    between atoms: C_15  and  O_10 
REMARK   10  A    between atoms: C_16  and  C_13 
REMARK   11  A    between atoms: C_17  and  C_15 
ROOT
ATOM      1  C   UNL d   1      53.434  31.376  53.245  0.00  0.00     0.150 C 
ENDROOT
BRANCH   1   2
ATOM      2  C   UNL d   1      52.801  31.525  52.738  0.00  0.00     0.318 C 
ATOM      3  O   UNL d   1      52.783  31.182  51.986  0.00  0.00    -0.257 OA
BRANCH   2   4
ATOM      4  O   UNL d   1      52.178  32.021  52.981  0.00  0.00    -0.270 OA
BRANCH   4   5
ATOM      5  C   UNL d   1      51.372  32.198  53.026  0.00  0.00     0.126 C 
BRANCH   5   6
ATOM      6  C   UNL d   1      51.120  32.974  52.903  0.00  0.00     0.025 A 
ATOM      7  C   UNL d   1      51.351  33.378  52.230  0.00  0.00     0.002 A 
ATOM      8  C   UNL d   1      51.105  34.145  52.103  0.00  0.00     0.000 A 
ATOM      9  C   UNL d   1      50.616  34.526  52.657  0.00  0.00     0.000 A 
ATOM     10  C   UNL d   1      50.382  34.110  53.342  0.00  0.00     0.000 A 
ATOM     11  C   UNL d   1      50.635  33.342  53.460  0.00  0.00     0.002 A 
ENDBRANCH   5   6
ENDBRANCH   4   5
ENDBRANCH   2   4
ENDBRANCH   1   2
BRANCH   1  12
ATOM     12  N   UNL d   1      54.193  31.622  53.038  0.00  0.00    -0.180 NA
ATOM     13  C   UNL d   1      54.528  32.285  53.403  0.00  0.00     0.393 C 
ATOM     14  O   UNL d   1      55.291  32.530  53.193  0.00  0.00    -0.236 OA
BRANCH  13  15
ATOM     15  O   UNL d   1      54.102  32.701  53.974  0.00  0.00    -0.256 OA
BRANCH  15  16
ATOM     16  C   UNL d   1      54.485  33.257  54.452  0.00  0.00     0.128 C 
BRANCH  16  17
ATOM     17  C   UNL d   1      54.074  33.926  54.702  0.00  0.00     0.025 A 
ATOM     18  C   UNL d   1      53.677  33.911  55.426  0.00  0.00     0.002 A 
ATOM     19  C   UNL d   1      53.260  34.585  55.684  0.00  0.00     0.000 A 
ATOM     20  C   UNL d   1      53.245  35.266  55.217  0.00  0.00     0.000 A 
ATOM     21  C   UNL d   1      53.647  35.272  54.490  0.00  0.00     0.000 A 
ATOM     22  C   UNL d   1      54.060  34.603  54.236  0.00  0.00     0.002 A 
ENDBRANCH  16  17
ENDBRANCH  15  16
ENDBRANCH  13  15
ENDBRANCH   1  12
BRANCH   1  23
ATOM     23  C   UNL d   1      53.307  30.980  53.960  0.00  0.00     0.031 C 
BRANCH  23  24
ATOM     24  C   UNL d   1      53.481  30.176  54.024  0.00  0.00     0.072 C 
BRANCH  24  25
ATOM     25  C   UNL d   1      53.195  29.740  54.665  0.00  0.00     0.211 C 
ATOM     26  O   UNL d   1      53.228  30.049  55.434  0.00  0.00    -0.644 OA
ATOM     27  O   UNL d   1      52.869  28.986  54.551  0.00  0.00    -0.644 OA
ENDBRANCH  24  25
ENDBRANCH  23  24
ENDBRANCH   1  23
TORSDOF 11
ENDMDL
MODEL 4
REMARK VINA RESULT:      -6.7      0.710      4.872
REMARK  11 active torsions:
REMARK  status: ('A' for Active; 'I' for Inactive)
REMARK    1  A    between atoms: C_3  and  C_1 
REMARK    2  A    between atoms: N_4  and  C_1 
REMARK    3  A    between atoms: C_5  and  C_1 
REMARK       I    between atoms: C_2  and  N_4 
REMARK    4  A    between atoms: O_10  and  C_2 
REMARK    5  A    between atoms: O_7  and  C_3 
REMARK    6  A    between atoms: C_12  and  C_5 
REMARK    7  A    between atoms: C_6  and  C_12 
REMARK    8  A    between atoms: C_13  and  O_7 
REMARK    9  A    between atoms: C_15  and  O_10 
REMARK   10  A    between atoms: C_16  and  C_13 
REMARK   11  A    between atoms: C_17  and  C_15 
ROOT
ATOM      1  C   UNL d   1      51.601  34.248  53.317  0.00  0.00     0.150 C 
ENDROOT
BRANCH   1   2
ATOM      2  C   UNL d   1      50.809  34.048  53.437  0.00  0.00     0.318 C 
ATOM      3  O   UNL d   1      50.612  33.430  53.949  0.00  0.00    -0.257 OA
BRANCH   2   4
ATOM      4  O   UNL d   1      50.208  34.467  53.044  0.00  0.00    -0.270 OA
BRANCH   4   5
ATOM      5  C   UNL d   1      49.532  34.484  52.567  0.00  0.00     0.126 C 
BRANCH   5   6
ATOM      6  C   UNL d   1      48.975  35.082  52.676  0.00  0.00     0.025 A 
ATOM      7  C   UNL d   1      48.864  35.410  53.418  0.00  0.00     0.002 A 
ATOM      8  C   UNL d   1      48.315  36.001  53.531  0.00  0.00     0.000 A 
ATOM      9  C   UNL d   1      47.859  36.278  52.894  0.00  0.00     0.000 A 
ATOM     10  C   UNL d   1      47.974  35.942  52.138  0.00  0.00     0.000 A 
ATOM     11  C   UNL d   1      48.528  35.349  52.036  0.00  0.00     0.002 A 
ENDBRANCH   5   6
ENDBRANCH   4   5
ENDBRANCH   2   4
ENDBRANCH   1   2
BRANCH   1  12
ATOM     12  N   UNL d   1      51.922  34.219  52.558  0.00  0.00    -0.180 NA
ATOM     13  C   UNL d   1      52.387  33.574  52.330  0.00  0.00     0.393 C 
ATOM     14  O   UNL d   1      52.709  33.546  51.568  0.00  0.00    -0.236 OA
BRANCH  13  15
ATOM     15  O   UNL d   1      52.532  32.961  52.862  0.00  0.00    -0.256 OA
BRANCH  15  16
ATOM     16  C   UNL d   1      53.146  32.425  52.720  0.00  0.00     0.128 C 
BRANCH  16  17
ATOM     17  C   UNL d   1      53.132  31.687  53.087  0.00  0.00     0.025 A 
ATOM     18  C   UNL d   1      53.588  31.562  53.764  0.00  0.00     0.002 A 
ATOM     19  C   UNL d   1      53.578  30.817  54.138  0.00  0.00     0.000 A 
ATOM     20  C   UNL d   1      53.114  30.207  53.833  0.00  0.00     0.000 A 
ATOM     21  C   UNL d   1      52.658  30.341  53.151  0.00  0.00     0.000 A 
ATOM     22  C   UNL d   1      52.670  31.080  52.781  0.00  0.00     0.002 A 
ENDBRANCH  16  17
ENDBRANCH  15  16
ENDBRANCH  13  15
ENDBRANCH   1  12
BRANCH   1  23
ATOM     23  C   UNL d   1      52.071  34.479  53.957  0.00  0.00     0.031 C 
BRANCH  23  24
ATOM     24  C   UNL d   1      52.412  35.230  53.971  0.00  0.00     0.072 C 
BRANCH  24  25
ATOM     25  C   UNL d   1      52.812  35.491  54.645  0.00  0.00     0.211 C 
ATOM     26  O   UNL d   1      53.196  34.952  55.144  0.00  0.00    -0.644 OA
ATOM     27  O   UNL d   1      52.835  36.298  54.836  0.00  0.00    -0.644 OA
ENDBRANCH  24  25
ENDBRANCH  23  24
ENDBRANCH   1  23
TORSDOF 11
ENDMDL
MODEL 5
REMARK VINA RESULT:      -6.6      1.836      2.689
REMARK  11 active torsions:
REMARK  status: ('A' for Active; 'I' for Inactive)
REMARK    1  A    between atoms: C_3  and  C_1 
REMARK    2  A    between atoms: N_4  and  C_1 
REMARK    3  A    between atoms: C_5  and  C_1 
REMARK       I    between atoms: C_2  and  N_4 
REMARK    4  A    between atoms: O_10  and  C_2 
REMARK    5  A    between atoms: O_7  and  C_3 
REMARK    6  A    between atoms: C_12  and  C_5 
REMARK    7  A    between atoms: C_6  and  C_12 
REMARK    8  A    between atoms: C_13  and  O_7 
REMARK    9  A    between atoms: C_15  and  O_10 
REMARK   10  A    between atoms: C_16  and  C_13 
REMARK   11  A    between atoms: C_17  and  C_15 
ROOT
ATOM      1  C   UNL d   1      54.323  33.393  53.730  0.00  0.00     0.150 C 
ENDROOT
BRANCH   1   2
ATOM      2  C   UNL d   1      54.480  32.763  53.221  0.00  0.00     0.318 C 
ATOM      3  O   UNL d   1      55.183  32.748  52.785  0.00  0.00    -0.257 OA
BRANCH   2   4
ATOM      4  O   UNL d   1      53.933  32.142  53.143  0.00  0.00    -0.270 OA
BRANCH   4   5
ATOM      5  C   UNL d   1      53.590  31.532  52.702  0.00  0.00     0.126 C 
BRANCH   5   6
ATOM      6  C   UNL d   1      53.276  30.877  53.092  0.00  0.00     0.025 A 
ATOM      7  C   UNL d   1      52.464  30.773  53.131  0.00  0.00     0.002 A 
ATOM      8  C   UNL d   1      52.149  30.127  53.515  0.00  0.00     0.000 A 
ATOM      9  C   UNL d   1      52.647  29.566  53.872  0.00  0.00     0.000 A 
ATOM     10  C   UNL d   1      53.474  29.675  53.829  0.00  0.00     0.000 A 
ATOM     11  C   UNL d   1      53.780  30.326  53.442  0.00  0.00     0.002 A 
ENDBRANCH   5   6
ENDBRANCH   4   5
ENDBRANCH   2   4
ENDBRANCH   1   2
BRANCH   1  12
ATOM     12  N   UNL d   1      54.356  34.168  53.448  0.00  0.00    -0.180 NA
ATOM     13  C   UNL d   1      53.657  34.583  53.297  0.00  0.00     0.393 C 
ATOM     14  O   UNL d   1      53.692  35.361  53.014  0.00  0.00    -0.236 OA
BRANCH  13  15
ATOM     15  O   UNL d   1      52.926  34.223  53.427  0.00  0.00    -0.256 OA
BRANCH  15  16
ATOM     16  C   UNL d   1      52.233  34.674  53.409  0.00  0.00     0.128 C 
BRANCH  16  17
ATOM     17  C   UNL d   1      51.537  34.336  53.126  0.00  0.00     0.025 A 
ATOM     18  C   UNL d   1      51.367  34.375  52.318  0.00  0.00     0.002 A 
ATOM     19  C   UNL d   1      50.665  34.034  52.027  0.00  0.00     0.000 A 
ATOM     20  C   UNL d   1      50.140  33.661  52.543  0.00  0.00     0.000 A 
ATOM     21  C   UNL d   1      50.319  33.627  53.354  0.00  0.00     0.000 A 
ATOM     22  C   UNL d   1      51.016  33.965  53.641  0.00  0.00     0.002 A 
ENDBRANCH  16  17
ENDBRANCH  15  16
ENDBRANCH  13  15
ENDBRANCH   1  12
BRANCH   1  23
ATOM     23  C   UNL d   1      54.133  33.248  54.522  0.00  0.00     0.031 C 
BRANCH  23  24
ATOM     24  C   UNL d   1      54.713  33.313  55.105  0.00  0.00     0.072 C 
BRANCH  24  25
ATOM     25  C   UNL d   1      54.519  33.190  55.898  0.00  0.00     0.211 C 
ATOM     26  O   UNL d   1      54.066  32.532  56.124  0.00  0.00    -0.644 OA
ATOM     27  O   UNL d   1      54.773  33.721  56.483  0.00  0.00    -0.644 OA
ENDBRANCH  24  25
ENDBRANCH  23  24
ENDBRANCH   1  23
TORSDOF 11
ENDMDL
MODEL 6
REMARK VINA RESULT:      -5.6      1.417      4.416
REMARK  11 active torsions:
REMARK  status: ('A' for Active; 'I' for Inactive)
REMARK    1  A    between atoms: C_3  and  C_1 
REMARK    2  A    between atoms: N_4  and  C_1 
REMARK    3  A    between atoms: C_5  and  C_1 
REMARK       I    between atoms: C_2  and  N_4 
REMARK    4  A    between atoms: O_10  and  C_2 
REMARK    5  A    between atoms: O_7  and  C_3 
REMARK    6  A    between atoms: C_12  and  C_5 
REMARK    7  A    between atoms: C_6  and  C_12 
REMARK    8  A    between atoms: C_13  and  O_7 
REMARK    9  A    between atoms: C_15  and  O_10 
REMARK   10  A    between atoms: C_16  and  C_13 
REMARK   11  A    between atoms: C_17  and  C_15 
ROOT
ATOM      1  C   UNL d   1      51.804  33.694  53.205  0.00  0.00     0.150 C 
ENDROOT
BRANCH   1   2
ATOM      2  C   UNL d   1      51.966  33.713  54.014  0.00  0.00     0.318 C 
ATOM      3  O   UNL d   1      51.418  33.406  54.552  0.00  0.00    -0.257 OA
BRANCH   2   4
ATOM      4  O   UNL d   1      52.679  34.040  54.291  0.00  0.00    -0.270 OA
BRANCH   4   5
ATOM      5  C   UNL d   1      53.119  34.419  54.879  0.00  0.00     0.126 C 
BRANCH   5   6
ATOM      6  C   UNL d   1      53.893  34.174  55.028  0.00  0.00     0.025 A 
ATOM      7  C   UNL d   1      54.033  33.537  55.523  0.00  0.00     0.002 A 
ATOM      8  C   UNL d   1      54.795  33.291  55.674  0.00  0.00     0.000 A 
ATOM      9  C   UNL d   1      55.440  33.684  55.326  0.00  0.00     0.000 A 
ATOM     10  C   UNL d   1      55.293  34.333  54.822  0.00  0.00     0.000 A 
ATOM     11  C   UNL d   1      54.524  34.572  54.677  0.00  0.00     0.002 A 
ENDBRANCH   5   6
ENDBRANCH   4   5
ENDBRANCH   2   4
ENDBRANCH   1   2
BRANCH   1  12
ATOM     12  N   UNL d   1      52.424  33.643  52.663  0.00  0.00    -0.180 NA
ATOM     13  C   UNL d   1      52.735  32.905  52.458  0.00  0.00     0.393 C 
ATOM     14  O   UNL d   1      53.357  32.856  51.913  0.00  0.00    -0.236 OA
BRANCH  13  15
ATOM     15  O   UNL d   1      52.425  32.218  52.795  0.00  0.00    -0.256 OA
BRANCH  15  16
ATOM     16  C   UNL d   1      52.620  31.479  52.480  0.00  0.00     0.128 C 
BRANCH  16  17
ATOM     17  C   UNL d   1      52.779  30.851  52.990  0.00  0.00     0.025 A 
ATOM     18  C   UNL d   1      52.176  30.319  53.178  0.00  0.00     0.002 A 
ATOM     19  C   UNL d   1      52.331  29.682  53.693  0.00  0.00     0.000 A 
ATOM     20  C   UNL d   1      53.085  29.584  54.014  0.00  0.00     0.000 A 
ATOM     21  C   UNL d   1      53.686  30.124  53.819  0.00  0.00     0.000 A 
ATOM     22  C   UNL d   1      53.530  30.755  53.308  0.00  0.00     0.002 A 
ENDBRANCH  16  17
ENDBRANCH  15  16
ENDBRANCH  13  15
ENDBRANCH   1  12
BRANCH   1  23
ATOM     23  C   UNL d   1      51.022  33.727  52.938  0.00  0.00     0.031 C 
BRANCH  23  24
ATOM     24  C   UNL d   1      50.716  34.433  52.639  0.00  0.00     0.072 C 
BRANCH  24  25
ATOM     25  C   UNL d   1      49.927  34.474  52.401  0.00  0.00     0.211 C 
ATOM     26  O   UNL d   1      49.687  34.146  51.678  0.00  0.00    -0.644 OA
ATOM     27  O   UNL d   1      49.360  34.844  52.880  0.00  0.00    -0.644 OA
ENDBRANCH  24  25
ENDBRANCH  23  24
ENDBRANCH   1  23
TORSDOF 11
ENDMDL
