MODEL 1
REMARK VINA RESULT:      -0.3      0.000      0.000
REMARK  7 active torsions:
REMARK  status: ('A' for Active; 'I' for Inactive)
REMARK    1  A    between atoms: N_4  and  S_1 
REMARK    2  A    between atoms: C_2  and  N_4 
REMARK    3  A    between atoms: C_3  and  C_2 
REMARK    4  A    between atoms: N_5  and  C_3 
REMARK    5  A    between atoms: C_7  and  C_3 
REMARK    6  A    between atoms: C_9  and  N_6 
REMARK    7  A    between atoms: O_26  and  C_22 
ROOT
ATOM      1  N   UNL d   1      32.058  18.052 -23.665  0.00  0.00    -0.300 N 
ATOM      2  N   UNL d   1      32.454  19.376 -22.736  0.00  0.00    -0.301 N 
ATOM      3  C   UNL d   1      32.376  18.738 -24.016  0.00  0.00     0.100 A 
ATOM      4  C   UNL d   1      31.945  18.045 -22.853  0.00  0.00     0.100 A 
ATOM      5  C   UNL d   1      32.573  19.395 -23.559  0.00  0.00     0.100 A 
ATOM      6  C   UNL d   1      32.138  18.694 -22.387  0.00  0.00     0.100 A 
ENDROOT
BRANCH   1   7
ATOM      7  C   UNL d   1      31.863  17.400 -24.123  0.00  0.00     0.089 C 
BRANCH   7   8
ATOM      8  C   UNL d   1      31.139  17.369 -24.513  0.00  0.00     0.110 C 
ATOM      9  C   UNL d   1      30.940  17.953 -25.061  0.00  0.00     0.023 C 
BRANCH   8  10
ATOM     10  N   UNL d   1      30.617  16.758 -24.357  0.00  0.00    -0.161 NA
BRANCH  10  11
ATOM     11  S   UNL d   1      29.809  16.853 -24.482  0.00  0.00     0.266 S 
ATOM     12  O   UNL d   1      29.719  16.140 -24.066  0.00  0.00    -0.203 OA
ATOM     13  O   UNL d   1      29.055  16.536 -24.359  0.00  0.00    -0.203 OA
ATOM     14  C   UNL d   1      29.828  17.559 -24.900  0.00  0.00     0.165 C 
ENDBRANCH  10  11
ENDBRANCH   8  10
ENDBRANCH   7   8
BRANCH   7  15
ATOM     15  C   UNL d   1      32.393  16.774 -24.194  0.00  0.00     0.047 A 
ATOM     16  S   UNL d   1      32.670  16.445 -24.902  0.00  0.00    -0.085 SA
ATOM     17  C   UNL d   1      33.190  15.833 -24.708  0.00  0.00     0.035 A 
ATOM     18  C   UNL d   1      33.240  15.775 -23.894  0.00  0.00     0.007 A 
ATOM     19  C   UNL d   1      32.745  16.360 -23.570  0.00  0.00     0.009 A 
ENDBRANCH   7  15
ENDBRANCH   1   7
BRANCH   2  20
ATOM     20  C   UNL d   1      32.652  20.035 -22.277  0.00  0.00     0.064 A 
ATOM     21  C   UNL d   1      32.901  19.935 -21.503  0.00  0.00     0.020 A 
ATOM     22  C   UNL d   1      33.099  20.597 -21.047  0.00  0.00     0.026 A 
ATOM     23  C   UNL d   1      33.044  21.358 -21.374  0.00  0.00     0.094 A 
ATOM     24  C   UNL d   1      32.791  21.440 -22.159  0.00  0.00     0.026 A 
ATOM     25  C   UNL d   1      32.593  20.778 -22.616  0.00  0.00     0.020 A 
BRANCH  23  26
ATOM     26  O   UNL d   1      33.241  22.026 -20.922  0.00  0.00    -0.328 OA
ATOM     27  C   UNL d   1      32.723  22.268 -20.330  0.00  0.00     0.181 C 
ENDBRANCH  23  26
ENDBRANCH   2  20
TORSDOF 7
ENDMDL
MODEL 2
REMARK VINA RESULT:       1.5      2.636      5.768
REMARK  7 active torsions:
REMARK  status: ('A' for Active; 'I' for Inactive)
REMARK    1  A    between atoms: N_4  and  S_1 
REMARK    2  A    between atoms: C_2  and  N_4 
REMARK    3  A    between atoms: C_3  and  C_2 
REMARK    4  A    between atoms: N_5  and  C_3 
REMARK    5  A    between atoms: C_7  and  C_3 
REMARK    6  A    between atoms: C_9  and  N_6 
REMARK    7  A    between atoms: O_26  and  C_22 
ROOT
ATOM      1  N   UNL d   1      32.784  21.329 -21.952  0.00  0.00    -0.300 N 
ATOM      2  N   UNL d   1      32.867  19.755 -22.491  0.00  0.00    -0.301 N 
ATOM      3  C   UNL d   1      33.082  21.155 -22.710  0.00  0.00     0.100 A 
ATOM      4  C   UNL d   1      32.533  20.708 -21.479  0.00  0.00     0.100 A 
ATOM      5  C   UNL d   1      33.124  20.377 -22.980  0.00  0.00     0.100 A 
ATOM      6  C   UNL d   1      32.571  19.929 -21.737  0.00  0.00     0.100 A 
ENDROOT
BRANCH   1   7
ATOM      7  C   UNL d   1      32.743  22.104 -21.686  0.00  0.00     0.089 C 
BRANCH   7   8
ATOM      8  C   UNL d   1      32.805  22.271 -20.883  0.00  0.00     0.110 C 
ATOM      9  C   UNL d   1      33.237  21.770 -20.390  0.00  0.00     0.023 C 
BRANCH   8  10
ATOM     10  N   UNL d   1      32.439  22.934 -20.574  0.00  0.00    -0.161 NA
BRANCH  10  11
ATOM     11  S   UNL d   1      32.454  23.086 -19.765  0.00  0.00     0.266 S 
ATOM     12  O   UNL d   1      31.659  22.847 -19.763  0.00  0.00    -0.203 OA
ATOM     13  O   UNL d   1      32.024  23.084 -19.060  0.00  0.00    -0.203 OA
ATOM     14  C   UNL d   1      33.235  23.333 -19.699  0.00  0.00     0.165 C 
ENDBRANCH  10  11
ENDBRANCH   8  10
ENDBRANCH   7   8
BRANCH   7  15
ATOM     15  C   UNL d   1      32.639  22.718 -22.225  0.00  0.00     0.047 A 
ATOM     16  S   UNL d   1      31.914  23.033 -22.473  0.00  0.00    -0.085 SA
ATOM     17  C   UNL d   1      32.076  23.637 -23.014  0.00  0.00     0.035 A 
ATOM     18  C   UNL d   1      32.885  23.702 -23.106  0.00  0.00     0.007 A 
ATOM     19  C   UNL d   1      33.240  23.130 -22.616  0.00  0.00     0.009 A 
ENDBRANCH   7  15
ENDBRANCH   1   7
BRANCH   2  20
ATOM     20  C   UNL d   1      32.910  18.975 -22.762  0.00  0.00     0.064 A 
ATOM     21  C   UNL d   1      32.684  18.796 -23.530  0.00  0.00     0.020 A 
ATOM     22  C   UNL d   1      32.728  18.015 -23.799  0.00  0.00     0.026 A 
ATOM     23  C   UNL d   1      33.000  17.417 -23.293  0.00  0.00     0.094 A 
ATOM     24  C   UNL d   1      33.224  17.615 -22.519  0.00  0.00     0.026 A 
ATOM     25  C   UNL d   1      33.180  18.398 -22.249  0.00  0.00     0.020 A 
BRANCH  23  26
ATOM     26  O   UNL d   1      33.047  16.630 -23.556  0.00  0.00    -0.328 OA
ATOM     27  C   UNL d   1      32.561  16.067 -23.203  0.00  0.00     0.181 C 
ENDBRANCH  23  26
ENDBRANCH   2  20
TORSDOF 7
ENDMDL
MODEL 3
REMARK VINA RESULT:       2.2      1.155      2.086
REMARK  7 active torsions:
REMARK  status: ('A' for Active; 'I' for Inactive)
REMARK    1  A    between atoms: N_4  and  S_1 
REMARK    2  A    between atoms: C_2  and  N_4 
REMARK    3  A    between atoms: C_3  and  C_2 
REMARK    4  A    between atoms: N_5  and  C_3 
REMARK    5  A    between atoms: C_7  and  C_3 
REMARK    6  A    between atoms: C_9  and  N_6 
REMARK    7  A    between atoms: O_26  and  C_22 
ROOT
ATOM      1  N   UNL d   1      32.083  18.701 -23.493  0.00  0.00    -0.300 N 
ATOM      2  N   UNL d   1      32.472  20.011 -22.541  0.00  0.00    -0.301 N 
ATOM      3  C   UNL d   1      31.945  19.478 -23.762  0.00  0.00     0.100 A 
ATOM      4  C   UNL d   1      32.414  18.598 -22.750  0.00  0.00     0.100 A 
ATOM      5  C   UNL d   1      32.137  20.128 -23.294  0.00  0.00     0.100 A 
ATOM      6  C   UNL d   1      32.609  19.239 -22.274  0.00  0.00     0.100 A 
ENDROOT
BRANCH   1   7
ATOM      7  C   UNL d   1      31.891  18.056 -23.962  0.00  0.00     0.089 C 
BRANCH   7   8
ATOM      8  C   UNL d   1      32.452  17.475 -24.117  0.00  0.00     0.110 C 
ATOM      9  C   UNL d   1      33.240  17.684 -24.242  0.00  0.00     0.023 C 
BRANCH   8  10
ATOM     10  N   UNL d   1      32.227  16.688 -24.145  0.00  0.00    -0.161 NA
BRANCH  10  11
ATOM     11  S   UNL d   1      32.791  16.088 -24.133  0.00  0.00     0.266 S 
ATOM     12  O   UNL d   1      32.481  15.890 -23.389  0.00  0.00    -0.203 OA
ATOM     13  O   UNL d   1      33.108  15.455 -23.706  0.00  0.00    -0.203 OA
ATOM     14  C   UNL d   1      33.143  16.232 -24.860  0.00  0.00     0.165 C 
ENDBRANCH  10  11
ENDBRANCH   8  10
ENDBRANCH   7   8
BRANCH   7  15
ATOM     15  C   UNL d   1      31.134  17.990 -24.280  0.00  0.00     0.047 A 
ATOM     16  S   UNL d   1      30.498  17.577 -23.947  0.00  0.00    -0.085 SA
ATOM     17  C   UNL d   1      29.851  17.661 -24.455  0.00  0.00     0.035 A 
ATOM     18  C   UNL d   1      30.073  18.117 -25.095  0.00  0.00     0.007 A 
ATOM     19  C   UNL d   1      30.872  18.325 -24.990  0.00  0.00     0.009 A 
ENDBRANCH   7  15
ENDBRANCH   1   7
BRANCH   2  20
ATOM     20  C   UNL d   1      32.664  20.664 -22.071  0.00  0.00     0.064 A 
ATOM     21  C   UNL d   1      32.742  20.576 -21.260  0.00  0.00     0.020 A 
ATOM     22  C   UNL d   1      32.934  21.231 -20.792  0.00  0.00     0.026 A 
ATOM     23  C   UNL d   1      33.047  21.973 -21.145  0.00  0.00     0.094 A 
ATOM     24  C   UNL d   1      32.965  22.045 -21.967  0.00  0.00     0.026 A 
ATOM     25  C   UNL d   1      32.773  21.389 -22.436  0.00  0.00     0.020 A 
BRANCH  23  26
ATOM     26  O   UNL d   1      33.240  22.635 -20.682  0.00  0.00    -0.328 OA
ATOM     27  C   UNL d   1      33.009  22.645 -19.892  0.00  0.00     0.181 C 
ENDBRANCH  23  26
ENDBRANCH   2  20
TORSDOF 7
ENDMDL
