MODEL 1
REMARK VINA RESULT:      -3.7      0.000      0.000
REMARK  4 active torsions:
REMARK  status: ('A' for Active; 'I' for Inactive)
REMARK    1  A    between atoms: N_2  and  S_1 
REMARK    2  A    between atoms: C_3  and  S_1 
REMARK    3  A    between atoms: O_15  and  C_11 
REMARK    4  A    between atoms: O_17  and  C_13 
ROOT
ATOM      1  C   UNL d   1      57.245   0.259  32.032  0.00  0.00     0.128 A 
ATOM      2  C   UNL d   1      57.172   0.099  31.222  0.00  0.00     0.039 A 
ATOM      3  C   UNL d   1      57.960   0.521  32.335  0.00  0.00     0.106 A 
ATOM      4  C   UNL d   1      58.606   0.625  31.828  0.00  0.00     0.027 A 
ATOM      5  C   UNL d   1      57.813   0.202  30.723  0.00  0.00     0.095 A 
ATOM      6  C   UNL d   1      58.533   0.466  31.026  0.00  0.00     0.026 A 
ENDROOT
BRANCH   1   7
ATOM      7  S   UNL d   1      56.601   0.157  32.541  0.00  0.00     0.274 S 
ATOM      8  O   UNL d   1      56.153   0.681  32.092  0.00  0.00    -0.199 OA
ATOM      9  O   UNL d   1      57.050  -0.370  32.992  0.00  0.00    -0.199 OA
BRANCH   7  10
ATOM     10  N   UNL d   1      55.970   0.050  33.048  0.00  0.00    -0.213 N 
ATOM     11  C   UNL d   1      55.609  -0.648  33.183  0.00  0.00     0.157 A 
ATOM     12  N   UNL d   1      54.989  -0.525  33.737  0.00  0.00    -0.224 NA
ATOM     13  C   UNL d   1      55.747  -1.406  32.881  0.00  0.00     0.041 C 
ATOM     14  C   UNL d   1      55.004   0.275  33.920  0.00  0.00     0.120 A 
ATOM     15  C   UNL d   1      55.628   0.635  33.480  0.00  0.00     0.114 A 
ENDBRANCH   7  10
ENDBRANCH   1   7
BRANCH   3  16
ATOM     16  O   UNL d   1      58.033   0.682  33.145  0.00  0.00    -0.327 OA
ATOM     17  C   UNL d   1      58.777   0.672  33.495  0.00  0.00     0.181 C 
ENDBRANCH   3  16
BRANCH   5  18
ATOM     18  O   UNL d   1      57.740   0.042  29.916  0.00  0.00    -0.328 OA
ATOM     19  C   UNL d   1      58.304   0.329  29.390  0.00  0.00     0.181 C 
ENDBRANCH   5  18
TORSDOF 4
ENDMDL
MODEL 2
REMARK VINA RESULT:      -3.1      8.569      9.467
REMARK  4 active torsions:
REMARK  status: ('A' for Active; 'I' for Inactive)
REMARK    1  A    between atoms: N_2  and  S_1 
REMARK    2  A    between atoms: C_3  and  S_1 
REMARK    3  A    between atoms: O_15  and  C_11 
REMARK    4  A    between atoms: O_17  and  C_13 
ROOT
ATOM      1  C   UNL d   1      59.894  -8.356  34.890  0.00  0.00     0.128 A 
ATOM      2  C   UNL d   1      59.382  -8.334  34.238  0.00  0.00     0.039 A 
ATOM      3  C   UNL d   1      60.195  -9.071  35.151  0.00  0.00     0.106 A 
ATOM      4  C   UNL d   1      59.986  -9.771  34.761  0.00  0.00     0.027 A 
ATOM      5  C   UNL d   1      59.177  -9.028  33.853  0.00  0.00     0.095 A 
ATOM      6  C   UNL d   1      59.480  -9.749  34.115  0.00  0.00     0.026 A 
ENDROOT
BRANCH   1   7
ATOM      7  S   UNL d   1      60.104  -7.658  35.282  0.00  0.00     0.274 S 
ATOM      8  O   UNL d   1      59.548  -7.811  35.869  0.00  0.00    -0.199 OA
ATOM      9  O   UNL d   1      60.663  -7.504  34.694  0.00  0.00    -0.199 OA
BRANCH   7  10
ATOM     10  N   UNL d   1      60.318  -6.968  35.662  0.00  0.00    -0.213 N 
ATOM     11  C   UNL d   1      59.806  -6.443  35.974  0.00  0.00     0.157 A 
ATOM     12  N   UNL d   1      60.244  -5.812  36.314  0.00  0.00    -0.224 NA
ATOM     13  C   UNL d   1      58.979  -6.435  36.007  0.00  0.00     0.041 C 
ATOM     14  C   UNL d   1      61.035  -5.990  36.186  0.00  0.00     0.120 A 
ATOM     15  C   UNL d   1      61.076  -6.725  35.773  0.00  0.00     0.114 A 
ENDBRANCH   7  10
ENDBRANCH   1   7
BRANCH   3  16
ATOM     16  O   UNL d   1      60.706  -9.093  35.804  0.00  0.00    -0.327 OA
ATOM     17  C   UNL d   1      60.982  -9.817  36.079  0.00  0.00     0.181 C 
ENDBRANCH   3  16
BRANCH   5  18
ATOM     18  O   UNL d   1      58.668  -9.006  33.203  0.00  0.00    -0.328 OA
ATOM     19  C   UNL d   1      58.599  -9.667  32.717  0.00  0.00     0.181 C 
ENDBRANCH   5  18
TORSDOF 4
ENDMDL
MODEL 3
REMARK VINA RESULT:      -3.0      3.172      4.855
REMARK  4 active torsions:
REMARK  status: ('A' for Active; 'I' for Inactive)
REMARK    1  A    between atoms: N_2  and  S_1 
REMARK    2  A    between atoms: C_3  and  S_1 
REMARK    3  A    between atoms: O_15  and  C_11 
REMARK    4  A    between atoms: O_17  and  C_13 
ROOT
ATOM      1  C   UNL d   1      59.080  -0.744  29.400  0.00  0.00     0.128 A 
ATOM      2  C   UNL d   1      58.413  -0.747  29.893  0.00  0.00     0.039 A 
ATOM      3  C   UNL d   1      59.394  -0.034  29.139  0.00  0.00     0.106 A 
ATOM      4  C   UNL d   1      59.042   0.679  29.370  0.00  0.00     0.027 A 
ATOM      5  C   UNL d   1      58.067  -0.039  30.120  0.00  0.00     0.095 A 
ATOM      6  C   UNL d   1      58.382   0.677  29.858  0.00  0.00     0.026 A 
ENDROOT
BRANCH   1   7
ATOM      7  S   UNL d   1      59.434  -1.455  29.168  0.00  0.00     0.274 S 
ATOM      8  O   UNL d   1      59.022  -1.436  28.456  0.00  0.00    -0.199 OA
ATOM      9  O   UNL d   1      59.847  -1.475  29.882  0.00  0.00    -0.199 OA
BRANCH   7  10
ATOM     10  N   UNL d   1      59.787  -2.157  28.947  0.00  0.00    -0.213 N 
ATOM     11  C   UNL d   1      59.398  -2.840  28.814  0.00  0.00     0.157 A 
ATOM     12  N   UNL d   1      59.958  -3.428  28.599  0.00  0.00    -0.224 NA
ATOM     13  C   UNL d   1      58.594  -3.031  28.853  0.00  0.00     0.041 C 
ATOM     14  C   UNL d   1      60.691  -3.060  28.613  0.00  0.00     0.120 A 
ATOM     15  C   UNL d   1      60.577  -2.254  28.835  0.00  0.00     0.114 A 
ENDBRANCH   7  10
ENDBRANCH   1   7
BRANCH   3  16
ATOM     16  O   UNL d   1      60.060  -0.031  28.646  0.00  0.00    -0.327 OA
ATOM     17  C   UNL d   1      60.431   0.681  28.468  0.00  0.00     0.181 C 
ENDBRANCH   3  16
BRANCH   5  18
ATOM     18  O   UNL d   1      57.403  -0.042  30.611  0.00  0.00    -0.328 OA
ATOM     19  C   UNL d   1      57.469   0.223  31.387  0.00  0.00     0.181 C 
ENDBRANCH   5  18
TORSDOF 4
ENDMDL
MODEL 4
REMARK VINA RESULT:      -2.8      1.216      2.014
REMARK  4 active torsions:
REMARK  status: ('A' for Active; 'I' for Inactive)
REMARK    1  A    between atoms: N_2  and  S_1 
REMARK    2  A    between atoms: C_3  and  S_1 
REMARK    3  A    between atoms: O_15  and  C_11 
REMARK    4  A    between atoms: O_17  and  C_13 
ROOT
ATOM      1  C   UNL d   1      56.280  -0.172  32.847  0.00  0.00     0.128 A 
ATOM      2  C   UNL d   1      56.644   0.379  32.347  0.00  0.00     0.039 A 
ATOM      3  C   UNL d   1      56.273  -0.966  32.646  0.00  0.00     0.106 A 
ATOM      4  C   UNL d   1      56.631  -1.214  31.942  0.00  0.00     0.027 A 
ATOM      5  C   UNL d   1      56.998   0.131  31.651  0.00  0.00     0.095 A 
ATOM      6  C   UNL d   1      56.992  -0.668  31.446  0.00  0.00     0.026 A 
ENDROOT
BRANCH   1   7
ATOM      7  S   UNL d   1      55.921   0.072  33.552  0.00  0.00     0.274 S 
ATOM      8  O   UNL d   1      55.222   0.235  33.148  0.00  0.00    -0.199 OA
ATOM      9  O   UNL d   1      56.622  -0.091  33.957  0.00  0.00    -0.199 OA
BRANCH   7  10
ATOM     10  N   UNL d   1      55.575   0.312  34.251  0.00  0.00    -0.213 N 
ATOM     11  C   UNL d   1      54.795   0.443  34.351  0.00  0.00     0.157 A 
ATOM     12  N   UNL d   1      54.664   0.680  35.146  0.00  0.00    -0.224 NA
ATOM     13  C   UNL d   1      54.157   0.383  33.829  0.00  0.00     0.041 C 
ATOM     14  C   UNL d   1      55.402   0.682  35.507  0.00  0.00     0.120 A 
ATOM     15  C   UNL d   1      55.976   0.447  34.935  0.00  0.00     0.114 A 
ENDBRANCH   7  10
ENDBRANCH   1   7
BRANCH   3  16
ATOM     16  O   UNL d   1      55.908  -1.518  33.146  0.00  0.00    -0.327 OA
ATOM     17  C   UNL d   1      55.894  -2.312  32.933  0.00  0.00     0.181 C 
ENDBRANCH   3  16
BRANCH   5  18
ATOM     18  O   UNL d   1      57.361   0.681  31.152  0.00  0.00    -0.328 OA
ATOM     19  C   UNL d   1      58.009   0.454  30.698  0.00  0.00     0.181 C 
ENDBRANCH   5  18
TORSDOF 4
ENDMDL
MODEL 5
REMARK VINA RESULT:      -2.7      1.864      3.490
REMARK  4 active torsions:
REMARK  status: ('A' for Active; 'I' for Inactive)
REMARK    1  A    between atoms: N_2  and  S_1 
REMARK    2  A    between atoms: C_3  and  S_1 
REMARK    3  A    between atoms: O_15  and  C_11 
REMARK    4  A    between atoms: O_17  and  C_13 
ROOT
ATOM      1  C   UNL d   1      57.606   0.009  31.226  0.00  0.00     0.128 A 
ATOM      2  C   UNL d   1      56.858  -0.275  31.443  0.00  0.00     0.039 A 
ATOM      3  C   UNL d   1      58.074   0.394  31.778  0.00  0.00     0.106 A 
ATOM      4  C   UNL d   1      57.795   0.497  32.551  0.00  0.00     0.027 A 
ATOM      5  C   UNL d   1      56.585  -0.172  32.209  0.00  0.00     0.095 A 
ATOM      6  C   UNL d   1      57.054   0.216  32.765  0.00  0.00     0.026 A 
ENDROOT
BRANCH   1   7
ATOM      7  S   UNL d   1      57.887  -0.093  30.455  0.00  0.00     0.274 S 
ATOM      8  O   UNL d   1      57.486   0.583  30.211  0.00  0.00    -0.199 OA
ATOM      9  O   UNL d   1      58.289  -0.772  30.698  0.00  0.00    -0.199 OA
BRANCH   7  10
ATOM     10  N   UNL d   1      58.168  -0.202  29.696  0.00  0.00    -0.213 N 
ATOM     11  C   UNL d   1      58.334  -0.910  29.370  0.00  0.00     0.157 A 
ATOM     12  N   UNL d   1      58.609  -0.785  28.586  0.00  0.00    -0.224 NA
ATOM     13  C   UNL d   1      58.279  -1.679  29.669  0.00  0.00     0.041 C 
ATOM     14  C   UNL d   1      58.596   0.027  28.468  0.00  0.00     0.120 A 
ATOM     15  C   UNL d   1      58.316   0.392  29.176  0.00  0.00     0.114 A 
ENDBRANCH   7  10
ENDBRANCH   1   7
BRANCH   3  16
ATOM     16  O   UNL d   1      58.822   0.678  31.561  0.00  0.00    -0.327 OA
ATOM     17  C   UNL d   1      59.430   0.682  32.114  0.00  0.00     0.181 C 
ENDBRANCH   3  16
BRANCH   5  18
ATOM     18  O   UNL d   1      55.839  -0.455  32.425  0.00  0.00    -0.328 OA
ATOM     19  C   UNL d   1      55.642  -0.519  33.222  0.00  0.00     0.181 C 
ENDBRANCH   5  18
TORSDOF 4
ENDMDL
MODEL 6
REMARK VINA RESULT:      -2.5      3.125      4.430
REMARK  4 active torsions:
REMARK  status: ('A' for Active; 'I' for Inactive)
REMARK    1  A    between atoms: N_2  and  S_1 
REMARK    2  A    between atoms: C_3  and  S_1 
REMARK    3  A    between atoms: O_15  and  C_11 
REMARK    4  A    between atoms: O_17  and  C_13 
ROOT
ATOM      1  C   UNL d   1      59.754  -1.122  29.024  0.00  0.00     0.128 A 
ATOM      2  C   UNL d   1      59.721  -1.950  28.997  0.00  0.00     0.039 A 
ATOM      3  C   UNL d   1      60.427  -0.730  28.768  0.00  0.00     0.106 A 
ATOM      4  C   UNL d   1      61.071  -1.165  28.483  0.00  0.00     0.027 A 
ATOM      5  C   UNL d   1      60.360  -2.378  28.714  0.00  0.00     0.095 A 
ATOM      6  C   UNL d   1      61.038  -1.985  28.456  0.00  0.00     0.026 A 
ENDROOT
BRANCH   1   7
ATOM      7  S   UNL d   1      59.112  -0.685  29.308  0.00  0.00     0.274 S 
ATOM      8  O   UNL d   1      59.535  -0.488  29.986  0.00  0.00    -0.199 OA
ATOM      9  O   UNL d   1      58.687  -0.881  28.628  0.00  0.00    -0.199 OA
BRANCH   7  10
ATOM     10  N   UNL d   1      58.473  -0.256  29.580  0.00  0.00    -0.213 N 
ATOM     11  C   UNL d   1      58.012  -0.468  30.195  0.00  0.00     0.157 A 
ATOM     12  N   UNL d   1      57.419   0.118  30.298  0.00  0.00    -0.224 NA
ATOM     13  C   UNL d   1      58.035  -1.123  30.698  0.00  0.00     0.041 C 
ATOM     14  C   UNL d   1      57.553   0.682  29.717  0.00  0.00     0.120 A 
ATOM     15  C   UNL d   1      58.223   0.440  29.264  0.00  0.00     0.114 A 
ENDBRANCH   7  10
ENDBRANCH   1   7
BRANCH   3  16
ATOM     16  O   UNL d   1      60.460   0.098  28.795  0.00  0.00    -0.327 OA
ATOM     17  C   UNL d   1      61.131   0.487  28.520  0.00  0.00     0.181 C 
ENDBRANCH   3  16
BRANCH   5  18
ATOM     18  O   UNL d   1      60.327  -3.203  28.687  0.00  0.00    -0.328 OA
ATOM     19  C   UNL d   1      60.775  -3.646  29.217  0.00  0.00     0.181 C 
ENDBRANCH   5  18
TORSDOF 4
ENDMDL
MODEL 7
REMARK VINA RESULT:      -2.1      3.452      4.866
REMARK  4 active torsions:
REMARK  status: ('A' for Active; 'I' for Inactive)
REMARK    1  A    between atoms: N_2  and  S_1 
REMARK    2  A    between atoms: C_3  and  S_1 
REMARK    3  A    between atoms: O_15  and  C_11 
REMARK    4  A    between atoms: O_17  and  C_13 
ROOT
ATOM      1  C   UNL d   1      59.206  -1.106  29.130  0.00  0.00     0.128 A 
ATOM      2  C   UNL d   1      59.737  -0.616  28.723  0.00  0.00     0.039 A 
ATOM      3  C   UNL d   1      58.683  -0.783  29.671  0.00  0.00     0.106 A 
ATOM      4  C   UNL d   1      58.687   0.034  29.809  0.00  0.00     0.027 A 
ATOM      5  C   UNL d   1      59.739   0.192  28.861  0.00  0.00     0.095 A 
ATOM      6  C   UNL d   1      59.213   0.519  29.406  0.00  0.00     0.026 A 
ENDROOT
BRANCH   1   7
ATOM      7  S   UNL d   1      59.200  -1.922  28.995  0.00  0.00     0.274 S 
ATOM      8  O   UNL d   1      59.824  -2.022  29.521  0.00  0.00    -0.199 OA
ATOM      9  O   UNL d   1      58.573  -1.822  28.466  0.00  0.00    -0.199 OA
BRANCH   7  10
ATOM     10  N   UNL d   1      59.186  -2.726  28.855  0.00  0.00    -0.213 N 
ATOM     11  C   UNL d   1      59.759  -3.235  29.074  0.00  0.00     0.157 A 
ATOM     12  N   UNL d   1      59.537  -4.008  28.829  0.00  0.00    -0.224 NA
ATOM     13  C   UNL d   1      60.474  -3.119  29.472  0.00  0.00     0.041 C 
ATOM     14  C   UNL d   1      58.809  -3.928  28.457  0.00  0.00     0.120 A 
ATOM     15  C   UNL d   1      58.592  -3.113  28.476  0.00  0.00     0.114 A 
ENDBRANCH   7  10
ENDBRANCH   1   7
BRANCH   3  16
ATOM     16  O   UNL d   1      58.152  -1.273  30.078  0.00  0.00    -0.327 OA
ATOM     17  C   UNL d   1      57.676  -0.954  30.667  0.00  0.00     0.181 C 
ENDBRANCH   3  16
BRANCH   5  18
ATOM     18  O   UNL d   1      60.268   0.680  28.456  0.00  0.00    -0.328 OA
ATOM     19  C   UNL d   1      61.077   0.602  28.586  0.00  0.00     0.181 C 
ENDBRANCH   5  18
TORSDOF 4
ENDMDL
