MODEL 1
REMARK VINA RESULT:      -9.9      0.000      0.000
REMARK  2 active torsions:
REMARK  status: ('A' for Active; 'I' for Inactive)
REMARK    1  A    between atoms: C_9  and  C_4 
REMARK    2  A    between atoms: C_13  and  C_6 
ROOT
ATOM      1  N   UNL d   1      52.723  32.940  53.257  0.00  0.00    -0.185 N 
ATOM      2  C   UNL d   1      53.498  32.979  53.543  0.00  0.00     0.219 A 
ATOM      3  N   UNL d   1      52.510  32.153  53.212  0.00  0.00    -0.153 NA
ATOM      4  C   UNL d   1      53.142  31.698  53.467  0.00  0.00     0.156 A 
ATOM      5  S   UNL d   1      53.754  32.207  53.672  0.00  0.00    -0.024 SA
ATOM      6  C   UNL d   1      52.462  33.711  53.126  0.00  0.00     0.187 A 
ATOM      7  N   UNL d   1      53.075  34.229  53.332  0.00  0.00    -0.127 NA
ATOM      8  N   UNL d   1      53.713  33.771  53.589  0.00  0.00    -0.120 NA
ENDROOT
BRANCH   6   9
ATOM      9  C   UNL d   1      51.725  33.935  52.842  0.00  0.00     0.038 A 
ATOM     10  C   UNL d   1      51.085  34.008  53.358  0.00  0.00     0.004 A 
ATOM     11  C   UNL d   1      50.348  34.232  53.073  0.00  0.00     0.011 A 
ATOM     12  C   UNL d   1      50.251  34.383  52.268  0.00  0.00     0.058 A 
ATOM     13  C   UNL d   1      50.894  34.309  51.749  0.00  0.00     0.011 A 
ATOM     14 CL   UNL d   1      49.510  34.608  51.976  0.00  0.00    -0.082 Cl
ATOM     15  C   UNL d   1      51.624  34.085  52.045  0.00  0.00     0.004 A 
ENDBRANCH   6   9
BRANCH   4  16
ATOM     16  C   UNL d   1      53.168  30.873  53.512  0.00  0.00     0.126 A 
ATOM     17  O   UNL d   1      53.325  30.436  54.195  0.00  0.00    -0.298 OA
ATOM     18  C   UNL d   1      53.296  29.638  53.992  0.00  0.00     0.134 A 
ATOM     19 BR   UNL d   1      53.419  29.002  54.498  0.00  0.00    -0.022 Br
ATOM     20  C   UNL d   1      53.120  29.579  53.183  0.00  0.00     0.034 A 
ATOM     21  C   UNL d   1      53.041  30.345  52.888  0.00  0.00     0.029 A 
ENDBRANCH   4  16
TORSDOF 2
ENDMDL
MODEL 2
REMARK VINA RESULT:      -9.3      2.738      4.225
REMARK  2 active torsions:
REMARK  status: ('A' for Active; 'I' for Inactive)
REMARK    1  A    between atoms: C_9  and  C_4 
REMARK    2  A    between atoms: C_13  and  C_6 
ROOT
ATOM      1  N   UNL d   1      52.866  32.661  53.450  0.00  0.00    -0.185 N 
ATOM      2  C   UNL d   1      52.488  32.043  53.051  0.00  0.00     0.219 A 
ATOM      3  N   UNL d   1      52.416  33.336  53.353  0.00  0.00    -0.153 NA
ATOM      4  C   UNL d   1      51.761  33.148  52.896  0.00  0.00     0.156 A 
ATOM      5  S   UNL d   1      51.804  32.349  52.708  0.00  0.00    -0.024 SA
ATOM      6  C   UNL d   1      53.551  32.359  53.794  0.00  0.00     0.187 A 
ATOM      7  N   UNL d   1      53.599  31.554  53.608  0.00  0.00    -0.127 NA
ATOM      8  N   UNL d   1      52.940  31.363  53.148  0.00  0.00    -0.120 NA
ENDROOT
BRANCH   6   9
ATOM      9  C   UNL d   1      54.095  32.778  54.244  0.00  0.00     0.038 A 
ATOM     10  C   UNL d   1      54.002  32.837  55.061  0.00  0.00     0.004 A 
ATOM     11  C   UNL d   1      54.548  33.256  55.511  0.00  0.00     0.011 A 
ATOM     12  C   UNL d   1      55.189  33.618  55.139  0.00  0.00     0.058 A 
ATOM     13  C   UNL d   1      55.283  33.559  54.317  0.00  0.00     0.011 A 
ATOM     14 CL   UNL d   1      55.741  34.041  55.588  0.00  0.00    -0.082 Cl
ATOM     15  C   UNL d   1      54.733  33.138  53.881  0.00  0.00     0.004 A 
ENDBRANCH   6   9
BRANCH   4  16
ATOM     16  C   UNL d   1      51.160  33.665  52.662  0.00  0.00     0.126 A 
ATOM     17  O   UNL d   1      50.554  33.945  53.148  0.00  0.00    -0.298 OA
ATOM     18  C   UNL d   1      50.081  34.443  52.694  0.00  0.00     0.134 A 
ATOM     19 BR   UNL d   1      49.412  34.846  52.949  0.00  0.00    -0.022 Br
ATOM     20  C   UNL d   1      50.392  34.472  51.925  0.00  0.00     0.034 A 
ATOM     21  C   UNL d   1      51.061  33.990  51.908  0.00  0.00     0.029 A 
ENDBRANCH   4  16
TORSDOF 2
ENDMDL
MODEL 3
REMARK VINA RESULT:      -8.8      2.508      4.220
REMARK  2 active torsions:
REMARK  status: ('A' for Active; 'I' for Inactive)
REMARK    1  A    between atoms: C_9  and  C_4 
REMARK    2  A    between atoms: C_13  and  C_6 
ROOT
ATOM      1  N   UNL d   1      53.050  32.624  53.391  0.00  0.00    -0.185 N 
ATOM      2  C   UNL d   1      53.422  33.362  53.408  0.00  0.00     0.219 A 
ATOM      3  N   UNL d   1      52.280  32.737  53.142  0.00  0.00    -0.153 NA
ATOM      4  C   UNL d   1      52.166  33.536  53.003  0.00  0.00     0.156 A 
ATOM      5  S   UNL d   1      52.872  33.925  53.167  0.00  0.00    -0.024 SA
ATOM      6  C   UNL d   1      53.598  32.058  53.632  0.00  0.00     0.187 A 
ATOM      7  N   UNL d   1      54.311  32.444  53.799  0.00  0.00    -0.127 NA
ATOM      8  N   UNL d   1      54.198  33.251  53.660  0.00  0.00    -0.120 NA
ENDROOT
BRANCH   6   9
ATOM      9  C   UNL d   1      53.467  31.250  53.698  0.00  0.00     0.038 A 
ATOM     10  C   UNL d   1      53.399  30.783  53.022  0.00  0.00     0.004 A 
ATOM     11  C   UNL d   1      53.268  29.975  53.088  0.00  0.00     0.011 A 
ATOM     12  C   UNL d   1      53.204  29.633  53.836  0.00  0.00     0.058 A 
ATOM     13  C   UNL d   1      53.272  30.102  54.517  0.00  0.00     0.011 A 
ATOM     14 CL   UNL d   1      53.072  28.819  53.909  0.00  0.00    -0.082 Cl
ATOM     15  C   UNL d   1      53.403  30.906  54.437  0.00  0.00     0.004 A 
ENDBRANCH   6   9
BRANCH   4  16
ATOM     16  C   UNL d   1      51.469  33.896  52.743  0.00  0.00     0.126 A 
ATOM     17  O   UNL d   1      50.850  34.146  53.229  0.00  0.00    -0.298 OA
ATOM     18  C   UNL d   1      50.269  34.471  52.744  0.00  0.00     0.134 A 
ATOM     19 BR   UNL d   1      49.553  34.791  52.989  0.00  0.00    -0.022 Br
ATOM     20  C   UNL d   1      50.526  34.423  51.957  0.00  0.00     0.034 A 
ATOM     21  C   UNL d   1      51.270  34.067  51.958  0.00  0.00     0.029 A 
ENDBRANCH   4  16
TORSDOF 2
ENDMDL
MODEL 4
REMARK VINA RESULT:      -8.0      3.013      4.509
REMARK  2 active torsions:
REMARK  status: ('A' for Active; 'I' for Inactive)
REMARK    1  A    between atoms: C_9  and  C_4 
REMARK    2  A    between atoms: C_13  and  C_6 
ROOT
ATOM      1  N   UNL d   1      53.042  31.628  53.442  0.00  0.00    -0.185 N 
ATOM      2  C   UNL d   1      52.807  32.089  52.797  0.00  0.00     0.219 A 
ATOM      3  N   UNL d   1      53.267  32.133  54.043  0.00  0.00    -0.153 NA
ATOM      4  C   UNL d   1      53.177  32.905  53.782  0.00  0.00     0.156 A 
ATOM      5  S   UNL d   1      52.892  32.880  53.012  0.00  0.00    -0.024 SA
ATOM      6  C   UNL d   1      52.958  30.836  53.231  0.00  0.00     0.187 A 
ATOM      7  N   UNL d   1      52.671  30.805  52.455  0.00  0.00    -0.127 NA
ATOM      8  N   UNL d   1      52.580  31.582  52.191  0.00  0.00    -0.120 NA
ENDROOT
BRANCH   6   9
ATOM      9  C   UNL d   1      53.127  30.186  53.703  0.00  0.00     0.038 A 
ATOM     10  C   UNL d   1      52.563  29.898  54.232  0.00  0.00     0.004 A 
ATOM     11  C   UNL d   1      52.733  29.247  54.704  0.00  0.00     0.011 A 
ATOM     12  C   UNL d   1      53.471  28.883  54.646  0.00  0.00     0.058 A 
ATOM     13  C   UNL d   1      54.039  29.173  54.114  0.00  0.00     0.011 A 
ATOM     14 CL   UNL d   1      53.647  28.228  55.120  0.00  0.00    -0.082 Cl
ATOM     15  C   UNL d   1      53.857  29.822  53.650  0.00  0.00     0.004 A 
ENDBRANCH   6   9
BRANCH   4  16
ATOM     16  C   UNL d   1      53.340  33.592  54.212  0.00  0.00     0.126 A 
ATOM     17  O   UNL d   1      52.949  34.314  54.127  0.00  0.00    -0.298 OA
ATOM     18  C   UNL d   1      53.287  34.844  54.660  0.00  0.00     0.134 A 
ATOM     19 BR   UNL d   1      53.072  35.630  54.767  0.00  0.00    -0.022 Br
ATOM     20  C   UNL d   1      53.887  34.451  55.076  0.00  0.00     0.034 A 
ATOM     21  C   UNL d   1      53.919  33.676  54.798  0.00  0.00     0.029 A 
ENDBRANCH   4  16
TORSDOF 2
ENDMDL
MODEL 5
REMARK VINA RESULT:      -7.9      1.870      2.577
REMARK  2 active torsions:
REMARK  status: ('A' for Active; 'I' for Inactive)
REMARK    1  A    between atoms: C_9  and  C_4 
REMARK    2  A    between atoms: C_13  and  C_6 
ROOT
ATOM      1  N   UNL d   1      52.614  32.828  53.280  0.00  0.00    -0.185 N 
ATOM      2  C   UNL d   1      53.078  32.154  53.159  0.00  0.00     0.219 A 
ATOM      3  N   UNL d   1      52.987  33.292  53.839  0.00  0.00    -0.153 NA
ATOM      4  C   UNL d   1      53.679  32.917  54.070  0.00  0.00     0.156 A 
ATOM      5  S   UNL d   1      53.737  32.213  53.650  0.00  0.00    -0.024 SA
ATOM      6  C   UNL d   1      51.954  32.772  52.791  0.00  0.00     0.187 A 
ATOM      7  N   UNL d   1      52.007  32.064  52.365  0.00  0.00    -0.127 NA
ATOM      8  N   UNL d   1      52.704  31.685  52.596  0.00  0.00    -0.120 NA
ENDROOT
BRANCH   6   9
ATOM      9  C   UNL d   1      51.345  33.320  52.730  0.00  0.00     0.038 A 
ATOM     10  C   UNL d   1      50.736  33.329  53.286  0.00  0.00     0.004 A 
ATOM     11  C   UNL d   1      50.127  33.877  53.225  0.00  0.00     0.011 A 
ATOM     12  C   UNL d   1      50.129  34.420  52.603  0.00  0.00     0.058 A 
ATOM     13  C   UNL d   1      50.742  34.411  52.044  0.00  0.00     0.011 A 
ATOM     14 CL   UNL d   1      49.518  34.974  52.537  0.00  0.00    -0.082 Cl
ATOM     15  C   UNL d   1      51.342  33.860  52.116  0.00  0.00     0.004 A 
ENDBRANCH   6   9
BRANCH   4  16
ATOM     16  C   UNL d   1      54.226  33.192  54.625  0.00  0.00     0.126 A 
ATOM     17  O   UNL d   1      54.866  33.686  54.460  0.00  0.00    -0.298 OA
ATOM     18  C   UNL d   1      55.264  33.822  55.169  0.00  0.00     0.134 A 
ATOM     19 BR   UNL d   1      55.937  34.283  55.270  0.00  0.00    -0.022 Br
ATOM     20  C   UNL d   1      54.871  33.412  55.774  0.00  0.00     0.034 A 
ATOM     21  C   UNL d   1      54.228  33.022  55.435  0.00  0.00     0.029 A 
ENDBRANCH   4  16
TORSDOF 2
ENDMDL
MODEL 6
REMARK VINA RESULT:      -7.8      2.342      2.955
REMARK  2 active torsions:
REMARK  status: ('A' for Active; 'I' for Inactive)
REMARK    1  A    between atoms: C_9  and  C_4 
REMARK    2  A    between atoms: C_13  and  C_6 
ROOT
ATOM      1  N   UNL d   1      53.356  32.097  53.565  0.00  0.00    -0.185 N 
ATOM      2  C   UNL d   1      52.796  31.970  52.970  0.00  0.00     0.219 A 
ATOM      3  N   UNL d   1      53.519  31.377  53.915  0.00  0.00    -0.153 NA
ATOM      4  C   UNL d   1      53.067  30.801  53.546  0.00  0.00     0.156 A 
ATOM      5  S   UNL d   1      52.619  31.165  52.961  0.00  0.00    -0.024 SA
ATOM      6  C   UNL d   1      53.536  32.901  53.577  0.00  0.00     0.187 A 
ATOM      7  N   UNL d   1      53.087  33.274  52.989  0.00  0.00    -0.127 NA
ATOM      8  N   UNL d   1      52.631  32.694  52.617  0.00  0.00    -0.120 NA
ENDROOT
BRANCH   6   9
ATOM      9  C   UNL d   1      54.066  33.274  54.080  0.00  0.00     0.038 A 
ATOM     10  C   UNL d   1      53.796  33.657  54.759  0.00  0.00     0.004 A 
ATOM     11  C   UNL d   1      54.327  34.031  55.263  0.00  0.00     0.011 A 
ATOM     12  C   UNL d   1      55.133  34.020  55.085  0.00  0.00     0.058 A 
ATOM     13  C   UNL d   1      55.404  33.635  54.402  0.00  0.00     0.011 A 
ATOM     14 CL   UNL d   1      55.672  34.395  55.589  0.00  0.00    -0.082 Cl
ATOM     15  C   UNL d   1      54.866  33.267  53.909  0.00  0.00     0.004 A 
ENDBRANCH   6   9
BRANCH   4  16
ATOM     16  C   UNL d   1      53.058  29.994  53.725  0.00  0.00     0.126 A 
ATOM     17  O   UNL d   1      53.348  29.655  54.420  0.00  0.00    -0.298 OA
ATOM     18  C   UNL d   1      53.228  28.841  54.368  0.00  0.00     0.134 A 
ATOM     19 BR   UNL d   1      53.432  28.282  54.935  0.00  0.00    -0.022 Br
ATOM     20  C   UNL d   1      52.865  28.674  53.641  0.00  0.00     0.034 A 
ATOM     21  C   UNL d   1      52.760  29.389  53.244  0.00  0.00     0.029 A 
ENDBRANCH   4  16
TORSDOF 2
ENDMDL
