MODEL 1
REMARK VINA RESULT:      47.1      0.000      0.000
REMARK  3 active torsions:
REMARK  status: ('A' for Active; 'I' for Inactive)
REMARK    1  A    between atoms: S_2  and  N_1 
REMARK    2  A    between atoms: C_7  and  S_2 
REMARK    3  A    between atoms: C_14  and  C_6 
ROOT
ATOM      1  S   UNL d   1     -57.636 -98.961 -44.518  0.00  0.00     0.273 S 
ATOM      2  O   UNL d   1     -57.267 -98.913 -45.202  0.00  0.00    -0.200 OA
ATOM      3  O   UNL d   1     -57.805 -99.023 -43.803  0.00  0.00    -0.200 OA
ENDROOT
BRANCH   1   4
ATOM      4  N   UNL d   1     -56.982 -99.027 -44.166  0.00  0.00    -0.202 N 
ATOM      5  C   UNL d   1     -56.870 -98.934 -43.425  0.00  0.00     0.218 A 
ATOM      6  N   UNL d   1     -56.134 -99.047 -43.286  0.00  0.00    -0.178 NA
ATOM      7  S   UNL d   1     -57.478 -98.759 -43.011  0.00  0.00    -0.037 SA
ATOM      8  C   UNL d   1     -55.804 -99.208 -43.940  0.00  0.00     0.298 A 
ATOM      9  C   UNL d   1     -56.323 -99.196 -44.482  0.00  0.00     0.135 A 
ATOM     10  O   UNL d   1     -55.069 -99.352 -44.001  0.00  0.00    -0.264 OA
BRANCH   9  11
ATOM     11  C   UNL d   1     -56.212 -99.329 -45.212  0.00  0.00     0.022 C 
ATOM     12  C   UNL d   1     -56.074 -98.755 -45.675  0.00  0.00     0.002 C 
ATOM     13  C   UNL d   1     -56.240-100.030 -45.478  0.00  0.00     0.002 C 
ENDBRANCH   9  11
ENDBRANCH   1   4
BRANCH   1  14
ATOM     14  C   UNL d   1     -58.393 -98.894 -44.841  0.00  0.00     0.104 A 
ATOM     15  C   UNL d   1     -59.059 -98.853 -44.350  0.00  0.00     0.012 A 
ATOM     16  C   UNL d   1     -59.816 -98.785 -44.674  0.00  0.00     0.001 A 
ATOM     17  C   UNL d   1     -58.944 -98.883 -43.517  0.00  0.00     0.001 C 
ATOM     18  C   UNL d   1     -59.915 -98.757 -45.491  0.00  0.00     0.000 A 
ATOM     19  C   UNL d   1     -59.255 -98.797 -45.990  0.00  0.00     0.001 A 
ATOM     20  C   UNL d   1     -58.490 -98.865 -45.663  0.00  0.00     0.013 A 
ATOM     21  C   UNL d   1     -59.354 -98.768 -46.816  0.00  0.00     0.000 C 
ENDBRANCH   1  14
TORSDOF 3
ENDMDL
