MODEL 1
REMARK VINA RESULT:      25.4      0.000      0.000
REMARK  4 active torsions:
REMARK  status: ('A' for Active; 'I' for Inactive)
REMARK    1  A    between atoms: C_3  and  C_1 
REMARK    2  A    between atoms: C_2  and  C_3 
REMARK    3  A    between atoms: C_6  and  C_2 
REMARK    4  A    between atoms: C_16  and  C_6 
ROOT
ATOM      1  C   UNL d   1      60.461  49.519  50.835  0.00  0.00     0.119 A 
ATOM      2  C   UNL d   1      60.852  49.520  51.556  0.00  0.00     0.119 A 
ATOM      3  O   UNL d   1      61.026  49.463  50.238  0.00  0.00    -0.300 OA
ATOM      4  O   UNL d   1      61.661  49.466  51.407  0.00  0.00    -0.300 OA
ATOM      5  C   UNL d   1      61.767  49.431  50.601  0.00  0.00     0.304 A 
ATOM      6  C   UNL d   1      59.646  49.568  50.812  0.00  0.00     0.026 A 
ATOM      7  C   UNL d   1      59.212  49.619  51.516  0.00  0.00     0.002 A 
ATOM      8  C   UNL d   1      60.427  49.571  52.252  0.00  0.00     0.026 A 
ATOM      9  C   UNL d   1      59.599  49.620  52.230  0.00  0.00     0.002 A 
ENDROOT
BRANCH   7  10
ATOM     10  C   UNL d   1      58.384  49.669  51.507  0.00  0.00     0.003 C 
BRANCH  10  11
ATOM     11  C   UNL d   1      57.980  49.704  50.784  0.00  0.00     0.044 C 
BRANCH  11  12
ATOM     12  C   UNL d   1      57.182  49.483  50.745  0.00  0.00     0.213 C 
ATOM     13  O   UNL d   1      56.716  49.510  51.415  0.00  0.00    -0.285 OA
BRANCH  12  14
ATOM     14  C   UNL d   1      56.853  49.233  50.025  0.00  0.00     0.120 A 
ATOM     15  N   UNL d   1      57.294  48.776  49.506  0.00  0.00    -0.241 NA
ATOM     16  C   UNL d   1      56.824  48.614  48.843  0.00  0.00     0.099 A 
ATOM     17  C   UNL d   1      56.094  48.977  48.964  0.00  0.00     0.022 A 
ATOM     18  C   UNL d   1      56.107  49.355  49.683  0.00  0.00     0.024 A 
ENDBRANCH  12  14
ENDBRANCH  11  12
ENDBRANCH  10  11
ENDBRANCH   7  10
TORSDOF 4
ENDMDL
