MODEL 1
REMARK VINA RESULT:      -9.2      0.000      0.000
REMARK  4 active torsions:
REMARK  status: ('A' for Active; 'I' for Inactive)
REMARK    1  A    between atoms: C_7  and  C_1 
REMARK    2  A    between atoms: C_9  and  C_3 
REMARK    3  A    between atoms: O_13  and  C_7 
REMARK    4  A    between atoms: C_18  and  O_13 
ROOT
ATOM      1  C   UNL d   1      52.943  32.346  53.551  0.00  0.00     0.099 A 
ATOM      2  C   UNL d   1      52.472  31.825  53.145  0.00  0.00     0.093 A 
ATOM      3  C   UNL d   1      53.676  32.083  53.877  0.00  0.00     0.093 A 
ATOM      4  C   UNL d   1      53.430  30.782  53.373  0.00  0.00     0.369 A 
ATOM      5  N   UNL d   1      52.717  31.023  53.052  0.00  0.00    -0.191 NA
ATOM      6  N   UNL d   1      53.913  31.316  53.789  0.00  0.00    -0.191 NA
ATOM      7  O   UNL d   1      53.656  29.981  53.270  0.00  0.00    -0.242 OA
ATOM      8  C   UNL d   1      51.757  32.070  52.824  0.00  0.00     0.021 C 
ENDROOT
BRANCH   3   9
ATOM      9  C   UNL d   1      54.162  32.620  54.295  0.00  0.00     0.018 A 
ATOM     10  C   UNL d   1      54.791  33.009  53.894  0.00  0.00     0.002 A 
ATOM     11  C   UNL d   1      55.268  33.537  54.304  0.00  0.00     0.000 A 
ATOM     12  C   UNL d   1      55.119  33.679  55.118  0.00  0.00     0.000 A 
ATOM     13  C   UNL d   1      54.507  33.297  55.496  0.00  0.00     0.000 A 
ATOM     14  C   UNL d   1      54.024  32.763  55.080  0.00  0.00     0.002 A 
ENDBRANCH   3   9
BRANCH   1  15
ATOM     15  C   UNL d   1      52.703  33.143  53.645  0.00  0.00     0.303 C 
ATOM     16  O   UNL d   1      52.388  33.408  54.359  0.00  0.00    -0.259 OA
BRANCH  15  17
ATOM     17  O   UNL d   1      52.786  33.652  53.020  0.00  0.00    -0.271 OA
BRANCH  17  18
ATOM     18  C   UNL d   1      52.304  34.321  52.969  0.00  0.00     0.126 C 
ATOM     19  C   UNL d   1      52.437  34.878  52.398  0.00  0.00     0.029 C 
ENDBRANCH  17  18
ENDBRANCH  15  17
ENDBRANCH   1  15
TORSDOF 4
ENDMDL
MODEL 2
REMARK VINA RESULT:      -9.2      1.526      3.485
REMARK  4 active torsions:
REMARK  status: ('A' for Active; 'I' for Inactive)
REMARK    1  A    between atoms: C_7  and  C_1 
REMARK    2  A    between atoms: C_9  and  C_3 
REMARK    3  A    between atoms: O_13  and  C_7 
REMARK    4  A    between atoms: C_18  and  O_13 
ROOT
ATOM      1  C   UNL d   1      53.165  33.190  53.772  0.00  0.00     0.099 A 
ATOM      2  C   UNL d   1      53.805  33.133  54.267  0.00  0.00     0.093 A 
ATOM      3  C   UNL d   1      52.635  33.842  53.845  0.00  0.00     0.093 A 
ATOM      4  C   UNL d   1      53.415  34.353  54.912  0.00  0.00     0.369 A 
ATOM      5  N   UNL d   1      53.936  33.726  54.852  0.00  0.00    -0.191 NA
ATOM      6  N   UNL d   1      52.758  34.411  54.404  0.00  0.00    -0.191 NA
ATOM      7  O   UNL d   1      53.562  34.932  55.499  0.00  0.00    -0.242 OA
ATOM      8  C   UNL d   1      54.329  32.503  54.204  0.00  0.00     0.021 C 
ENDROOT
BRANCH   3   9
ATOM      9  C   UNL d   1      51.975  33.900  53.334  0.00  0.00     0.018 A 
ATOM     10  C   UNL d   1      51.228  33.606  53.586  0.00  0.00     0.002 A 
ATOM     11  C   UNL d   1      50.580  33.663  53.085  0.00  0.00     0.000 A 
ATOM     12  C   UNL d   1      50.675  34.016  52.328  0.00  0.00     0.000 A 
ATOM     13  C   UNL d   1      51.402  34.297  52.096  0.00  0.00     0.000 A 
ATOM     14  C   UNL d   1      52.058  34.239  52.603  0.00  0.00     0.002 A 
ENDBRANCH   3   9
BRANCH   1  15
ATOM     15  C   UNL d   1      53.032  32.603  53.189  0.00  0.00     0.303 C 
ATOM     16  O   UNL d   1      53.208  32.744  52.397  0.00  0.00    -0.259 OA
BRANCH  15  17
ATOM     17  O   UNL d   1      52.724  31.888  53.419  0.00  0.00    -0.271 OA
BRANCH  17  18
ATOM     18  C   UNL d   1      52.865  31.215  52.961  0.00  0.00     0.126 C 
ATOM     19  C   UNL d   1      52.511  30.512  53.149  0.00  0.00     0.029 C 
ENDBRANCH  17  18
ENDBRANCH  15  17
ENDBRANCH   1  15
TORSDOF 4
ENDMDL
MODEL 3
REMARK VINA RESULT:      -8.6      1.194      2.814
REMARK  4 active torsions:
REMARK  status: ('A' for Active; 'I' for Inactive)
REMARK    1  A    between atoms: C_7  and  C_1 
REMARK    2  A    between atoms: C_9  and  C_3 
REMARK    3  A    between atoms: O_13  and  C_7 
REMARK    4  A    between atoms: C_18  and  O_13 
ROOT
ATOM      1  C   UNL d   1      53.114  32.917  53.417  0.00  0.00     0.099 A 
ATOM      2  C   UNL d   1      53.700  32.378  53.571  0.00  0.00     0.093 A 
ATOM      3  C   UNL d   1      52.403  32.667  53.038  0.00  0.00     0.093 A 
ATOM      4  C   UNL d   1      52.902  31.342  52.984  0.00  0.00     0.369 A 
ATOM      5  N   UNL d   1      53.595  31.571  53.350  0.00  0.00    -0.191 NA
ATOM      6  N   UNL d   1      52.300  31.895  52.826  0.00  0.00    -0.191 NA
ATOM      7  O   UNL d   1      52.816  30.536  52.772  0.00  0.00    -0.242 OA
ATOM      8  C   UNL d   1      54.397  32.611  53.940  0.00  0.00     0.021 C 
ENDROOT
BRANCH   3   9
ATOM      9  C   UNL d   1      51.798  33.223  52.880  0.00  0.00     0.018 A 
ATOM     10  C   UNL d   1      51.131  33.267  53.390  0.00  0.00     0.002 A 
ATOM     11  C   UNL d   1      50.537  33.813  53.235  0.00  0.00     0.000 A 
ATOM     12  C   UNL d   1      50.607  34.318  52.567  0.00  0.00     0.000 A 
ATOM     13  C   UNL d   1      51.257  34.266  52.080  0.00  0.00     0.000 A 
ATOM     14  C   UNL d   1      51.859  33.714  52.238  0.00  0.00     0.002 A 
ENDBRANCH   3   9
BRANCH   1  15
ATOM     15  C   UNL d   1      53.214  33.720  53.635  0.00  0.00     0.303 C 
ATOM     16  O   UNL d   1      53.427  34.287  53.075  0.00  0.00    -0.259 OA
BRANCH  15  17
ATOM     17  O   UNL d   1      53.098  33.932  54.409  0.00  0.00    -0.271 OA
BRANCH  17  18
ATOM     18  C   UNL d   1      53.478  34.600  54.712  0.00  0.00     0.126 C 
ATOM     19  C   UNL d   1      53.242  34.919  55.417  0.00  0.00     0.029 C 
ENDBRANCH  17  18
ENDBRANCH  15  17
ENDBRANCH   1  15
TORSDOF 4
ENDMDL
MODEL 4
REMARK VINA RESULT:      -8.5      1.482      2.722
REMARK  4 active torsions:
REMARK  status: ('A' for Active; 'I' for Inactive)
REMARK    1  A    between atoms: C_7  and  C_1 
REMARK    2  A    between atoms: C_9  and  C_3 
REMARK    3  A    between atoms: O_13  and  C_7 
REMARK    4  A    between atoms: C_18  and  O_13 
ROOT
ATOM      1  C   UNL d   1      53.448  33.532  54.052  0.00  0.00     0.099 A 
ATOM      2  C   UNL d   1      53.578  34.276  54.349  0.00  0.00     0.093 A 
ATOM      3  C   UNL d   1      53.923  32.886  54.314  0.00  0.00     0.093 A 
ATOM      4  C   UNL d   1      54.643  33.764  55.163  0.00  0.00     0.369 A 
ATOM      5  N   UNL d   1      54.189  34.399  54.917  0.00  0.00    -0.191 NA
ATOM      6  N   UNL d   1      54.509  33.001  54.858  0.00  0.00    -0.191 NA
ATOM      7  O   UNL d   1      55.245  33.906  55.728  0.00  0.00    -0.242 OA
ATOM      8  C   UNL d   1      53.121  34.912  54.101  0.00  0.00     0.021 C 
ENDROOT
BRANCH   3   9
ATOM      9  C   UNL d   1      53.789  32.120  54.008  0.00  0.00     0.018 A 
ATOM     10  C   UNL d   1      53.352  31.562  54.463  0.00  0.00     0.002 A 
ATOM     11  C   UNL d   1      53.220  30.810  54.163  0.00  0.00     0.000 A 
ATOM     12  C   UNL d   1      53.523  30.609  53.406  0.00  0.00     0.000 A 
ATOM     13  C   UNL d   1      53.944  31.157  52.975  0.00  0.00     0.000 A 
ATOM     14  C   UNL d   1      54.078  31.919  53.279  0.00  0.00     0.002 A 
ENDBRANCH   3   9
BRANCH   1  15
ATOM     15  C   UNL d   1      52.842  33.406  53.487  0.00  0.00     0.303 C 
ATOM     16  O   UNL d   1      53.021  33.317  52.688  0.00  0.00    -0.259 OA
BRANCH  15  17
ATOM     17  O   UNL d   1      52.072  33.372  53.742  0.00  0.00    -0.271 OA
BRANCH  17  18
ATOM     18  C   UNL d   1      51.460  33.565  53.221  0.00  0.00     0.126 C 
ATOM     19  C   UNL d   1      50.693  33.397  53.414  0.00  0.00     0.029 C 
ENDBRANCH  17  18
ENDBRANCH  15  17
ENDBRANCH   1  15
TORSDOF 4
ENDMDL
MODEL 5
REMARK VINA RESULT:      -8.3      1.233      2.562
REMARK  4 active torsions:
REMARK  status: ('A' for Active; 'I' for Inactive)
REMARK    1  A    between atoms: C_7  and  C_1 
REMARK    2  A    between atoms: C_9  and  C_3 
REMARK    3  A    between atoms: O_13  and  C_7 
REMARK    4  A    between atoms: C_18  and  O_13 
ROOT
ATOM      1  C   UNL d   1      53.006  32.625  53.425  0.00  0.00     0.099 A 
ATOM      2  C   UNL d   1      52.347  32.569  52.955  0.00  0.00     0.093 A 
ATOM      3  C   UNL d   1      53.147  33.330  53.867  0.00  0.00     0.093 A 
ATOM      4  C   UNL d   1      51.955  33.892  53.345  0.00  0.00     0.369 A 
ATOM      5  N   UNL d   1      51.807  33.215  52.912  0.00  0.00    -0.191 NA
ATOM      6  N   UNL d   1      52.631  33.950  53.827  0.00  0.00    -0.191 NA
ATOM      7  O   UNL d   1      51.407  34.523  53.289  0.00  0.00    -0.242 OA
ATOM      8  C   UNL d   1      52.200  31.887  52.520  0.00  0.00     0.021 C 
ENDROOT
BRANCH   3   9
ATOM      9  C   UNL d   1      53.826  33.389  54.351  0.00  0.00     0.018 A 
ATOM     10  C   UNL d   1      53.770  33.202  55.169  0.00  0.00     0.002 A 
ATOM     11  C   UNL d   1      54.437  33.260  55.645  0.00  0.00     0.000 A 
ATOM     12  C   UNL d   1      55.165  33.504  55.305  0.00  0.00     0.000 A 
ATOM     13  C   UNL d   1      55.208  33.681  54.512  0.00  0.00     0.000 A 
ATOM     14  C   UNL d   1      54.532  33.623  54.030  0.00  0.00     0.002 A 
ENDBRANCH   3   9
BRANCH   1  15
ATOM     15  C   UNL d   1      53.545  31.986  53.471  0.00  0.00     0.303 C 
ATOM     16  O   UNL d   1      54.274  32.018  53.087  0.00  0.00    -0.259 OA
BRANCH  15  17
ATOM     17  O   UNL d   1      53.338  31.331  53.902  0.00  0.00    -0.271 OA
BRANCH  17  18
ATOM     18  C   UNL d   1      53.649  30.592  53.700  0.00  0.00     0.126 C 
ATOM     19  C   UNL d   1      53.448  29.935  54.126  0.00  0.00     0.029 C 
ENDBRANCH  17  18
ENDBRANCH  15  17
ENDBRANCH   1  15
TORSDOF 4
ENDMDL
MODEL 6
REMARK VINA RESULT:      -7.8      1.362      2.924
REMARK  4 active torsions:
REMARK  status: ('A' for Active; 'I' for Inactive)
REMARK    1  A    between atoms: C_7  and  C_1 
REMARK    2  A    between atoms: C_9  and  C_3 
REMARK    3  A    between atoms: O_13  and  C_7 
REMARK    4  A    between atoms: C_18  and  O_13 
ROOT
ATOM      1  C   UNL d   1      52.909  33.290  53.503  0.00  0.00     0.099 A 
ATOM      2  C   UNL d   1      52.581  34.031  53.487  0.00  0.00     0.093 A 
ATOM      3  C   UNL d   1      52.424  32.613  53.363  0.00  0.00     0.093 A 
ATOM      4  C   UNL d   1      51.299  33.458  53.199  0.00  0.00     0.369 A 
ATOM      5  N   UNL d   1      51.757  34.121  53.332  0.00  0.00    -0.191 NA
ATOM      6  N   UNL d   1      51.635  32.697  53.215  0.00  0.00    -0.191 NA
ATOM      7  O   UNL d   1      50.482  33.568  53.046  0.00  0.00    -0.242 OA
ATOM      8  C   UNL d   1      53.043  34.697  53.622  0.00  0.00     0.021 C 
ENDROOT
BRANCH   3   9
ATOM      9  C   UNL d   1      52.763  31.848  53.379  0.00  0.00     0.018 A 
ATOM     10  C   UNL d   1      53.020  31.494  52.661  0.00  0.00     0.002 A 
ATOM     11  C   UNL d   1      53.352  30.743  52.676  0.00  0.00     0.000 A 
ATOM     12  C   UNL d   1      53.429  30.342  53.410  0.00  0.00     0.000 A 
ATOM     13  C   UNL d   1      53.177  30.695  54.099  0.00  0.00     0.000 A 
ATOM     14  C   UNL d   1      52.840  31.456  54.083  0.00  0.00     0.002 A 
ENDBRANCH   3   9
BRANCH   1  15
ATOM     15  C   UNL d   1      53.727  33.195  53.657  0.00  0.00     0.303 C 
ATOM     16  O   UNL d   1      54.258  33.044  53.045  0.00  0.00    -0.259 OA
BRANCH  15  17
ATOM     17  O   UNL d   1      53.990  33.257  54.422  0.00  0.00    -0.271 OA
BRANCH  17  18
ATOM     18  C   UNL d   1      54.775  33.468  54.570  0.00  0.00     0.126 C 
ATOM     19  C   UNL d   1      55.040  33.545  55.330  0.00  0.00     0.029 C 
ENDBRANCH  17  18
ENDBRANCH  15  17
ENDBRANCH   1  15
TORSDOF 4
ENDMDL
