MODEL 1
REMARK VINA RESULT:      -9.0      0.000      0.000
REMARK  8 active torsions:
REMARK  status: ('A' for Active; 'I' for Inactive)
REMARK    1  A    between atoms: C_6  and  C_1 
REMARK    2  A    between atoms: C_7  and  C_2 
REMARK    3  A    between atoms: C_14  and  N_4 
REMARK    4  A    between atoms: C_8  and  C_6 
REMARK    5  A    between atoms: C_9  and  C_8 
REMARK    6  A    between atoms: C_12  and  C_9 
REMARK    7  A    between atoms: C_10  and  C_11 
REMARK    8  A    between atoms: C_11  and  C_14 
ROOT
ATOM      1  C   UNL d   1      52.467  32.923  53.360  0.00  0.00     0.039 A 
ATOM      2  C   UNL d   1      52.798  33.557  53.736  0.00  0.00     0.103 A 
ATOM      3  N   UNL d   1      52.357  34.221  53.875  0.00  0.00    -0.165 NA
ATOM      4  N   UNL d   1      51.248  33.613  53.258  0.00  0.00    -0.227 N 
ATOM      5  C   UNL d   1      51.688  32.949  53.119  0.00  0.00     0.102 A 
ENDROOT
BRANCH   1   6
ATOM      6  C   UNL d   1      52.910  32.243  53.215  0.00  0.00     0.006 C 
BRANCH   6   7
ATOM      7  C   UNL d   1      52.557  31.495  53.257  0.00  0.00     0.042 C 
BRANCH   7   8
ATOM      8  C   UNL d   1      52.867  30.857  52.818  0.00  0.00     0.196 C 
ATOM      9  O   UNL d   1      52.973  30.941  52.004  0.00  0.00    -0.287 OA
BRANCH   8  10
ATOM     10  C   UNL d   1      52.999  30.253  53.367  0.00  0.00     0.039 A 
ATOM     11  C   UNL d   1      52.364  29.859  53.720  0.00  0.00     0.004 A 
ATOM     12  C   UNL d   1      52.495  29.254  54.270  0.00  0.00     0.011 A 
ATOM     13  C   UNL d   1      53.269  29.040  54.471  0.00  0.00     0.058 A 
ATOM     14  C   UNL d   1      53.908  29.443  54.110  0.00  0.00     0.011 A 
ATOM     15 CL   UNL d   1      53.403  28.437  55.019  0.00  0.00    -0.082 Cl
ATOM     16  C   UNL d   1      53.780  30.046  53.561  0.00  0.00     0.004 A 
ENDBRANCH   8  10
ENDBRANCH   7   8
ENDBRANCH   6   7
ENDBRANCH   1   6
BRANCH   2  17
ATOM     17  C   UNL d   1      53.578  33.537  53.980  0.00  0.00     0.020 A 
ATOM     18  C   UNL d   1      53.760  33.473  54.768  0.00  0.00     0.008 A 
ATOM     19  C   UNL d   1      54.546  33.453  55.005  0.00  0.00     0.035 A 
ATOM     20 BR   UNL d   1      54.722  33.388  55.803  0.00  0.00    -0.049 Br
ATOM     21  C   UNL d   1      55.132  33.497  54.456  0.00  0.00     0.007 A 
ATOM     22  C   UNL d   1      54.943  33.561  53.663  0.00  0.00     0.001 A 
ATOM     23  C   UNL d   1      54.169  33.581  53.425  0.00  0.00     0.002 A 
ENDBRANCH   2  17
BRANCH   4  24
ATOM     24  C   UNL d   1      50.481  33.837  53.104  0.00  0.00     0.107 C 
BRANCH  24  25
ATOM     25  C   UNL d   1      50.530  34.284  52.405  0.00  0.00     0.091 C 
BRANCH  25  26
ATOM     26  C   UNL d   1      49.764  34.574  52.286  0.00  0.00     0.213 C 
ATOM     27  O   UNL d   1      49.352  34.958  52.910  0.00  0.00    -0.644 OA
ATOM     28  O   UNL d   1      49.404  34.487  51.555  0.00  0.00    -0.644 OA
ENDBRANCH  25  26
ENDBRANCH  24  25
ENDBRANCH   4  24
TORSDOF 8
ENDMDL
MODEL 2
REMARK VINA RESULT:      -8.6      1.985      3.486
REMARK  8 active torsions:
REMARK  status: ('A' for Active; 'I' for Inactive)
REMARK    1  A    between atoms: C_6  and  C_1 
REMARK    2  A    between atoms: C_7  and  C_2 
REMARK    3  A    between atoms: C_14  and  N_4 
REMARK    4  A    between atoms: C_8  and  C_6 
REMARK    5  A    between atoms: C_9  and  C_8 
REMARK    6  A    between atoms: C_12  and  C_9 
REMARK    7  A    between atoms: C_10  and  C_11 
REMARK    8  A    between atoms: C_11  and  C_14 
ROOT
ATOM      1  C   UNL d   1      52.650  33.356  53.566  0.00  0.00     0.039 A 
ATOM      2  C   UNL d   1      52.300  34.074  53.440  0.00  0.00     0.103 A 
ATOM      3  N   UNL d   1      52.528  34.717  53.875  0.00  0.00    -0.165 NA
ATOM      4  N   UNL d   1      53.461  33.919  54.566  0.00  0.00    -0.227 N 
ATOM      5  C   UNL d   1      53.233  33.276  54.131  0.00  0.00     0.102 A 
ENDROOT
BRANCH   1   6
ATOM      6  C   UNL d   1      52.423  32.696  53.127  0.00  0.00     0.006 C 
BRANCH   6   7
ATOM      7  C   UNL d   1      52.654  31.937  53.360  0.00  0.00     0.042 C 
BRANCH   7   8
ATOM      8  C   UNL d   1      52.661  31.310  52.809  0.00  0.00     0.196 C 
ATOM      9  O   UNL d   1      52.501  31.468  52.015  0.00  0.00    -0.287 OA
BRANCH   8  10
ATOM     10  C   UNL d   1      52.843  30.632  53.247  0.00  0.00     0.039 A 
ATOM     11  C   UNL d   1      53.629  30.434  53.409  0.00  0.00     0.004 A 
ATOM     12  C   UNL d   1      53.812  29.756  53.847  0.00  0.00     0.011 A 
ATOM     13  C   UNL d   1      53.204  29.269  54.127  0.00  0.00     0.058 A 
ATOM     14  C   UNL d   1      52.410  29.475  53.959  0.00  0.00     0.011 A 
ATOM     15 CL   UNL d   1      53.383  28.592  54.564  0.00  0.00    -0.082 Cl
ATOM     16  C   UNL d   1      52.224  30.151  53.522  0.00  0.00     0.004 A 
ENDBRANCH   8  10
ENDBRANCH   7   8
ENDBRANCH   6   7
ENDBRANCH   1   6
BRANCH   2  17
ATOM     17  C   UNL d   1      51.715  34.160  52.876  0.00  0.00     0.020 A 
ATOM     18  C   UNL d   1      50.934  34.153  53.090  0.00  0.00     0.008 A 
ATOM     19  C   UNL d   1      50.352  34.240  52.517  0.00  0.00     0.035 A 
ATOM     20 BR   UNL d   1      49.563  34.231  52.742  0.00  0.00    -0.049 Br
ATOM     21  C   UNL d   1      50.560  34.332  51.746  0.00  0.00     0.007 A 
ATOM     22  C   UNL d   1      51.349  34.339  51.534  0.00  0.00     0.001 A 
ATOM     23  C   UNL d   1      51.926  34.253  52.097  0.00  0.00     0.002 A 
ENDBRANCH   2  17
BRANCH   4  24
ATOM     24  C   UNL d   1      54.004  34.050  55.157  0.00  0.00     0.107 C 
BRANCH  24  25
ATOM     25  C   UNL d   1      54.695  33.670  54.894  0.00  0.00     0.091 C 
BRANCH  25  26
ATOM     26  C   UNL d   1      55.285  33.919  55.418  0.00  0.00     0.213 C 
ATOM     27  O   UNL d   1      55.937  34.371  55.142  0.00  0.00    -0.644 OA
ATOM     28  O   UNL d   1      55.233  33.725  56.213  0.00  0.00    -0.644 OA
ENDBRANCH  25  26
ENDBRANCH  24  25
ENDBRANCH   4  24
TORSDOF 8
ENDMDL
MODEL 3
REMARK VINA RESULT:      -8.6      2.177      4.237
REMARK  8 active torsions:
REMARK  status: ('A' for Active; 'I' for Inactive)
REMARK    1  A    between atoms: C_6  and  C_1 
REMARK    2  A    between atoms: C_7  and  C_2 
REMARK    3  A    between atoms: C_14  and  N_4 
REMARK    4  A    between atoms: C_8  and  C_6 
REMARK    5  A    between atoms: C_9  and  C_8 
REMARK    6  A    between atoms: C_12  and  C_9 
REMARK    7  A    between atoms: C_10  and  C_11 
REMARK    8  A    between atoms: C_11  and  C_14 
ROOT
ATOM      1  C   UNL d   1      53.224  32.485  53.523  0.00  0.00     0.039 A 
ATOM      2  C   UNL d   1      53.778  32.297  54.081  0.00  0.00     0.103 A 
ATOM      3  N   UNL d   1      53.983  31.524  54.203  0.00  0.00    -0.165 NA
ATOM      4  N   UNL d   1      53.076  31.126  53.203  0.00  0.00    -0.227 N 
ATOM      5  C   UNL d   1      52.870  31.899  53.081  0.00  0.00     0.102 A 
ENDROOT
BRANCH   1   6
ATOM      6  C   UNL d   1      53.010  33.271  53.393  0.00  0.00     0.006 C 
BRANCH   6   7
ATOM      7  C   UNL d   1      52.341  33.455  52.942  0.00  0.00     0.042 C 
BRANCH   7   8
ATOM      8  C   UNL d   1      52.218  34.233  52.666  0.00  0.00     0.196 C 
ATOM      9  O   UNL d   1      52.863  34.742  52.594  0.00  0.00    -0.287 OA
BRANCH   8  10
ATOM     10  C   UNL d   1      51.405  34.293  52.526  0.00  0.00     0.039 A 
ATOM     11  C   UNL d   1      50.887  34.501  53.136  0.00  0.00     0.004 A 
ATOM     12  C   UNL d   1      50.073  34.561  52.996  0.00  0.00     0.011 A 
ATOM     13  C   UNL d   1      49.773  34.411  52.240  0.00  0.00     0.058 A 
ATOM     14  C   UNL d   1      50.303  34.201  51.627  0.00  0.00     0.011 A 
ATOM     15 CL   UNL d   1      48.961  34.470  52.097  0.00  0.00    -0.082 Cl
ATOM     16  C   UNL d   1      51.114  34.141  51.763  0.00  0.00     0.004 A 
ENDBRANCH   8  10
ENDBRANCH   7   8
ENDBRANCH   6   7
ENDBRANCH   1   6
BRANCH   2  17
ATOM     17  C   UNL d   1      54.135  32.881  54.528  0.00  0.00     0.020 A 
ATOM     18  C   UNL d   1      54.856  33.181  54.309  0.00  0.00     0.008 A 
ATOM     19  C   UNL d   1      55.209  33.768  54.763  0.00  0.00     0.035 A 
ATOM     20 BR   UNL d   1      55.939  34.066  54.535  0.00  0.00    -0.049 Br
ATOM     21  C   UNL d   1      54.839  34.042  55.421  0.00  0.00     0.007 A 
ATOM     22  C   UNL d   1      54.112  33.737  55.638  0.00  0.00     0.001 A 
ATOM     23  C   UNL d   1      53.761  33.158  55.193  0.00  0.00     0.002 A 
ENDBRANCH   2  17
BRANCH   4  24
ATOM     24  C   UNL d   1      52.851  30.414  52.881  0.00  0.00     0.107 C 
BRANCH  24  25
ATOM     25  C   UNL d   1      52.433  30.031  53.490  0.00  0.00     0.091 C 
BRANCH  25  26
ATOM     26  C   UNL d   1      52.524  29.224  53.332  0.00  0.00     0.213 C 
ATOM     27  O   UNL d   1      52.937  28.728  53.871  0.00  0.00    -0.644 OA
ATOM     28  O   UNL d   1      52.208  28.904  52.647  0.00  0.00    -0.644 OA
ENDBRANCH  25  26
ENDBRANCH  24  25
ENDBRANCH   4  24
TORSDOF 8
ENDMDL
