MODEL 1
REMARK VINA RESULT:      32.9      0.000      0.000
REMARK  4 active torsions:
REMARK  status: ('A' for Active; 'I' for Inactive)
REMARK    1  A    between atoms: S_11  and  C_2 
REMARK    2  A    between atoms: C_7  and  C_3 
REMARK    3  A    between atoms: C_17  and  S_11 
REMARK    4  A    between atoms: C_13  and  C_17 
ROOT
ATOM      1  C   UNL d   1      14.204  13.365  -2.480  0.00  0.00     0.092 A 
ATOM      2  C   UNL d   1      13.949  13.611  -3.211  0.00  0.00     0.124 A 
ATOM      3  C   UNL d   1      14.052  12.584  -2.230  0.00  0.00     0.017 A 
ATOM      4  N   UNL d   1      13.537  13.080  -3.706  0.00  0.00    -0.201 NA
ATOM      5  C   UNL d   1      13.389  12.309  -3.454  0.00  0.00     0.280 A 
ATOM      6  C   UNL d   1      14.614  13.890  -1.986  0.00  0.00     0.103 C 
ATOM      7  N   UNL d   1      15.024  14.422  -1.496  0.00  0.00    -0.191 NA
ATOM      8  C   UNL d   1      13.644  12.063  -2.723  0.00  0.00     0.063 A 
ATOM      9  O   UNL d   1      12.979  11.783  -3.948  0.00  0.00    -0.265 OA
ENDROOT
BRANCH   2  10
ATOM     10  S   UNL d   1      14.099  14.387  -3.462  0.00  0.00    -0.067 SA
BRANCH  10  11
ATOM     11  C   UNL d   1      13.876  14.633  -4.227  0.00  0.00     0.037 C 
BRANCH  11  12
ATOM     12  C   UNL d   1      13.864  15.509  -4.506  0.00  0.00     0.007 C 
ATOM     13  C   UNL d   1      14.571  16.206  -4.329  0.00  0.00     0.001 C 
ENDBRANCH  11  12
ENDBRANCH  10  11
ENDBRANCH   2  10
BRANCH   3  14
ATOM     14  C   UNL d   1      14.310  12.335  -1.490  0.00  0.00     0.011 A 
ATOM     15  C   UNL d   1      13.777  12.029  -0.958  0.00  0.00     0.058 A 
ATOM     16 CL   UNL d   1      12.790  11.888  -1.042  0.00  0.00    -0.082 Cl
ATOM     17  C   UNL d   1      14.055  11.780  -0.209  0.00  0.00     0.011 A 
ATOM     18  C   UNL d   1      14.854  11.844  -0.017  0.00  0.00     0.001 A 
ATOM     19  C   UNL d   1      15.371  12.152  -0.559  0.00  0.00     0.000 A 
ATOM     20  C   UNL d   1      15.100  12.401  -1.306  0.00  0.00     0.001 A 
ENDBRANCH   3  14
TORSDOF 4
ENDMDL
