MODEL 1
REMARK VINA RESULT:       0.7      0.000      0.000
REMARK  5 active torsions:
REMARK  status: ('A' for Active; 'I' for Inactive)
REMARK    1  A    between atoms: C_3  and  C_1 
REMARK    2  A    between atoms: N_2  and  C_11 
REMARK    3  A    between atoms: N_6  and  C_3 
REMARK    4  A    between atoms: C_14  and  C_5 
REMARK    5  A    between atoms: C_10  and  N_7 
ROOT
ATOM      1  C   UNL d   1     -41.421-121.407 -51.041  0.00  0.00     0.143 C 
ATOM      2  S   UNL d   1     -41.123-120.656 -50.989  0.00  0.00    -0.057 SA
ENDROOT
BRANCH   1   3
ATOM      3  C   UNL d   1     -41.496-121.782 -51.750  0.00  0.00     0.126 A 
ATOM      4  O   UNL d   1     -41.865-121.538 -52.451  0.00  0.00    -0.305 OA
ATOM      5  C   UNL d   1     -41.770-122.151 -53.003  0.00  0.00     0.100 A 
ATOM      6  C   UNL d   1     -41.365-122.736 -52.658  0.00  0.00     0.027 A 
ATOM      7  C   UNL d   1     -41.184-122.527 -51.876  0.00  0.00     0.029 A 
BRANCH   5   8
ATOM      8  C   UNL d   1     -42.011-122.225 -53.772  0.00  0.00     0.023 A 
ATOM      9  C   UNL d   1     -42.127-121.553 -54.250  0.00  0.00     0.004 A 
ATOM     10  C   UNL d   1     -42.373-121.644 -55.035  0.00  0.00     0.024 A 
ATOM     11  C   UNL d   1     -42.508-122.393 -55.357  0.00  0.00     0.127 A 
ATOM     12  C   UNL d   1     -42.387-123.062 -54.861  0.00  0.00     0.024 A 
ATOM     13  C   UNL d   1     -42.146-122.975 -54.094  0.00  0.00     0.004 A 
BRANCH  11  14
ATOM     14  N   UNL d   1     -42.749-122.467 -56.125  0.00  0.00    -0.114 N 
ATOM     15  O   UNL d   1     -42.245-122.412 -56.788  0.00  0.00    -0.532 OA
ATOM     16  O   UNL d   1     -43.522-122.606 -56.359  0.00  0.00    -0.532 OA
ENDBRANCH  11  14
ENDBRANCH   5   8
ENDBRANCH   1   3
BRANCH   1  17
ATOM     17  N   UNL d   1     -41.663-121.818 -50.335  0.00  0.00    -0.291 N 
ATOM     18  C   UNL d   1     -42.455-121.778 -50.085  0.00  0.00     0.100 A 
ATOM     19  C   UNL d   1     -42.699-122.172 -49.405  0.00  0.00     0.100 A 
ATOM     20  N   UNL d   1     -42.145-122.609 -48.970  0.00  0.00    -0.301 N 
ATOM     21  C   UNL d   1     -41.375-122.646 -49.216  0.00  0.00     0.100 A 
ATOM     22  C   UNL d   1     -41.132-122.250 -49.900  0.00  0.00     0.100 A 
BRANCH  20  23
ATOM     23  C   UNL d   1     -42.389-123.003 -48.289  0.00  0.00     0.064 A 
ATOM     24  C   UNL d   1     -43.110-123.412 -48.333  0.00  0.00     0.016 A 
ATOM     25  C   UNL d   1     -43.574-123.435 -49.022  0.00  0.00     0.002 C 
ATOM     26  C   UNL d   1     -43.372-123.812 -47.666  0.00  0.00     0.001 A 
ATOM     27  C   UNL d   1     -42.923-123.804 -46.960  0.00  0.00     0.000 A 
ATOM     28  C   UNL d   1     -42.221-123.398 -46.938  0.00  0.00     0.002 A 
ATOM     29  C   UNL d   1     -41.955-122.998 -47.600  0.00  0.00     0.018 A 
ENDBRANCH  20  23
ENDBRANCH   1  17
TORSDOF 5
ENDMDL
MODEL 2
REMARK VINA RESULT:       2.1      1.911      5.974
REMARK  5 active torsions:
REMARK  status: ('A' for Active; 'I' for Inactive)
REMARK    1  A    between atoms: C_3  and  C_1 
REMARK    2  A    between atoms: N_2  and  C_11 
REMARK    3  A    between atoms: N_6  and  C_3 
REMARK    4  A    between atoms: C_14  and  C_5 
REMARK    5  A    between atoms: C_10  and  N_7 
ROOT
ATOM      1  C   UNL d   1     -41.453-121.392 -51.998  0.00  0.00     0.143 C 
ATOM      2  S   UNL d   1     -41.150-120.650 -51.884  0.00  0.00    -0.057 SA
ENDROOT
BRANCH   1   3
ATOM      3  C   UNL d   1     -41.519-121.917 -51.391  0.00  0.00     0.126 A 
ATOM      4  O   UNL d   1     -41.953-121.873 -50.686  0.00  0.00    -0.305 OA
ATOM      5  C   UNL d   1     -41.812-122.576 -50.267  0.00  0.00     0.100 A 
ATOM      6  C   UNL d   1     -41.318-123.024 -50.693  0.00  0.00     0.027 A 
ATOM      7  C   UNL d   1     -41.123-122.632 -51.398  0.00  0.00     0.029 A 
BRANCH   5   8
ATOM      8  C   UNL d   1     -42.083-122.841 -49.553  0.00  0.00     0.023 A 
ATOM      9  C   UNL d   1     -41.578-122.881 -48.892  0.00  0.00     0.004 A 
ATOM     10  C   UNL d   1     -41.869-123.154 -48.167  0.00  0.00     0.024 A 
ATOM     11  C   UNL d   1     -42.657-123.389 -48.084  0.00  0.00     0.127 A 
ATOM     12  C   UNL d   1     -43.155-123.343 -48.760  0.00  0.00     0.024 A 
ATOM     13  C   UNL d   1     -42.872-123.076 -49.470  0.00  0.00     0.004 A 
BRANCH  11  14
ATOM     14  N   UNL d   1     -42.928-123.654 -47.369  0.00  0.00    -0.114 N 
ATOM     15  O   UNL d   1     -42.445-123.817 -46.709  0.00  0.00    -0.532 OA
ATOM     16  O   UNL d   1     -43.715-123.798 -47.195  0.00  0.00    -0.532 OA
ENDBRANCH  11  14
ENDBRANCH   5   8
ENDBRANCH   1   3
BRANCH   1  17
ATOM     17  N   UNL d   1     -41.709-121.633 -52.774  0.00  0.00    -0.291 N 
ATOM     18  C   UNL d   1     -42.512-121.567 -52.982  0.00  0.00     0.100 A 
ATOM     19  C   UNL d   1     -42.769-121.797 -53.729  0.00  0.00     0.100 A 
ATOM     20  N   UNL d   1     -42.219-122.094 -54.273  0.00  0.00    -0.301 N 
ATOM     21  C   UNL d   1     -41.440-122.157 -54.068  0.00  0.00     0.100 A 
ATOM     22  C   UNL d   1     -41.182-121.926 -53.317  0.00  0.00     0.100 A 
BRANCH  20  23
ATOM     23  C   UNL d   1     -42.478-122.324 -55.021  0.00  0.00     0.064 A 
ATOM     24  C   UNL d   1     -42.601-123.136 -55.140  0.00  0.00     0.016 A 
ATOM     25  C   UNL d   1     -42.475-123.703 -54.546  0.00  0.00     0.002 C 
ATOM     26  C   UNL d   1     -42.859-123.386 -55.878  0.00  0.00     0.001 A 
ATOM     27  C   UNL d   1     -42.993-122.835 -56.492  0.00  0.00     0.000 A 
ATOM     28  C   UNL d   1     -42.867-122.045 -56.356  0.00  0.00     0.002 A 
ATOM     29  C   UNL d   1     -42.610-121.791 -55.622  0.00  0.00     0.018 A 
ENDBRANCH  20  23
ENDBRANCH   1  17
TORSDOF 5
ENDMDL
