MODEL 1
REMARK VINA RESULT:      -7.5      0.000      0.000
REMARK  9 active torsions:
REMARK  status: ('A' for Active; 'I' for Inactive)
REMARK    1  A    between atoms: N_2  and  C_1 
REMARK       I    between atoms: C_4  and  N_2 
REMARK    2  A    between atoms: C_7  and  C_4 
REMARK    3  A    between atoms: C_8  and  C_5 
REMARK    4  A    between atoms: C_10  and  C_8 
REMARK       I    between atoms: N_12  and  C_10 
REMARK    5  A    between atoms: C_11  and  C_19 
REMARK    6  A    between atoms: C_19  and  N_12 
REMARK    7  A    between atoms: O_23  and  C_17 
REMARK    8  A    between atoms: O_24  and  C_18 
REMARK    9  A    between atoms: O_22  and  C_20 
ROOT
ATOM      1  C   UNL d   1      50.499  34.068  52.918  0.00  0.00     0.197 A 
ATOM      2  N   UNL d   1      50.132  34.694  53.329  0.00  0.00    -0.220 NA
ATOM      3  C   UNL d   1      49.595  35.053  52.825  0.00  0.00     0.095 A 
ATOM      4  S   UNL d   1      50.176  34.055  52.161  0.00  0.00    -0.046 SA
ATOM      5  C   UNL d   1      49.621  34.659  52.101  0.00  0.00     0.058 A 
ENDROOT
BRANCH   1   6
ATOM      6  N   UNL d   1      51.072  33.567  53.223  0.00  0.00    -0.183 NA
ATOM      7  C   UNL d   1      51.864  33.681  53.053  0.00  0.00     0.281 C 
ATOM      8  O   UNL d   1      52.102  34.309  52.564  0.00  0.00    -0.265 OA
BRANCH   7   9
ATOM      9  C   UNL d   1      52.444  33.178  53.359  0.00  0.00     0.062 A 
ATOM     10  C   UNL d   1      52.612  32.469  53.000  0.00  0.00     0.029 A 
ATOM     11  C   UNL d   1      53.190  31.974  53.309  0.00  0.00     0.096 A 
ATOM     12  C   UNL d   1      53.603  32.199  53.991  0.00  0.00     0.048 A 
ATOM     13  C   UNL d   1      53.427  32.916  54.345  0.00  0.00     0.096 A 
ATOM     14  C   UNL d   1      52.852  33.414  54.043  0.00  0.00     0.029 A 
BRANCH  11  15
ATOM     15  O   UNL d   1      53.360  31.258  52.947  0.00  0.00    -0.328 OA
ATOM     16  C   UNL d   1      52.866  30.600  53.071  0.00  0.00     0.181 C 
ENDBRANCH  11  15
BRANCH  13  17
ATOM     17  O   UNL d   1      53.834  33.153  55.030  0.00  0.00    -0.328 OA
ATOM     18  C   UNL d   1      54.624  33.383  54.981  0.00  0.00     0.181 C 
ENDBRANCH  13  17
ENDBRANCH   7   9
ENDBRANCH   1   6
BRANCH   3  19
ATOM     19  C   UNL d   1      49.112  35.696  53.008  0.00  0.00     0.082 C 
BRANCH  19  20
ATOM     20  C   UNL d   1      48.294  35.646  52.890  0.00  0.00     0.281 C 
ATOM     21  N   UNL d   1      47.783  35.849  53.501  0.00  0.00    -0.206 NA
ATOM     22  O   UNL d   1      48.003  35.395  52.164  0.00  0.00    -0.265 OA
BRANCH  21  23
ATOM     23  C   UNL d   1      46.974  35.800  53.385  0.00  0.00     0.104 C 
BRANCH  23  24
ATOM     24  C   UNL d   1      46.455  36.034  53.983  0.00  0.00     0.042 A 
ATOM     25  C   UNL d   1      45.651  35.841  53.930  0.00  0.00     0.096 A 
ATOM     26  C   UNL d   1      45.126  36.068  54.516  0.00  0.00     0.024 A 
ATOM     27  C   UNL d   1      45.398  36.492  55.167  0.00  0.00     0.002 A 
ATOM     28  C   UNL d   1      46.196  36.689  55.227  0.00  0.00     0.000 A 
ATOM     29  C   UNL d   1      46.725  36.461  54.638  0.00  0.00     0.004 A 
BRANCH  25  30
ATOM     30  O   UNL d   1      45.368  35.411  53.275  0.00  0.00    -0.328 OA
ATOM     31  C   UNL d   1      44.568  35.208  53.216  0.00  0.00     0.181 C 
ENDBRANCH  25  30
ENDBRANCH  23  24
ENDBRANCH  21  23
ENDBRANCH  19  20
ENDBRANCH   3  19
TORSDOF 9
ENDMDL
MODEL 2
REMARK VINA RESULT:      -7.4      1.018      1.764
REMARK  9 active torsions:
REMARK  status: ('A' for Active; 'I' for Inactive)
REMARK    1  A    between atoms: N_2  and  C_1 
REMARK       I    between atoms: C_4  and  N_2 
REMARK    2  A    between atoms: C_7  and  C_4 
REMARK    3  A    between atoms: C_8  and  C_5 
REMARK    4  A    between atoms: C_10  and  C_8 
REMARK       I    between atoms: N_12  and  C_10 
REMARK    5  A    between atoms: C_11  and  C_19 
REMARK    6  A    between atoms: C_19  and  N_12 
REMARK    7  A    between atoms: O_23  and  C_17 
REMARK    8  A    between atoms: O_24  and  C_18 
REMARK    9  A    between atoms: O_22  and  C_20 
ROOT
ATOM      1  C   UNL d   1      50.863  33.933  52.941  0.00  0.00     0.197 A 
ATOM      2  N   UNL d   1      50.342  34.475  53.303  0.00  0.00    -0.220 NA
ATOM      3  C   UNL d   1      49.839  34.772  52.728  0.00  0.00     0.095 A 
ATOM      4  S   UNL d   1      50.666  33.908  52.141  0.00  0.00    -0.046 SA
ATOM      5  C   UNL d   1      50.038  34.422  52.008  0.00  0.00     0.058 A 
ENDROOT
BRANCH   1   6
ATOM      6  N   UNL d   1      51.454  33.512  53.321  0.00  0.00    -0.183 NA
ATOM      7  C   UNL d   1      52.242  33.639  53.143  0.00  0.00     0.281 C 
ATOM      8  O   UNL d   1      52.458  34.201  52.571  0.00  0.00    -0.265 OA
BRANCH   7   9
ATOM      9  C   UNL d   1      52.841  33.216  53.525  0.00  0.00     0.062 A 
ATOM     10  C   UNL d   1      53.214  33.521  54.179  0.00  0.00     0.029 A 
ATOM     11  C   UNL d   1      53.808  33.094  54.553  0.00  0.00     0.096 A 
ATOM     12  C   UNL d   1      54.027  32.351  54.263  0.00  0.00     0.048 A 
ATOM     13  C   UNL d   1      53.645  32.052  53.603  0.00  0.00     0.096 A 
ATOM     14  C   UNL d   1      53.052  32.471  53.225  0.00  0.00     0.029 A 
BRANCH  11  15
ATOM     15  O   UNL d   1      54.186  33.401  55.213  0.00  0.00    -0.328 OA
ATOM     16  C   UNL d   1      54.998  33.580  55.184  0.00  0.00     0.181 C 
ENDBRANCH  11  15
BRANCH  13  17
ATOM     17  O   UNL d   1      53.855  31.306  53.302  0.00  0.00    -0.328 OA
ATOM     18  C   UNL d   1      53.558  30.621  53.650  0.00  0.00     0.181 C 
ENDBRANCH  13  17
ENDBRANCH   7   9
ENDBRANCH   1   6
BRANCH   3  19
ATOM     19  C   UNL d   1      49.237  35.324  52.847  0.00  0.00     0.082 C 
BRANCH  19  20
ATOM     20  C   UNL d   1      48.573  35.326  52.352  0.00  0.00     0.281 C 
ATOM     21  N   UNL d   1      47.886  35.703  52.598  0.00  0.00    -0.206 NA
ATOM     22  O   UNL d   1      48.611  34.951  51.622  0.00  0.00    -0.265 OA
BRANCH  21  23
ATOM     23  C   UNL d   1      47.229  35.705  52.109  0.00  0.00     0.104 C 
BRANCH  23  24
ATOM     24  C   UNL d   1      46.521  36.042  52.368  0.00  0.00     0.042 A 
ATOM     25  C   UNL d   1      45.860  36.046  51.869  0.00  0.00     0.096 A 
ATOM     26  C   UNL d   1      45.152  36.377  52.114  0.00  0.00     0.024 A 
ATOM     27  C   UNL d   1      45.094  36.709  52.865  0.00  0.00     0.002 A 
ATOM     28  C   UNL d   1      45.747  36.709  53.368  0.00  0.00     0.000 A 
ATOM     29  C   UNL d   1      46.460  36.376  53.122  0.00  0.00     0.004 A 
BRANCH  25  30
ATOM     30  O   UNL d   1      45.910  35.712  51.107  0.00  0.00    -0.328 OA
ATOM     31  C   UNL d   1      45.226  35.544  50.674  0.00  0.00     0.181 C 
ENDBRANCH  25  30
ENDBRANCH  23  24
ENDBRANCH  21  23
ENDBRANCH  19  20
ENDBRANCH   3  19
TORSDOF 9
ENDMDL
MODEL 3
REMARK VINA RESULT:      -7.3      1.204      7.095
REMARK  9 active torsions:
REMARK  status: ('A' for Active; 'I' for Inactive)
REMARK    1  A    between atoms: N_2  and  C_1 
REMARK       I    between atoms: C_4  and  N_2 
REMARK    2  A    between atoms: C_7  and  C_4 
REMARK    3  A    between atoms: C_8  and  C_5 
REMARK    4  A    between atoms: C_10  and  C_8 
REMARK       I    between atoms: N_12  and  C_10 
REMARK    5  A    between atoms: C_11  and  C_19 
REMARK    6  A    between atoms: C_19  and  N_12 
REMARK    7  A    between atoms: O_23  and  C_17 
REMARK    8  A    between atoms: O_24  and  C_18 
REMARK    9  A    between atoms: O_22  and  C_20 
ROOT
ATOM      1  C   UNL d   1      48.662  34.871  52.187  0.00  0.00     0.197 A 
ATOM      2  N   UNL d   1      49.245  34.862  52.783  0.00  0.00    -0.220 NA
ATOM      3  C   UNL d   1      49.955  34.630  52.444  0.00  0.00     0.095 A 
ATOM      4  S   UNL d   1      49.030  34.642  51.486  0.00  0.00    -0.046 SA
ATOM      5  C   UNL d   1      49.824  34.494  51.642  0.00  0.00     0.058 A 
ENDROOT
BRANCH   1   6
ATOM      6  N   UNL d   1      47.875  35.073  52.293  0.00  0.00    -0.183 NA
ATOM      7  C   UNL d   1      47.610  35.831  52.141  0.00  0.00     0.281 C 
ATOM      8  O   UNL d   1      48.139  36.415  51.875  0.00  0.00    -0.265 OA
BRANCH   7   9
ATOM      9  C   UNL d   1      46.817  36.038  52.247  0.00  0.00     0.062 A 
ATOM     10  C   UNL d   1      46.540  36.266  52.975  0.00  0.00     0.029 A 
ATOM     11  C   UNL d   1      45.750  36.470  53.073  0.00  0.00     0.096 A 
ATOM     12  C   UNL d   1      45.234  36.441  52.426  0.00  0.00     0.048 A 
ATOM     13  C   UNL d   1      45.523  36.209  51.696  0.00  0.00     0.096 A 
ATOM     14  C   UNL d   1      46.308  36.005  51.591  0.00  0.00     0.029 A 
BRANCH  11  15
ATOM     15  O   UNL d   1      45.469  36.701  53.808  0.00  0.00    -0.328 OA
ATOM     16  C   UNL d   1      45.317  36.131  54.395  0.00  0.00     0.181 C 
ENDBRANCH  11  15
BRANCH  13  17
ATOM     17  O   UNL d   1      45.015  36.177  51.039  0.00  0.00    -0.328 OA
ATOM     18  C   UNL d   1      44.484  35.552  50.957  0.00  0.00     0.181 C 
ENDBRANCH  13  17
ENDBRANCH   7   9
ENDBRANCH   1   6
BRANCH   3  19
ATOM     19  C   UNL d   1      50.677  34.547  52.836  0.00  0.00     0.082 C 
BRANCH  19  20
ATOM     20  C   UNL d   1      50.947  33.794  53.051  0.00  0.00     0.281 C 
ATOM     21  N   UNL d   1      51.754  33.636  53.044  0.00  0.00    -0.206 NA
ATOM     22  O   UNL d   1      50.406  33.216  53.268  0.00  0.00    -0.265 OA
BRANCH  21  23
ATOM     23  C   UNL d   1      52.021  32.892  53.256  0.00  0.00     0.104 C 
BRANCH  23  24
ATOM     24  C   UNL d   1      52.825  32.767  53.401  0.00  0.00     0.042 A 
ATOM     25  C   UNL d   1      53.146  32.009  53.312  0.00  0.00     0.096 A 
ATOM     26  C   UNL d   1      53.941  31.871  53.453  0.00  0.00     0.024 A 
ATOM     27  C   UNL d   1      54.429  32.492  53.685  0.00  0.00     0.002 A 
ATOM     28  C   UNL d   1      54.117  33.250  53.776  0.00  0.00     0.000 A 
ATOM     29  C   UNL d   1      53.317  33.389  53.634  0.00  0.00     0.004 A 
BRANCH  25  30
ATOM     30  O   UNL d   1      52.659  31.374  53.078  0.00  0.00    -0.328 OA
ATOM     31  C   UNL d   1      52.953  30.601  53.061  0.00  0.00     0.181 C 
ENDBRANCH  25  30
ENDBRANCH  23  24
ENDBRANCH  21  23
ENDBRANCH  19  20
ENDBRANCH   3  19
TORSDOF 9
ENDMDL
MODEL 4
REMARK VINA RESULT:      -7.2      1.977      6.645
REMARK  9 active torsions:
REMARK  status: ('A' for Active; 'I' for Inactive)
REMARK    1  A    between atoms: N_2  and  C_1 
REMARK       I    between atoms: C_4  and  N_2 
REMARK    2  A    between atoms: C_7  and  C_4 
REMARK    3  A    between atoms: C_8  and  C_5 
REMARK    4  A    between atoms: C_10  and  C_8 
REMARK       I    between atoms: N_12  and  C_10 
REMARK    5  A    between atoms: C_11  and  C_19 
REMARK    6  A    between atoms: C_19  and  N_12 
REMARK    7  A    between atoms: O_23  and  C_17 
REMARK    8  A    between atoms: O_24  and  C_18 
REMARK    9  A    between atoms: O_22  and  C_20 
ROOT
ATOM      1  C   UNL d   1      52.291  34.562  53.547  0.00  0.00     0.197 A 
ATOM      2  N   UNL d   1      52.790  33.951  53.279  0.00  0.00    -0.220 NA
ATOM      3  C   UNL d   1      53.417  33.883  53.802  0.00  0.00     0.095 A 
ATOM      4  S   UNL d   1      52.626  34.862  54.238  0.00  0.00    -0.046 SA
ATOM      5  C   UNL d   1      53.317  34.446  54.396  0.00  0.00     0.058 A 
ENDROOT
BRANCH   1   6
ATOM      6  N   UNL d   1      51.600  34.809  53.182  0.00  0.00    -0.183 NA
ATOM      7  C   UNL d   1      50.917  34.362  53.228  0.00  0.00     0.281 C 
ATOM      8  O   UNL d   1      50.911  33.646  53.650  0.00  0.00    -0.265 OA
BRANCH   7   9
ATOM      9  C   UNL d   1      50.218  34.608  52.861  0.00  0.00     0.062 A 
ATOM     10  C   UNL d   1      50.082  34.449  52.076  0.00  0.00     0.029 A 
ATOM     11  C   UNL d   1      49.386  34.697  51.718  0.00  0.00     0.096 A 
ATOM     12  C   UNL d   1      48.820  35.111  52.159  0.00  0.00     0.048 A 
ATOM     13  C   UNL d   1      48.967  35.266  52.949  0.00  0.00     0.096 A 
ATOM     14  C   UNL d   1      49.658  35.022  53.313  0.00  0.00     0.029 A 
BRANCH  11  15
ATOM     15  O   UNL d   1      49.248  34.537  50.925  0.00  0.00    -0.328 OA
ATOM     16  C   UNL d   1      48.489  34.307  50.672  0.00  0.00     0.181 C 
ENDBRANCH  11  15
BRANCH  13  17
ATOM     17  O   UNL d   1      48.406  35.680  53.402  0.00  0.00    -0.328 OA
ATOM     18  C   UNL d   1      48.005  36.323  53.078  0.00  0.00     0.181 C 
ENDBRANCH  13  17
ENDBRANCH   7   9
ENDBRANCH   1   6
BRANCH   3  19
ATOM     19  C   UNL d   1      54.042  33.346  53.747  0.00  0.00     0.082 C 
BRANCH  19  20
ATOM     20  C   UNL d   1      53.982  32.603  54.108  0.00  0.00     0.281 C 
ATOM     21  N   UNL d   1      53.731  31.957  53.666  0.00  0.00    -0.206 NA
ATOM     22  O   UNL d   1      54.176  32.522  54.902  0.00  0.00    -0.265 OA
BRANCH  21  23
ATOM     23  C   UNL d   1      53.672  31.222  54.023  0.00  0.00     0.104 C 
BRANCH  23  24
ATOM     24  C   UNL d   1      53.324  30.592  53.618  0.00  0.00     0.042 A 
ATOM     25  C   UNL d   1      53.226  29.863  53.998  0.00  0.00     0.096 A 
ATOM     26  C   UNL d   1      52.882  29.230  53.608  0.00  0.00     0.024 A 
ATOM     27  C   UNL d   1      52.630  29.317  52.829  0.00  0.00     0.002 A 
ATOM     28  C   UNL d   1      52.724  30.040  52.444  0.00  0.00     0.000 A 
ATOM     29  C   UNL d   1      53.070  30.678  52.836  0.00  0.00     0.004 A 
BRANCH  25  30
ATOM     30  O   UNL d   1      53.478  29.765  54.786  0.00  0.00    -0.328 OA
ATOM     31  C   UNL d   1      53.326  29.062  55.195  0.00  0.00     0.181 C 
ENDBRANCH  25  30
ENDBRANCH  23  24
ENDBRANCH  21  23
ENDBRANCH  19  20
ENDBRANCH   3  19
TORSDOF 9
ENDMDL
MODEL 5
REMARK VINA RESULT:      -7.1      1.152      6.945
REMARK  9 active torsions:
REMARK  status: ('A' for Active; 'I' for Inactive)
REMARK    1  A    between atoms: N_2  and  C_1 
REMARK       I    between atoms: C_4  and  N_2 
REMARK    2  A    between atoms: C_7  and  C_4 
REMARK    3  A    between atoms: C_8  and  C_5 
REMARK    4  A    between atoms: C_10  and  C_8 
REMARK       I    between atoms: N_12  and  C_10 
REMARK    5  A    between atoms: C_11  and  C_19 
REMARK    6  A    between atoms: C_19  and  N_12 
REMARK    7  A    between atoms: O_23  and  C_17 
REMARK    8  A    between atoms: O_24  and  C_18 
REMARK    9  A    between atoms: O_22  and  C_20 
ROOT
ATOM      1  C   UNL d   1      48.788  34.881  52.347  0.00  0.00     0.197 A 
ATOM      2  N   UNL d   1      49.391  34.962  52.917  0.00  0.00    -0.220 NA
ATOM      3  C   UNL d   1      50.093  34.698  52.588  0.00  0.00     0.095 A 
ATOM      4  S   UNL d   1      49.137  34.566  51.670  0.00  0.00    -0.046 SA
ATOM      5  C   UNL d   1      49.938  34.453  51.816  0.00  0.00     0.058 A 
ENDROOT
BRANCH   1   6
ATOM      6  N   UNL d   1      48.000  35.082  52.452  0.00  0.00    -0.183 NA
ATOM      7  C   UNL d   1      47.709  35.798  52.185  0.00  0.00     0.281 C 
ATOM      8  O   UNL d   1      48.210  36.337  51.799  0.00  0.00    -0.265 OA
BRANCH   7   9
ATOM      9  C   UNL d   1      46.915  36.004  52.290  0.00  0.00     0.062 A 
ATOM     10  C   UNL d   1      46.389  35.961  51.673  0.00  0.00     0.029 A 
ATOM     11  C   UNL d   1      45.602  36.167  51.785  0.00  0.00     0.096 A 
ATOM     12  C   UNL d   1      45.344  36.418  52.530  0.00  0.00     0.048 A 
ATOM     13  C   UNL d   1      45.882  36.458  53.146  0.00  0.00     0.096 A 
ATOM     14  C   UNL d   1      46.667  36.255  53.042  0.00  0.00     0.029 A 
BRANCH  11  15
ATOM     15  O   UNL d   1      45.069  36.124  51.162  0.00  0.00    -0.328 OA
ATOM     16  C   UNL d   1      44.667  35.413  51.005  0.00  0.00     0.181 C 
ENDBRANCH  11  15
BRANCH  13  17
ATOM     17  O   UNL d   1      45.635  36.709  53.899  0.00  0.00    -0.328 OA
ATOM     18  C   UNL d   1      45.334  36.164  54.439  0.00  0.00     0.181 C 
ENDBRANCH  13  17
ENDBRANCH   7   9
ENDBRANCH   1   6
BRANCH   3  19
ATOM     19  C   UNL d   1      50.829  34.680  52.962  0.00  0.00     0.082 C 
BRANCH  19  20
ATOM     20  C   UNL d   1      51.183  33.955  53.145  0.00  0.00     0.281 C 
ATOM     21  N   UNL d   1      51.973  33.935  53.372  0.00  0.00    -0.206 NA
ATOM     22  O   UNL d   1      50.740  33.264  53.098  0.00  0.00    -0.265 OA
BRANCH  21  23
ATOM     23  C   UNL d   1      52.323  33.217  53.553  0.00  0.00     0.104 C 
BRANCH  23  24
ATOM     24  C   UNL d   1      53.040  33.198  53.962  0.00  0.00     0.042 A 
ATOM     25  C   UNL d   1      53.500  32.509  53.956  0.00  0.00     0.096 A 
ATOM     26  C   UNL d   1      54.213  32.477  54.357  0.00  0.00     0.024 A 
ATOM     27  C   UNL d   1      54.478  33.137  54.773  0.00  0.00     0.002 A 
ATOM     28  C   UNL d   1      54.027  33.826  54.784  0.00  0.00     0.000 A 
ATOM     29  C   UNL d   1      53.309  33.859  54.380  0.00  0.00     0.004 A 
BRANCH  25  30
ATOM     30  O   UNL d   1      53.239  31.837  53.538  0.00  0.00    -0.328 OA
ATOM     31  C   UNL d   1      53.623  31.110  53.625  0.00  0.00     0.181 C 
ENDBRANCH  25  30
ENDBRANCH  23  24
ENDBRANCH  21  23
ENDBRANCH  19  20
ENDBRANCH   3  19
TORSDOF 9
ENDMDL
MODEL 6
REMARK VINA RESULT:      -6.5      1.068      1.998
REMARK  9 active torsions:
REMARK  status: ('A' for Active; 'I' for Inactive)
REMARK    1  A    between atoms: N_2  and  C_1 
REMARK       I    between atoms: C_4  and  N_2 
REMARK    2  A    between atoms: C_7  and  C_4 
REMARK    3  A    between atoms: C_8  and  C_5 
REMARK    4  A    between atoms: C_10  and  C_8 
REMARK       I    between atoms: N_12  and  C_10 
REMARK    5  A    between atoms: C_11  and  C_19 
REMARK    6  A    between atoms: C_19  and  N_12 
REMARK    7  A    between atoms: O_23  and  C_17 
REMARK    8  A    between atoms: O_24  and  C_18 
REMARK    9  A    between atoms: O_22  and  C_20 
ROOT
ATOM      1  C   UNL d   1      49.624  34.385  52.040  0.00  0.00     0.197 A 
ATOM      2  N   UNL d   1      49.042  34.933  52.280  0.00  0.00    -0.220 NA
ATOM      3  C   UNL d   1      48.543  35.072  51.645  0.00  0.00     0.095 A 
ATOM      4  S   UNL d   1      49.468  34.197  51.253  0.00  0.00    -0.046 SA
ATOM      5  C   UNL d   1      48.805  34.618  51.008  0.00  0.00     0.058 A 
ENDROOT
BRANCH   1   6
ATOM      6  N   UNL d   1      50.231  34.098  52.510  0.00  0.00    -0.183 NA
ATOM      7  C   UNL d   1      51.012  34.180  52.285  0.00  0.00     0.281 C 
ATOM      8  O   UNL d   1      51.206  34.560  51.572  0.00  0.00    -0.265 OA
BRANCH   7   9
ATOM      9  C   UNL d   1      51.627  33.891  52.756  0.00  0.00     0.062 A 
ATOM     10  C   UNL d   1      51.869  34.294  53.418  0.00  0.00     0.029 A 
ATOM     11  C   UNL d   1      52.480  34.001  53.882  0.00  0.00     0.096 A 
ATOM     12  C   UNL d   1      52.850  33.290  53.674  0.00  0.00     0.048 A 
ATOM     13  C   UNL d   1      52.599  32.891  53.005  0.00  0.00     0.096 A 
ATOM     14  C   UNL d   1      51.991  33.177  52.538  0.00  0.00     0.029 A 
BRANCH  11  15
ATOM     15  O   UNL d   1      52.725  34.408  54.551  0.00  0.00    -0.328 OA
ATOM     16  C   UNL d   1      53.148  35.120  54.474  0.00  0.00     0.181 C 
ENDBRANCH  11  15
BRANCH  13  17
ATOM     17  O   UNL d   1      52.963  32.177  52.785  0.00  0.00    -0.328 OA
ATOM     18  C   UNL d   1      52.733  31.469  53.140  0.00  0.00     0.181 C 
ENDBRANCH  13  17
ENDBRANCH   7   9
ENDBRANCH   1   6
BRANCH   3  19
ATOM     19  C   UNL d   1      47.891  35.578  51.640  0.00  0.00     0.082 C 
BRANCH  19  20
ATOM     20  C   UNL d   1      47.640  35.936  52.343  0.00  0.00     0.281 C 
ATOM     21  N   UNL d   1      46.902  35.748  52.653  0.00  0.00    -0.206 NA
ATOM     22  O   UNL d   1      48.132  36.475  52.722  0.00  0.00    -0.265 OA
BRANCH  21  23
ATOM     23  C   UNL d   1      46.654  36.102  53.348  0.00  0.00     0.104 C 
BRANCH  23  24
ATOM     24  C   UNL d   1      45.921  35.905  53.674  0.00  0.00     0.042 A 
ATOM     25  C   UNL d   1      45.731  36.154  54.441  0.00  0.00     0.096 A 
ATOM     26  C   UNL d   1      45.008  35.965  54.776  0.00  0.00     0.024 A 
ATOM     27  C   UNL d   1      44.461  35.523  54.347  0.00  0.00     0.002 A 
ATOM     28  C   UNL d   1      44.643  35.272  53.584  0.00  0.00     0.000 A 
ATOM     29  C   UNL d   1      45.370  35.461  53.246  0.00  0.00     0.004 A 
BRANCH  25  30
ATOM     30  O   UNL d   1      46.279  36.602  54.882  0.00  0.00    -0.328 OA
ATOM     31  C   UNL d   1      46.178  36.709  55.696  0.00  0.00     0.181 C 
ENDBRANCH  25  30
ENDBRANCH  23  24
ENDBRANCH  21  23
ENDBRANCH  19  20
ENDBRANCH   3  19
TORSDOF 9
ENDMDL
MODEL 7
REMARK VINA RESULT:      -4.8      9.246     11.241
REMARK  9 active torsions:
REMARK  status: ('A' for Active; 'I' for Inactive)
REMARK    1  A    between atoms: N_2  and  C_1 
REMARK       I    between atoms: C_4  and  N_2 
REMARK    2  A    between atoms: C_7  and  C_4 
REMARK    3  A    between atoms: C_8  and  C_5 
REMARK    4  A    between atoms: C_10  and  C_8 
REMARK       I    between atoms: N_12  and  C_10 
REMARK    5  A    between atoms: C_11  and  C_19 
REMARK    6  A    between atoms: C_19  and  N_12 
REMARK    7  A    between atoms: O_23  and  C_17 
REMARK    8  A    between atoms: O_24  and  C_18 
REMARK    9  A    between atoms: O_22  and  C_20 
ROOT
ATOM      1  C   UNL d   1      44.867  27.839  57.654  0.00  0.00     0.197 A 
ATOM      2  N   UNL d   1      44.436  27.486  57.034  0.00  0.00    -0.220 NA
ATOM      3  C   UNL d   1      44.813  26.789  56.824  0.00  0.00     0.095 A 
ATOM      4  S   UNL d   1      45.507  27.347  57.814  0.00  0.00    -0.046 SA
ATOM      5  C   UNL d   1      45.476  26.701  57.305  0.00  0.00     0.058 A 
ENDROOT
BRANCH   1   6
ATOM      6  N   UNL d   1      44.677  28.545  58.026  0.00  0.00    -0.183 NA
ATOM      7  C   UNL d   1      44.954  29.259  57.739  0.00  0.00     0.281 C 
ATOM      8  O   UNL d   1      45.434  29.282  57.062  0.00  0.00    -0.265 OA
BRANCH   7   9
ATOM      9  C   UNL d   1      44.764  29.973  58.112  0.00  0.00     0.062 A 
ATOM     10  C   UNL d   1      44.707  30.662  57.686  0.00  0.00     0.029 A 
ATOM     11  C   UNL d   1      44.518  31.367  58.063  0.00  0.00     0.096 A 
ATOM     12  C   UNL d   1      44.385  31.375  58.880  0.00  0.00     0.048 A 
ATOM     13  C   UNL d   1      44.445  30.674  59.300  0.00  0.00     0.096 A 
ATOM     14  C   UNL d   1      44.633  29.968  58.932  0.00  0.00     0.029 A 
BRANCH  11  15
ATOM     15  O   UNL d   1      44.460  32.064  57.634  0.00  0.00    -0.328 OA
ATOM     16  C   UNL d   1      44.314  32.039  56.815  0.00  0.00     0.181 C 
ENDBRANCH  11  15
BRANCH  13  17
ATOM     17  O   UNL d   1      44.314  30.669  60.121  0.00  0.00    -0.328 OA
ATOM     18  C   UNL d   1      44.953  30.702  60.641  0.00  0.00     0.181 C 
ENDBRANCH  13  17
ENDBRANCH   7   9
ENDBRANCH   1   6
BRANCH   3  19
ATOM     19  C   UNL d   1      44.572  26.265  56.233  0.00  0.00     0.082 C 
BRANCH  19  20
ATOM     20  C   UNL d   1      44.581  25.449  56.375  0.00  0.00     0.281 C 
ATOM     21  N   UNL d   1      44.834  24.938  55.783  0.00  0.00    -0.206 NA
ATOM     22  O   UNL d   1      44.336  25.162  57.105  0.00  0.00    -0.265 OA
BRANCH  21  23
ATOM     23  C   UNL d   1      44.842  24.131  55.923  0.00  0.00     0.104 C 
BRANCH  23  24
ATOM     24  C   UNL d   1      44.965  23.604  55.299  0.00  0.00     0.042 A 
ATOM     25  C   UNL d   1      45.258  22.845  55.453  0.00  0.00     0.096 A 
ATOM     26  C   UNL d   1      45.384  22.313  54.843  0.00  0.00     0.024 A 
ATOM     27  C   UNL d   1      45.218  22.533  54.068  0.00  0.00     0.002 A 
ATOM     28  C   UNL d   1      44.926  23.286  53.906  0.00  0.00     0.000 A 
ATOM     29  C   UNL d   1      44.799  23.823  54.519  0.00  0.00     0.004 A 
BRANCH  25  30
ATOM     30  O   UNL d   1      45.428  22.614  56.236  0.00  0.00    -0.328 OA
ATOM     31  C   UNL d   1      45.738  21.864  56.397  0.00  0.00     0.181 C 
ENDBRANCH  25  30
ENDBRANCH  23  24
ENDBRANCH  21  23
ENDBRANCH  19  20
ENDBRANCH   3  19
TORSDOF 9
ENDMDL
