MODEL 1
REMARK VINA RESULT:      32.2      0.000      0.000
REMARK  3 active torsions:
REMARK  status: ('A' for Active; 'I' for Inactive)
REMARK    1  A    between atoms: S_10  and  C_3 
REMARK    2  A    between atoms: C_14  and  S_10 
REMARK    3  A    between atoms: C_16  and  C_14 
ROOT
ATOM      1  C   UNL d   1      57.888  49.707  51.307  0.00  0.00     0.155 A 
ATOM      2  C   UNL d   1      58.174  49.706  50.531  0.00  0.00     0.107 A 
ATOM      3  C   UNL d   1      59.508  49.706  51.029  0.00  0.00     0.182 A 
ATOM      4  N   UNL d   1      59.229  49.707  51.798  0.00  0.00    -0.250 N 
ATOM      5  N   UNL d   1      58.991  49.706  50.392  0.00  0.00    -0.220 NA
ATOM      6  C   UNL d   1      58.411  49.707  51.938  0.00  0.00     0.285 A 
ATOM      7  N   UNL d   1      57.066  49.707  51.278  0.00  0.00    -0.239 NA
ATOM      8  C   UNL d   1      57.532  49.706  50.019  0.00  0.00     0.037 A 
ATOM      9  C   UNL d   1      56.840  49.707  50.481  0.00  0.00     0.083 A 
ATOM     10  O   UNL d   1      58.133  49.708  52.719  0.00  0.00    -0.265 OA
ATOM     11  C   UNL d   1      59.759  49.707  52.435  0.00  0.00     0.104 C 
ATOM     12  C   UNL d   1      57.477  49.705  49.199  0.00  0.00     0.003 A 
ATOM     13  C   UNL d   1      56.098  49.707  50.116  0.00  0.00     0.019 A 
ATOM     14  C   UNL d   1      56.735  49.705  48.835  0.00  0.00     0.000 A 
ATOM     15  C   UNL d   1      56.052  49.706  49.292  0.00  0.00     0.002 A 
ENDROOT
BRANCH   3  16
ATOM     16  S   UNL d   1      60.322  49.706  50.894  0.00  0.00    -0.050 SA
BRANCH  16  17
ATOM     17  C   UNL d   1      60.635  49.301  50.247  0.00  0.00     0.032 C 
ATOM     18  C   UNL d   1      60.790  49.702  49.546  0.00  0.00     0.007 C 
BRANCH  17  19
ATOM     19  C   UNL d   1      60.791  48.494  50.311  0.00  0.00     0.007 C 
ATOM     20  C   UNL d   1      61.545  48.234  50.533  0.00  0.00     0.001 C 
ENDBRANCH  17  19
ENDBRANCH  16  17
ENDBRANCH   3  16
TORSDOF 3
ENDMDL
