MODEL 1
REMARK VINA RESULT:      14.6      0.000      0.000
REMARK  4 active torsions:
REMARK  status: ('A' for Active; 'I' for Inactive)
REMARK    1  A    between atoms: N_7  and  C_2 
REMARK    2  A    between atoms: C_5  and  C_10 
REMARK    3  A    between atoms: N_6  and  N_7 
REMARK    4  A    between atoms: C_10  and  N_6 
ROOT
ATOM      1  C   UNL d   1     -57.388 -98.757 -43.731  0.00  0.00     0.125 C 
ENDROOT
BRANCH   1   2
ATOM      2  C   UNL d   1     -58.209 -98.757 -43.895  0.00  0.00     0.060 A 
ATOM      3  C   UNL d   1     -58.755 -98.757 -43.269  0.00  0.00     0.197 A 
ATOM      4  C   UNL d   1     -59.572 -98.757 -43.436  0.00  0.00     0.043 A 
ATOM      5  O   UNL d   1     -58.511 -98.757 -42.484  0.00  0.00    -0.286 OA
ATOM      6  C   UNL d   1     -59.831 -98.757 -44.211  0.00  0.00     0.010 A 
ATOM      7  C   UNL d   1     -59.282 -98.757 -44.827  0.00  0.00     0.035 A 
ATOM      8  C   UNL d   1     -58.474 -98.757 -44.685  0.00  0.00     0.011 A 
ATOM      9 BR   UNL d   1     -59.542 -98.756 -45.632  0.00  0.00    -0.049 Br
ENDBRANCH   1   2
BRANCH   1  10
ATOM     10  N   UNL d   1     -56.820 -98.956 -44.323  0.00  0.00    -0.144 NA
BRANCH  10  11
ATOM     11  N   UNL d   1     -56.046 -99.064 -44.129  0.00  0.00    -0.121 NA
BRANCH  11  12
ATOM     12  C   UNL d   1     -55.668 -99.777 -44.316  0.00  0.00     0.217 A 
ATOM     13  N   UNL d   1     -55.859-100.544 -44.173  0.00  0.00    -0.181 NA
ATOM     14  C   UNL d   1     -55.282-100.999 -44.485  0.00  0.00     0.288 A 
ATOM     15  O   UNL d   1     -55.257-101.823 -44.464  0.00  0.00    -0.265 OA
ATOM     16  C   UNL d   1     -54.724-100.552 -44.826  0.00  0.00     0.101 A 
ATOM     17  S   UNL d   1     -54.947 -99.763 -44.731  0.00  0.00    -0.041 SA
ENDBRANCH  11  12
ENDBRANCH  10  11
ENDBRANCH   1  10
TORSDOF 4
ENDMDL
