MODEL 1
REMARK VINA RESULT:      14.4      0.000      0.000
REMARK  2 active torsions:
REMARK  status: ('A' for Active; 'I' for Inactive)
REMARK    1  A    between atoms: C_6  and  C_1 
REMARK    2  A    between atoms: O_12  and  C_9 
ROOT
ATOM      1  C   UNL d   1      14.280  12.337  -1.802  0.00  0.00     0.123 A 
ATOM      2  C   UNL d   1      14.372  13.148  -1.924  0.00  0.00     0.305 A 
ATOM      3  O   UNL d   1      14.079  13.491  -2.595  0.00  0.00    -0.271 OA
ATOM      4  C   UNL d   1      13.898  11.891  -2.355  0.00  0.00     0.012 A 
ATOM      5  C   UNL d   1      13.678  13.037  -3.181  0.00  0.00     0.125 A 
ATOM      6  C   UNL d   1      13.586  12.227  -3.059  0.00  0.00     0.025 A 
ATOM      7  O   UNL d   1      14.753  13.598  -1.374  0.00  0.00    -0.259 OA
ATOM      8  C   UNL d   1      13.375  13.379  -3.871  0.00  0.00     0.117 A 
ATOM      9  C   UNL d   1      13.194  11.779  -3.631  0.00  0.00     0.002 A 
ATOM     10  C   UNL d   1      12.888  12.116  -4.323  0.00  0.00     0.002 A 
ATOM     11  C   UNL d   1      12.980  12.926  -4.445  0.00  0.00     0.026 A 
ENDROOT
BRANCH   1  12
ATOM     12  C   UNL d   1      14.569  11.968  -1.129  0.00  0.00     0.302 C 
ATOM     13  O   UNL d   1      15.391  11.779  -1.054  0.00  0.00    -0.263 OA
ATOM     14  N   UNL d   1      14.031  11.787  -0.526  0.00  0.00    -0.102 N 
ENDBRANCH   1  12
BRANCH   8  15
ATOM     15  O   UNL d   1      13.465  14.181  -3.992  0.00  0.00    -0.326 OA
ATOM     16  C   UNL d   1      12.998  14.569  -4.527  0.00  0.00     0.181 C 
ENDBRANCH   8  15
TORSDOF 2
ENDMDL
MODEL 2
REMARK VINA RESULT:      15.4      1.508      3.105
REMARK  2 active torsions:
REMARK  status: ('A' for Active; 'I' for Inactive)
REMARK    1  A    between atoms: C_6  and  C_1 
REMARK    2  A    between atoms: O_12  and  C_9 
ROOT
ATOM      1  C   UNL d   1      13.509  12.545  -3.097  0.00  0.00     0.123 A 
ATOM      2  C   UNL d   1      14.216  12.959  -2.998  0.00  0.00     0.305 A 
ATOM      3  O   UNL d   1      14.574  12.979  -2.274  0.00  0.00    -0.271 OA
ATOM      4  C   UNL d   1      13.180  12.162  -2.469  0.00  0.00     0.012 A 
ATOM      5  C   UNL d   1      14.242  12.582  -1.608  0.00  0.00     0.125 A 
ATOM      6  C   UNL d   1      13.535  12.168  -1.707  0.00  0.00     0.025 A 
ATOM      7  O   UNL d   1      14.549  13.345  -3.624  0.00  0.00    -0.259 OA
ATOM      8  C   UNL d   1      14.601  12.596  -0.863  0.00  0.00     0.117 A 
ATOM      9  C   UNL d   1      13.206  11.779  -1.058  0.00  0.00     0.002 A 
ATOM     10  C   UNL d   1      13.561  11.789  -0.310  0.00  0.00     0.002 A 
ATOM     11  C   UNL d   1      14.268  12.203  -0.211  0.00  0.00     0.026 A 
ENDROOT
BRANCH   1  12
ATOM     12  C   UNL d   1      13.128  12.513  -3.823  0.00  0.00     0.302 C 
ATOM     13  O   UNL d   1      13.067  11.784  -4.251  0.00  0.00    -0.263 OA
ATOM     14  N   UNL d   1      12.806  13.214  -4.122  0.00  0.00    -0.102 N 
ENDBRANCH   1  12
BRANCH   8  15
ATOM     15  O   UNL d   1      15.300  13.005  -0.765  0.00  0.00    -0.326 OA
ATOM     16  C   UNL d   1      15.508  13.288  -0.036  0.00  0.00     0.181 C 
ENDBRANCH   8  15
TORSDOF 2
ENDMDL
