MODEL 1
REMARK VINA RESULT:      61.8      0.000      0.000
REMARK  1 active torsions:
REMARK  status: ('A' for Active; 'I' for Inactive)
REMARK    1  A    between atoms: C_7  and  C_1 
ROOT
ATOM      1  C   UNL d   1      13.773  13.990  -3.536  0.00  0.00     0.062 A 
ATOM      2  C   UNL d   1      14.154  14.716  -3.589  0.00  0.00     0.202 A 
ATOM      3  C   UNL d   1      13.976  15.255  -4.174  0.00  0.00     0.101 A 
ATOM      4  C   UNL d   1      13.185  13.800  -4.100  0.00  0.00     0.103 A 
ATOM      5  C   UNL d   1      13.389  15.065  -4.738  0.00  0.00     0.109 A 
ATOM      6  O   UNL d   1      12.994  14.341  -4.702  0.00  0.00    -0.307 OA
ATOM      7  C   UNL d   1      14.354  15.959  -4.216  0.00  0.00     0.204 A 
ATOM      8  C   UNL d   1      13.194  15.584  -5.329  0.00  0.00     0.067 A 
ATOM      9  C   UNL d   1      14.177  16.501  -4.802  0.00  0.00     0.084 A 
ATOM     10  O   UNL d   1      14.738  14.904  -3.028  0.00  0.00    -0.286 OA
ATOM     11  C   UNL d   1      13.590  16.311  -5.366  0.00  0.00     0.201 A 
ATOM     12  O   UNL d   1      14.938  16.148  -3.655  0.00  0.00    -0.286 OA
ATOM     13  C   UNL d   1      12.790  13.073  -4.062  0.00  0.00     0.027 C 
ATOM     14  O   UNL d   1      13.397  16.845  -5.966  0.00  0.00    -0.286 OA
ENDROOT
BRANCH   1  15
ATOM     15  C   UNL d   1      13.964  13.452  -2.935  0.00  0.00     0.007 A 
ATOM     16  C   UNL d   1      14.205  13.738  -2.216  0.00  0.00     0.027 A 
ATOM     17  C   UNL d   1      14.395  13.201  -1.621  0.00  0.00     0.123 A 
ATOM     18  O   UNL d   1      14.624  13.597  -0.943  0.00  0.00    -0.303 OA
ATOM     19  C   UNL d   1      14.339  12.403  -1.755  0.00  0.00     0.123 A 
ATOM     20  C   UNL d   1      14.856  13.284  -0.230  0.00  0.00     0.125 A 
ATOM     21  C   UNL d   1      14.915  12.492  -0.016  0.00  0.00     0.053 A 
ATOM     22  C   UNL d   1      14.754  11.819  -0.476  0.00  0.00     0.125 A 
ATOM     23  O   UNL d   1      14.498  11.782  -1.248  0.00  0.00    -0.303 OA
ATOM     24  C   UNL d   1      14.093  12.119  -2.489  0.00  0.00     0.027 A 
ATOM     25  C   UNL d   1      13.902  12.658  -3.089  0.00  0.00     0.002 A 
ENDBRANCH   1  15
TORSDOF 1
ENDMDL
MODEL 2
REMARK VINA RESULT:      62.3      0.750      4.327
REMARK  1 active torsions:
REMARK  status: ('A' for Active; 'I' for Inactive)
REMARK    1  A    between atoms: C_7  and  C_1 
ROOT
ATOM      1  C   UNL d   1      13.806  13.459  -3.170  0.00  0.00     0.062 A 
ATOM      2  C   UNL d   1      14.216  13.747  -2.519  0.00  0.00     0.202 A 
ATOM      3  C   UNL d   1      14.417  13.270  -1.890  0.00  0.00     0.101 A 
ATOM      4  C   UNL d   1      13.590  12.652  -3.186  0.00  0.00     0.103 A 
ATOM      5  C   UNL d   1      14.200  12.463  -1.905  0.00  0.00     0.109 A 
ATOM      6  O   UNL d   1      13.788  12.153  -2.550  0.00  0.00    -0.307 OA
ATOM      7  C   UNL d   1      14.817  13.562  -1.261  0.00  0.00     0.204 A 
ATOM      8  C   UNL d   1      14.389  11.968  -1.291  0.00  0.00     0.067 A 
ATOM      9  C   UNL d   1      15.019  13.084  -0.628  0.00  0.00     0.084 A 
ATOM     10  O   UNL d   1      14.432  14.550  -2.504  0.00  0.00    -0.286 OA
ATOM     11  C   UNL d   1      14.802  12.277  -0.644  0.00  0.00     0.201 A 
ATOM     12  O   UNL d   1      15.032  14.364  -1.245  0.00  0.00    -0.286 OA
ATOM     13  C   UNL d   1      13.175  12.342  -3.834  0.00  0.00     0.027 C 
ATOM     14  O   UNL d   1      14.998  11.779  -0.015  0.00  0.00    -0.286 OA
ENDROOT
BRANCH   1  15
ATOM     15  C   UNL d   1      13.609  13.956  -3.803  0.00  0.00     0.007 A 
ATOM     16  C   UNL d   1      14.064  14.612  -3.941  0.00  0.00     0.027 A 
ATOM     17  C   UNL d   1      13.865  15.105  -4.571  0.00  0.00     0.123 A 
ATOM     18  O   UNL d   1      14.387  15.733  -4.617  0.00  0.00    -0.303 OA
ATOM     19  C   UNL d   1      13.227  14.934  -5.041  0.00  0.00     0.123 A 
ATOM     20  C   UNL d   1      14.395  16.345  -5.151  0.00  0.00     0.125 A 
ATOM     21  C   UNL d   1      13.879  16.482  -5.777  0.00  0.00     0.053 A 
ATOM     22  C   UNL d   1      13.224  16.030  -6.014  0.00  0.00     0.125 A 
ATOM     23  O   UNL d   1      12.936  15.342  -5.686  0.00  0.00    -0.303 OA
ATOM     24  C   UNL d   1      12.768  14.264  -4.895  0.00  0.00     0.027 A 
ATOM     25  C   UNL d   1      12.967  13.767  -4.262  0.00  0.00     0.002 A 
ENDBRANCH   1  15
TORSDOF 1
ENDMDL
