MODEL 1
REMARK VINA RESULT:      -2.5      0.000      0.000
REMARK  5 active torsions:
REMARK  status: ('A' for Active; 'I' for Inactive)
REMARK    1  A    between atoms: C_10  and  N_4 
REMARK    2  A    between atoms: C_12  and  C_10 
REMARK    3  A    between atoms: N_13  and  C_12 
REMARK    4  A    between atoms: C_19  and  N_13 
REMARK    5  A    between atoms: C_20  and  N_13 
ROOT
ATOM      1  C   UNL d   1      33.206  19.686 -22.769  0.00  0.00     0.102 A 
ATOM      2  N   UNL d   1      33.208  20.129 -22.081  0.00  0.00    -0.163 NA
ATOM      3  C   UNL d   1      33.213  20.051 -23.508  0.00  0.00     0.024 A 
ATOM      4  N   UNL d   1      33.222  21.231 -22.339  0.00  0.00    -0.192 N 
ATOM      5  C   UNL d   1      33.227  21.435 -23.131  0.00  0.00     0.280 A 
ATOM      6  C   UNL d   1      33.222  20.844 -23.716  0.00  0.00     0.059 A 
ATOM      7  C   UNL d   1      33.208  19.469 -24.084  0.00  0.00     0.002 A 
ATOM      8  C   UNL d   1      33.197  18.870 -22.896  0.00  0.00     0.019 A 
ATOM      9  C   UNL d   1      33.198  18.736 -23.710  0.00  0.00     0.002 A 
ATOM     10  O   UNL d   1      33.237  22.236 -23.349  0.00  0.00    -0.265 OA
ATOM     11  C   UNL d   1      33.228  21.053 -24.520  0.00  0.00     0.005 A 
ATOM     12  C   UNL d   1      33.213  19.669 -24.879  0.00  0.00     0.000 A 
ATOM     13  C   UNL d   1      33.188  18.231 -22.375  0.00  0.00     0.002 A 
ATOM     14  C   UNL d   1      33.190  17.961 -23.997  0.00  0.00     0.000 A 
ATOM     15  C   UNL d   1      33.223  20.472 -25.097  0.00  0.00     0.000 A 
ATOM     16  C   UNL d   1      33.180  17.457 -22.663  0.00  0.00     0.000 A 
ATOM     17  C   UNL d   1      33.181  17.322 -23.477  0.00  0.00     0.000 A 
ENDROOT
BRANCH   4  18
ATOM     18  C   UNL d   1      33.229  21.937 -21.906  0.00  0.00     0.123 C 
BRANCH  18  19
ATOM     19  C   UNL d   1      33.064  21.926 -21.092  0.00  0.00     0.101 C 
BRANCH  19  20
ATOM     20  N   UNL d   1      32.718  22.587 -20.730  0.00  0.00    -0.301 N 
BRANCH  20  21
ATOM     21  C   UNL d   1      33.111  22.988 -20.134  0.00  0.00     0.080 C 
ATOM     22  C   UNL d   1      33.180  22.659 -19.381  0.00  0.00     0.021 C 
ENDBRANCH  20  21
BRANCH  20  23
ATOM     23  C   UNL d   1      31.969  22.838 -20.977  0.00  0.00     0.080 C 
ATOM     24  C   UNL d   1      31.708  23.595 -20.787  0.00  0.00     0.021 C 
ENDBRANCH  20  23
ENDBRANCH  19  20
ENDBRANCH  18  19
ENDBRANCH   4  18
TORSDOF 5
ENDMDL
MODEL 2
REMARK VINA RESULT:      -2.4      1.557      4.713
REMARK  5 active torsions:
REMARK  status: ('A' for Active; 'I' for Inactive)
REMARK    1  A    between atoms: C_10  and  N_4 
REMARK    2  A    between atoms: C_12  and  C_10 
REMARK    3  A    between atoms: N_13  and  C_12 
REMARK    4  A    between atoms: C_19  and  N_13 
REMARK    5  A    between atoms: C_20  and  N_13 
ROOT
ATOM      1  C   UNL d   1      33.218  21.251 -22.811  0.00  0.00     0.102 A 
ATOM      2  N   UNL d   1      33.218  20.752 -23.460  0.00  0.00    -0.163 NA
ATOM      3  C   UNL d   1      33.224  20.948 -22.044  0.00  0.00     0.024 A 
ATOM      4  N   UNL d   1      33.229  19.676 -23.112  0.00  0.00    -0.192 N 
ATOM      5  C   UNL d   1      33.234  19.537 -22.306  0.00  0.00     0.280 A 
ATOM      6  C   UNL d   1      33.231  20.175 -21.771  0.00  0.00     0.059 A 
ATOM      7  C   UNL d   1      33.221  21.575 -21.518  0.00  0.00     0.002 A 
ATOM      8  C   UNL d   1      33.211  22.074 -22.752  0.00  0.00     0.019 A 
ATOM      9  C   UNL d   1      33.214  22.275 -21.951  0.00  0.00     0.002 A 
ATOM     10  O   UNL d   1      33.241  18.757 -22.023  0.00  0.00    -0.265 OA
ATOM     11  C   UNL d   1      33.236  20.032 -20.953  0.00  0.00     0.005 A 
ATOM     12  C   UNL d   1      33.226  21.441 -20.709  0.00  0.00     0.000 A 
ATOM     13  C   UNL d   1      33.204  22.669 -23.323  0.00  0.00     0.002 A 
ATOM     14  C   UNL d   1      33.209  23.071 -21.728  0.00  0.00     0.000 A 
ATOM     15  C   UNL d   1      33.234  20.659 -20.426  0.00  0.00     0.000 A 
ATOM     16  C   UNL d   1      33.199  23.463 -23.100  0.00  0.00     0.000 A 
ATOM     17  C   UNL d   1      33.201  23.665 -22.300  0.00  0.00     0.000 A 
ENDROOT
BRANCH   4  18
ATOM     18  C   UNL d   1      33.233  18.936 -23.486  0.00  0.00     0.123 C 
BRANCH  18  19
ATOM     19  C   UNL d   1      32.779  18.815 -24.171  0.00  0.00     0.101 C 
BRANCH  19  20
ATOM     20  N   UNL d   1      32.559  18.047 -24.391  0.00  0.00    -0.301 N 
BRANCH  20  21
ATOM     21  C   UNL d   1      31.783  17.796 -24.309  0.00  0.00     0.080 C 
ATOM     22  C   UNL d   1      31.254  17.854 -24.939  0.00  0.00     0.021 C 
ENDBRANCH  20  21
BRANCH  20  23
ATOM     23  C   UNL d   1      33.131  17.533 -24.697  0.00  0.00     0.080 C 
ATOM     24  C   UNL d   1      32.914  16.779 -24.943  0.00  0.00     0.021 C 
ENDBRANCH  20  23
ENDBRANCH  19  20
ENDBRANCH  18  19
ENDBRANCH   4  18
TORSDOF 5
ENDMDL
MODEL 3
REMARK VINA RESULT:      -2.3      2.923      4.251
REMARK  5 active torsions:
REMARK  status: ('A' for Active; 'I' for Inactive)
REMARK    1  A    between atoms: C_10  and  N_4 
REMARK    2  A    between atoms: C_12  and  C_10 
REMARK    3  A    between atoms: N_13  and  C_12 
REMARK    4  A    between atoms: C_19  and  N_13 
REMARK    5  A    between atoms: C_20  and  N_13 
ROOT
ATOM      1  C   UNL d   1      30.623  17.245 -24.017  0.00  0.00     0.102 A 
ATOM      2  N   UNL d   1      30.887  17.931 -23.656  0.00  0.00    -0.163 NA
ATOM      3  C   UNL d   1      31.155  16.707 -24.345  0.00  0.00     0.024 A 
ATOM      4  N   UNL d   1      32.017  17.972 -23.701  0.00  0.00    -0.192 N 
ATOM      5  C   UNL d   1      32.405  17.352 -24.065  0.00  0.00     0.280 A 
ATOM      6  C   UNL d   1      31.973  16.718 -24.388  0.00  0.00     0.059 A 
ATOM      7  C   UNL d   1      30.729  16.083 -24.663  0.00  0.00     0.002 A 
ATOM      8  C   UNL d   1      29.863  16.946 -24.136  0.00  0.00     0.019 A 
ATOM      9  C   UNL d   1      29.929  16.227 -24.536  0.00  0.00     0.002 A 
ATOM     10  O   UNL d   1      33.235  17.356 -24.112  0.00  0.00    -0.265 OA
ATOM     11  C   UNL d   1      32.370  16.088 -24.758  0.00  0.00     0.005 A 
ATOM     12  C   UNL d   1      31.115  15.459 -25.029  0.00  0.00     0.000 A 
ATOM     13  C   UNL d   1      29.118  17.235 -23.933  0.00  0.00     0.002 A 
ATOM     14  C   UNL d   1      29.247  15.802 -24.729  0.00  0.00     0.000 A 
ATOM     15  C   UNL d   1      31.945  15.465 -25.076  0.00  0.00     0.000 A 
ATOM     16  C   UNL d   1      28.437  16.810 -24.126  0.00  0.00     0.000 A 
ATOM     17  C   UNL d   1      28.502  16.091 -24.525  0.00  0.00     0.000 A 
ENDROOT
BRANCH   4  18
ATOM     18  C   UNL d   1      32.598  18.504 -23.443  0.00  0.00     0.123 C 
BRANCH  18  19
ATOM     19  C   UNL d   1      32.375  19.235 -23.118  0.00  0.00     0.101 C 
BRANCH  19  20
ATOM     20  N   UNL d   1      32.954  19.753 -22.829  0.00  0.00    -0.301 N 
BRANCH  20  21
ATOM     21  C   UNL d   1      33.241  20.360 -23.299  0.00  0.00     0.080 C 
ATOM     22  C   UNL d   1      33.145  21.147 -23.072  0.00  0.00     0.021 C 
ENDBRANCH  20  21
BRANCH  20  23
ATOM     23  C   UNL d   1      33.240  19.653 -22.059  0.00  0.00     0.080 C 
ATOM     24  C   UNL d   1      32.958  20.132 -21.452  0.00  0.00     0.021 C 
ENDBRANCH  20  23
ENDBRANCH  19  20
ENDBRANCH  18  19
ENDBRANCH   4  18
TORSDOF 5
ENDMDL
MODEL 4
REMARK VINA RESULT:      -1.4      1.161      2.088
REMARK  5 active torsions:
REMARK  status: ('A' for Active; 'I' for Inactive)
REMARK    1  A    between atoms: C_10  and  N_4 
REMARK    2  A    between atoms: C_12  and  C_10 
REMARK    3  A    between atoms: N_13  and  C_12 
REMARK    4  A    between atoms: C_19  and  N_13 
REMARK    5  A    between atoms: C_20  and  N_13 
ROOT
ATOM      1  C   UNL d   1      33.000  20.993 -21.688  0.00  0.00     0.102 A 
ATOM      2  N   UNL d   1      32.905  21.230 -20.911  0.00  0.00    -0.163 NA
ATOM      3  C   UNL d   1      33.070  21.547 -22.295  0.00  0.00     0.024 A 
ATOM      4  N   UNL d   1      32.893  22.361 -20.858  0.00  0.00    -0.192 N 
ATOM      5  C   UNL d   1      32.975  22.774 -21.558  0.00  0.00     0.280 A 
ATOM      6  C   UNL d   1      33.063  22.367 -22.278  0.00  0.00     0.059 A 
ATOM      7  C   UNL d   1      33.157  21.146 -23.004  0.00  0.00     0.002 A 
ATOM      8  C   UNL d   1      33.045  20.243 -22.032  0.00  0.00     0.019 A 
ATOM      9  C   UNL d   1      33.142  20.338 -22.845  0.00  0.00     0.002 A 
ATOM     10  O   UNL d   1      32.969  23.605 -21.549  0.00  0.00    -0.265 OA
ATOM     11  C   UNL d   1      33.147  22.789 -22.989  0.00  0.00     0.005 A 
ATOM     12  C   UNL d   1      33.240  21.557 -23.708  0.00  0.00     0.000 A 
ATOM     13  C   UNL d   1      33.010  19.485 -21.708  0.00  0.00     0.002 A 
ATOM     14  C   UNL d   1      33.204  19.672 -23.331  0.00  0.00     0.000 A 
ATOM     15  C   UNL d   1      33.234  22.388 -23.698  0.00  0.00     0.000 A 
ATOM     16  C   UNL d   1      33.072  18.821 -22.193  0.00  0.00     0.000 A 
ATOM     17  C   UNL d   1      33.169  18.914 -23.007  0.00  0.00     0.000 A 
ENDROOT
BRANCH   4  18
ATOM     18  C   UNL d   1      32.817  22.921 -20.252  0.00  0.00     0.123 C 
BRANCH  18  19
ATOM     19  C   UNL d   1      33.092  22.746 -19.488  0.00  0.00     0.101 C 
BRANCH  19  20
ATOM     20  N   UNL d   1      32.827  23.190 -18.841  0.00  0.00    -0.301 N 
BRANCH  20  21
ATOM     21  C   UNL d   1      32.163  23.666 -18.906  0.00  0.00     0.080 C 
ATOM     22  C   UNL d   1      31.567  23.635 -18.338  0.00  0.00     0.021 C 
ENDBRANCH  20  21
BRANCH  20  23
ATOM     23  C   UNL d   1      33.240  23.149 -18.125  0.00  0.00     0.080 C 
ATOM     24  C   UNL d   1      33.122  22.510 -17.620  0.00  0.00     0.021 C 
ENDBRANCH  20  23
ENDBRANCH  19  20
ENDBRANCH  18  19
ENDBRANCH   4  18
TORSDOF 5
ENDMDL
MODEL 5
REMARK VINA RESULT:      -1.1      1.806      3.312
REMARK  5 active torsions:
REMARK  status: ('A' for Active; 'I' for Inactive)
REMARK    1  A    between atoms: C_10  and  N_4 
REMARK    2  A    between atoms: C_12  and  C_10 
REMARK    3  A    between atoms: N_13  and  C_12 
REMARK    4  A    between atoms: C_19  and  N_13 
REMARK    5  A    between atoms: C_20  and  N_13 
ROOT
ATOM      1  C   UNL d   1      33.140  22.426 -22.049  0.00  0.00     0.102 A 
ATOM      2  N   UNL d   1      33.129  22.910 -21.389  0.00  0.00    -0.163 NA
ATOM      3  C   UNL d   1      33.160  21.605 -21.972  0.00  0.00     0.024 A 
ATOM      4  N   UNL d   1      33.146  22.275 -20.452  0.00  0.00    -0.192 N 
ATOM      5  C   UNL d   1      33.166  21.463 -20.544  0.00  0.00     0.280 A 
ATOM      6  C   UNL d   1      33.173  21.128 -21.306  0.00  0.00     0.059 A 
ATOM      7  C   UNL d   1      33.167  21.275 -22.721  0.00  0.00     0.002 A 
ATOM      8  C   UNL d   1      33.135  22.599 -22.856  0.00  0.00     0.019 A 
ATOM      9  C   UNL d   1      33.152  21.887 -23.272  0.00  0.00     0.002 A 
ATOM     10  O   UNL d   1      33.179  20.973 -19.874  0.00  0.00    -0.265 OA
ATOM     11  C   UNL d   1      33.193  20.302 -21.397  0.00  0.00     0.005 A 
ATOM     12  C   UNL d   1      33.187  20.461 -22.818  0.00  0.00     0.000 A 
ATOM     13  C   UNL d   1      33.117  23.314 -23.267  0.00  0.00     0.002 A 
ATOM     14  C   UNL d   1      33.150  21.895 -24.098  0.00  0.00     0.000 A 
ATOM     15  C   UNL d   1      33.200  19.972 -22.146  0.00  0.00     0.000 A 
ATOM     16  C   UNL d   1      33.115  23.321 -24.092  0.00  0.00     0.000 A 
ATOM     17  C   UNL d   1      33.132  22.610 -24.510  0.00  0.00     0.000 A 
ENDROOT
BRANCH   4  18
ATOM     18  C   UNL d   1      33.144  22.428 -19.637  0.00  0.00     0.123 C 
BRANCH  18  19
ATOM     19  C   UNL d   1      33.108  23.211 -19.362  0.00  0.00     0.101 C 
BRANCH  19  20
ATOM     20  N   UNL d   1      32.763  23.375 -18.627  0.00  0.00    -0.301 N 
BRANCH  20  21
ATOM     21  C   UNL d   1      31.956  23.508 -18.566  0.00  0.00     0.080 C 
ATOM     22  C   UNL d   1      31.616  23.702 -17.840  0.00  0.00     0.021 C 
ENDBRANCH  20  21
BRANCH  20  23
ATOM     23  C   UNL d   1      33.240  23.405 -17.952  0.00  0.00     0.080 C 
ATOM     24  C   UNL d   1      32.898  23.523 -17.213  0.00  0.00     0.021 C 
ENDBRANCH  20  23
ENDBRANCH  19  20
ENDBRANCH  18  19
ENDBRANCH   4  18
TORSDOF 5
ENDMDL
MODEL 6
REMARK VINA RESULT:      -0.4      1.021      2.047
REMARK  5 active torsions:
REMARK  status: ('A' for Active; 'I' for Inactive)
REMARK    1  A    between atoms: C_10  and  N_4 
REMARK    2  A    between atoms: C_12  and  C_10 
REMARK    3  A    between atoms: N_13  and  C_12 
REMARK    4  A    between atoms: C_19  and  N_13 
REMARK    5  A    between atoms: C_20  and  N_13 
ROOT
ATOM      1  C   UNL d   1      32.976  20.148 -22.948  0.00  0.00     0.102 A 
ATOM      2  N   UNL d   1      32.964  20.939 -22.736  0.00  0.00    -0.163 NA
ATOM      3  C   UNL d   1      33.062  19.558 -22.378  0.00  0.00     0.024 A 
ATOM      4  N   UNL d   1      33.079  21.033 -21.614  0.00  0.00    -0.192 N 
ATOM      5  C   UNL d   1      33.154  20.344 -21.181  0.00  0.00     0.280 A 
ATOM      6  C   UNL d   1      33.146  19.605 -21.564  0.00  0.00     0.059 A 
ATOM      7  C   UNL d   1      33.054  18.831 -22.755  0.00  0.00     0.002 A 
ATOM      8  C   UNL d   1      32.915  19.776 -23.682  0.00  0.00     0.019 A 
ATOM      9  C   UNL d   1      32.963  18.961 -23.563  0.00  0.00     0.002 A 
ATOM     10  O   UNL d   1      33.240  20.383 -20.356  0.00  0.00    -0.265 OA
ATOM     11  C   UNL d   1      33.223  18.905 -21.122  0.00  0.00     0.005 A 
ATOM     12  C   UNL d   1      33.129  18.137 -22.325  0.00  0.00     0.000 A 
ATOM     13  C   UNL d   1      32.821  20.074 -24.446  0.00  0.00     0.002 A 
ATOM     14  C   UNL d   1      32.917  18.449 -24.210  0.00  0.00     0.000 A 
ATOM     15  C   UNL d   1      33.215  18.178 -21.499  0.00  0.00     0.000 A 
ATOM     16  C   UNL d   1      32.775  19.562 -25.092  0.00  0.00     0.000 A 
ATOM     17  C   UNL d   1      32.823  18.747 -24.974  0.00  0.00     0.000 A 
ENDROOT
BRANCH   4  18
ATOM     18  C   UNL d   1      33.108  21.663 -21.076  0.00  0.00     0.123 C 
BRANCH  18  19
ATOM     19  C   UNL d   1      32.957  22.437 -21.335  0.00  0.00     0.101 C 
BRANCH  19  20
ATOM     20  N   UNL d   1      32.772  23.029 -20.785  0.00  0.00    -0.301 N 
BRANCH  20  21
ATOM     21  C   UNL d   1      33.000  22.954 -20.002  0.00  0.00     0.080 C 
ATOM     22  C   UNL d   1      33.167  23.623 -19.548  0.00  0.00     0.021 C 
ENDBRANCH  20  21
BRANCH  20  23
ATOM     23  C   UNL d   1      32.355  23.698 -21.035  0.00  0.00     0.080 C 
ATOM     24  C   UNL d   1      31.532  23.696 -21.022  0.00  0.00     0.021 C 
ENDBRANCH  20  23
ENDBRANCH  19  20
ENDBRANCH  18  19
ENDBRANCH   4  18
TORSDOF 5
ENDMDL
