MODEL 1
REMARK VINA RESULT:      11.3      0.000      0.000
REMARK  4 active torsions:
REMARK  status: ('A' for Active; 'I' for Inactive)
REMARK    1  A    between atoms: N_10  and  C_3 
REMARK    2  A    between atoms: C_14  and  C_5 
REMARK    3  A    between atoms: C_15  and  C_9 
REMARK       I    between atoms: C_11  and  N_12 
REMARK    4  A    between atoms: C_13  and  C_11 
ROOT
ATOM      1  N   UNL d   1      56.873  -0.121  32.493  0.00  0.00    -0.196 N 
ATOM      2  C   UNL d   1      56.519   0.048  33.251  0.00  0.00     0.167 A 
ATOM      3  C   UNL d   1      57.688  -0.085  32.426  0.00  0.00     0.152 A 
ATOM      4  N   UNL d   1      55.567  -0.344  31.948  0.00  0.00    -0.163 NA
ATOM      5  C   UNL d   1      55.702   0.018  33.346  0.00  0.00     0.055 A 
ATOM      6  N   UNL d   1      56.999   0.243  33.901  0.00  0.00    -0.231 NA
ATOM      7  C   UNL d   1      58.169   0.107  33.061  0.00  0.00     0.052 A 
ATOM      8  C   UNL d   1      55.220  -0.179  32.691  0.00  0.00     0.104 A 
ATOM      9  C   UNL d   1      57.820   0.273  33.808  0.00  0.00     0.063 A 
ATOM     10  C   UNL d   1      54.408  -0.209  32.783  0.00  0.00     0.023 C 
ENDROOT
BRANCH   3  11
ATOM     11  N   UNL d   1      58.051  -0.256  31.656  0.00  0.00    -0.286 N 
ATOM     12  C   UNL d   1      58.514  -0.867  31.369  0.00  0.00     0.101 A 
ATOM     13  C   UNL d   1      58.777  -0.866  30.589  0.00  0.00     0.102 A 
ATOM     14  N   UNL d   1      58.572  -0.241  30.096  0.00  0.00    -0.267 N 
ATOM     15  C   UNL d   1      58.826  -0.226  29.318  0.00  0.00     0.288 C 
ATOM     16  C   UNL d   1      58.111   0.370  30.379  0.00  0.00     0.102 A 
ATOM     17  O   UNL d   1      58.623   0.397  28.822  0.00  0.00    -0.264 OA
ATOM     18  C   UNL d   1      57.851   0.361  31.161  0.00  0.00     0.101 A 
BRANCH  15  19
ATOM     19  C   UNL d   1      59.289  -0.837  29.032  0.00  0.00     0.156 A 
ATOM     20  O   UNL d   1      60.109  -0.755  29.017  0.00  0.00    -0.300 OA
ATOM     21  C   UNL d   1      60.571  -1.368  28.730  0.00  0.00     0.123 A 
ATOM     22  C   UNL d   1      60.229  -2.052  28.462  0.00  0.00     0.029 A 
ATOM     23  C   UNL d   1      58.947  -1.521  28.764  0.00  0.00     0.032 A 
ENDBRANCH  15  19
ENDBRANCH   3  11
BRANCH   9  24
ATOM     24  C   UNL d   1      58.329   0.478  34.488  0.00  0.00     0.036 C 
ATOM     25  C   UNL d   1      58.830   0.681  35.165  0.00  0.00     0.006 C 
ATOM     26  C   UNL d   1      59.176   0.636  34.370  0.00  0.00     0.006 C 
ATOM     27  C   UNL d   1      57.986   0.525  35.284  0.00  0.00     0.006 C 
ENDBRANCH   9  24
BRANCH   5  28
ATOM     28  C   UNL d   1      55.359   0.182  34.082  0.00  0.00     0.004 A 
ATOM     29  C   UNL d   1      55.768   0.013  34.774  0.00  0.00     0.001 A 
ATOM     30  C   UNL d   1      55.420   0.179  35.518  0.00  0.00     0.011 A 
ATOM     31  C   UNL d   1      54.670   0.510  35.558  0.00  0.00     0.058 A 
ATOM     32  C   UNL d   1      54.257   0.680  34.848  0.00  0.00     0.011 A 
ATOM     33 CL   UNL d   1      54.311   0.681  36.330  0.00  0.00    -0.082 Cl
ATOM     34  C   UNL d   1      54.598   0.518  34.116  0.00  0.00     0.001 A 
ENDBRANCH   5  28
TORSDOF 4
ENDMDL
