MODEL 1
REMARK VINA RESULT:      -8.6      0.000      0.000
REMARK  4 active torsions:
REMARK  status: ('A' for Active; 'I' for Inactive)
REMARK    1  A    between atoms: C_10  and  N_1 
REMARK       I    between atoms: C_3  and  N_9 
REMARK    2  A    between atoms: C_6  and  C_3 
REMARK    3  A    between atoms: N_9  and  C_11 
REMARK    4  A    between atoms: C_11  and  C_10 
ROOT
ATOM      1  N   UNL d   1      53.740  32.978  53.929  0.00  0.00    -0.303 N 
ATOM      2  C   UNL d   1      54.107  32.816  54.653  0.00  0.00     0.080 A 
ATOM      3  C   UNL d   1      53.415  33.741  53.977  0.00  0.00     0.064 A 
ATOM      4  C   UNL d   1      54.010  33.472  55.142  0.00  0.00     0.021 A 
ATOM      5  C   UNL d   1      53.584  34.044  54.728  0.00  0.00     0.018 A 
ATOM      6  C   UNL d   1      52.993  34.184  53.429  0.00  0.00     0.018 A 
ATOM      7  C   UNL d   1      53.323  34.799  54.924  0.00  0.00     0.002 A 
ATOM      8  C   UNL d   1      52.732  34.940  53.625  0.00  0.00     0.002 A 
ATOM      9  C   UNL d   1      52.894  35.259  54.380  0.00  0.00     0.000 A 
ENDROOT
BRANCH   1  10
ATOM     10  C   UNL d   1      53.705  32.469  53.280  0.00  0.00     0.101 C 
BRANCH  10  11
ATOM     11  C   UNL d   1      53.431  31.698  53.376  0.00  0.00     0.121 C 
BRANCH  11  12
ATOM     12  N   UNL d   1      53.182  31.265  52.719  0.00  0.00    -0.209 NA
ATOM     13  C   UNL d   1      53.020  30.461  52.788  0.00  0.00     0.255 C 
ATOM     14  O   UNL d   1      52.772  30.028  52.131  0.00  0.00    -0.270 OA
BRANCH  13  15
ATOM     15  C   UNL d   1      53.107  30.085  53.523  0.00  0.00     0.073 C 
ATOM     16  C   UNL d   1      53.917  29.979  53.373  0.00  0.00     0.009 C 
ATOM     17  C   UNL d   1      53.188  29.713  54.252  0.00  0.00     0.009 C 
ATOM     18  C   UNL d   1      52.303  30.194  53.663  0.00  0.00     0.009 C 
ENDBRANCH  13  15
ENDBRANCH  11  12
ENDBRANCH  10  11
ENDBRANCH   1  10
TORSDOF 4
ENDMDL
MODEL 2
REMARK VINA RESULT:      -8.3      1.635      4.046
REMARK  4 active torsions:
REMARK  status: ('A' for Active; 'I' for Inactive)
REMARK    1  A    between atoms: C_10  and  N_1 
REMARK       I    between atoms: C_3  and  N_9 
REMARK    2  A    between atoms: C_6  and  C_3 
REMARK    3  A    between atoms: N_9  and  C_11 
REMARK    4  A    between atoms: C_11  and  C_10 
ROOT
ATOM      1  N   UNL d   1      53.600  31.655  53.309  0.00  0.00    -0.303 N 
ATOM      2  C   UNL d   1      52.994  32.007  52.868  0.00  0.00     0.080 A 
ATOM      3  C   UNL d   1      53.384  30.865  53.446  0.00  0.00     0.064 A 
ATOM      4  C   UNL d   1      52.412  31.441  52.735  0.00  0.00     0.021 A 
ATOM      5  C   UNL d   1      52.649  30.735  53.090  0.00  0.00     0.018 A 
ATOM      6  C   UNL d   1      53.770  30.261  53.848  0.00  0.00     0.018 A 
ATOM      7  C   UNL d   1      52.304  29.990  53.142  0.00  0.00     0.002 A 
ATOM      8  C   UNL d   1      53.425  29.516  53.900  0.00  0.00     0.002 A 
ATOM      9  C   UNL d   1      52.683  29.369  53.546  0.00  0.00     0.000 A 
ENDROOT
BRANCH   1  10
ATOM     10  C   UNL d   1      54.292  32.027  53.563  0.00  0.00     0.101 C 
BRANCH  10  11
ATOM     11  C   UNL d   1      54.246  32.722  54.004  0.00  0.00     0.121 C 
BRANCH  11  12
ATOM     12  N   UNL d   1      54.938  33.108  54.234  0.00  0.00    -0.209 NA
ATOM     13  C   UNL d   1      54.908  33.727  54.777  0.00  0.00     0.255 C 
ATOM     14  O   UNL d   1      55.600  34.113  55.008  0.00  0.00    -0.270 OA
BRANCH  13  15
ATOM     15  C   UNL d   1      54.178  33.961  55.094  0.00  0.00     0.073 C 
ATOM     16  C   UNL d   1      54.071  34.486  54.459  0.00  0.00     0.009 C 
ATOM     17  C   UNL d   1      53.454  34.190  55.411  0.00  0.00     0.009 C 
ATOM     18  C   UNL d   1      54.292  33.438  55.719  0.00  0.00     0.009 C 
ENDBRANCH  13  15
ENDBRANCH  11  12
ENDBRANCH  10  11
ENDBRANCH   1  10
TORSDOF 4
ENDMDL
MODEL 3
REMARK VINA RESULT:      -8.0      1.606      3.872
REMARK  4 active torsions:
REMARK  status: ('A' for Active; 'I' for Inactive)
REMARK    1  A    between atoms: C_10  and  N_1 
REMARK       I    between atoms: C_3  and  N_9 
REMARK    2  A    between atoms: C_6  and  C_3 
REMARK    3  A    between atoms: N_9  and  C_11 
REMARK    4  A    between atoms: C_11  and  C_10 
ROOT
ATOM      1  N   UNL d   1      53.126  31.753  53.140  0.00  0.00    -0.303 N 
ATOM      2  C   UNL d   1      53.717  32.061  53.632  0.00  0.00     0.080 A 
ATOM      3  C   UNL d   1      53.058  30.942  53.307  0.00  0.00     0.064 A 
ATOM      4  C   UNL d   1      54.009  31.447  54.096  0.00  0.00     0.021 A 
ATOM      5  C   UNL d   1      53.605  30.756  53.898  0.00  0.00     0.018 A 
ATOM      6  C   UNL d   1      52.566  30.365  52.991  0.00  0.00     0.018 A 
ATOM      7  C   UNL d   1      53.654  29.981  54.170  0.00  0.00     0.002 A 
ATOM      8  C   UNL d   1      52.616  29.590  53.263  0.00  0.00     0.002 A 
ATOM      9  C   UNL d   1      53.163  29.386  53.859  0.00  0.00     0.000 A 
ENDROOT
BRANCH   1  10
ATOM     10  C   UNL d   1      52.687  32.179  52.587  0.00  0.00     0.101 C 
BRANCH  10  11
ATOM     11  C   UNL d   1      52.387  32.922  52.783  0.00  0.00     0.121 C 
BRANCH  11  12
ATOM     12  N   UNL d   1      51.869  33.305  52.268  0.00  0.00    -0.209 NA
ATOM     13  C   UNL d   1      51.591  34.060  52.443  0.00  0.00     0.255 C 
ATOM     14  O   UNL d   1      51.073  34.444  51.928  0.00  0.00    -0.270 OA
BRANCH  13  15
ATOM     15  C   UNL d   1      51.834  34.436  53.142  0.00  0.00     0.073 C 
ATOM     16  C   UNL d   1      52.501  34.736  52.748  0.00  0.00     0.009 C 
ATOM     17  C   UNL d   1      52.071  34.807  53.836  0.00  0.00     0.009 C 
ATOM     18  C   UNL d   1      51.170  34.135  53.523  0.00  0.00     0.009 C 
ENDBRANCH  13  15
ENDBRANCH  11  12
ENDBRANCH  10  11
ENDBRANCH   1  10
TORSDOF 4
ENDMDL
MODEL 4
REMARK VINA RESULT:      -7.8      2.240      3.393
REMARK  4 active torsions:
REMARK  status: ('A' for Active; 'I' for Inactive)
REMARK    1  A    between atoms: C_10  and  N_1 
REMARK       I    between atoms: C_3  and  N_9 
REMARK    2  A    between atoms: C_6  and  C_3 
REMARK    3  A    between atoms: N_9  and  C_11 
REMARK    4  A    between atoms: C_11  and  C_10 
ROOT
ATOM      1  N   UNL d   1      52.291  34.503  53.110  0.00  0.00    -0.303 N 
ATOM      2  C   UNL d   1      52.621  34.402  52.357  0.00  0.00     0.080 A 
ATOM      3  C   UNL d   1      51.465  34.467  53.028  0.00  0.00     0.064 A 
ATOM      4  C   UNL d   1      52.007  34.305  51.818  0.00  0.00     0.021 A 
ATOM      5  C   UNL d   1      51.293  34.344  52.228  0.00  0.00     0.018 A 
ATOM      6  C   UNL d   1      50.863  34.530  53.583  0.00  0.00     0.018 A 
ATOM      7  C   UNL d   1      50.507  34.287  51.991  0.00  0.00     0.002 A 
ATOM      8  C   UNL d   1      50.077  34.473  53.346  0.00  0.00     0.002 A 
ATOM      9  C   UNL d   1      49.887  34.349  52.543  0.00  0.00     0.000 A 
ENDROOT
BRANCH   1  10
ATOM     10  C   UNL d   1      52.710  34.618  53.811  0.00  0.00     0.101 C 
BRANCH  10  11
ATOM     11  C   UNL d   1      53.327  34.108  54.009  0.00  0.00     0.121 C 
BRANCH  11  12
ATOM     12  N   UNL d   1      53.907  34.353  54.543  0.00  0.00    -0.209 NA
ATOM     13  C   UNL d   1      54.425  33.805  54.875  0.00  0.00     0.255 C 
ATOM     14  O   UNL d   1      55.004  34.050  55.409  0.00  0.00    -0.270 OA
BRANCH  13  15
ATOM     15  C   UNL d   1      54.362  33.003  54.670  0.00  0.00     0.073 C 
ATOM     16  C   UNL d   1      54.876  33.127  54.030  0.00  0.00     0.009 C 
ATOM     17  C   UNL d   1      54.297  32.208  54.471  0.00  0.00     0.009 C 
ATOM     18  C   UNL d   1      53.854  32.890  55.307  0.00  0.00     0.009 C 
ENDBRANCH  13  15
ENDBRANCH  11  12
ENDBRANCH  10  11
ENDBRANCH   1  10
TORSDOF 4
ENDMDL
MODEL 5
REMARK VINA RESULT:      -7.5      1.882      3.202
REMARK  4 active torsions:
REMARK  status: ('A' for Active; 'I' for Inactive)
REMARK    1  A    between atoms: C_10  and  N_1 
REMARK       I    between atoms: C_3  and  N_9 
REMARK    2  A    between atoms: C_6  and  C_3 
REMARK    3  A    between atoms: N_9  and  C_11 
REMARK    4  A    between atoms: C_11  and  C_10 
ROOT
ATOM      1  N   UNL d   1      53.394  32.967  53.532  0.00  0.00    -0.303 N 
ATOM      2  C   UNL d   1      53.318  32.145  53.596  0.00  0.00     0.080 A 
ATOM      3  C   UNL d   1      53.841  33.228  54.182  0.00  0.00     0.064 A 
ATOM      4  C   UNL d   1      53.713  31.903  54.277  0.00  0.00     0.021 A 
ATOM      5  C   UNL d   1      54.037  32.569  54.640  0.00  0.00     0.018 A 
ATOM      6  C   UNL d   1      54.086  33.982  54.401  0.00  0.00     0.018 A 
ATOM      7  C   UNL d   1      54.482  32.673  55.324  0.00  0.00     0.002 A 
ATOM      8  C   UNL d   1      54.531  34.086  55.084  0.00  0.00     0.002 A 
ATOM      9  C   UNL d   1      54.737  33.430  55.558  0.00  0.00     0.000 A 
ENDROOT
BRANCH   1  10
ATOM     10  C   UNL d   1      53.081  33.436  52.930  0.00  0.00     0.101 C 
BRANCH  10  11
ATOM     11  C   UNL d   1      52.264  33.510  52.849  0.00  0.00     0.121 C 
BRANCH  11  12
ATOM     12  N   UNL d   1      51.941  33.722  52.120  0.00  0.00    -0.209 NA
ATOM     13  C   UNL d   1      51.180  34.034  52.078  0.00  0.00     0.255 C 
ATOM     14  O   UNL d   1      50.856  34.246  51.349  0.00  0.00    -0.270 OA
BRANCH  13  15
ATOM     15  C   UNL d   1      50.737  34.135  52.773  0.00  0.00     0.073 C 
ATOM     16  C   UNL d   1      50.435  33.367  52.692  0.00  0.00     0.009 C 
ATOM     17  C   UNL d   1      50.301  34.240  53.462  0.00  0.00     0.009 C 
ATOM     18  C   UNL d   1      51.042  34.897  52.844  0.00  0.00     0.009 C 
ENDBRANCH  13  15
ENDBRANCH  11  12
ENDBRANCH  10  11
ENDBRANCH   1  10
TORSDOF 4
ENDMDL
