MODEL 1
REMARK VINA RESULT:      -3.6      0.000      0.000
REMARK  5 active torsions:
REMARK  status: ('A' for Active; 'I' for Inactive)
REMARK    1  A    between atoms: S_2  and  C_1 
REMARK    2  A    between atoms: C_8  and  S_2 
REMARK    3  A    between atoms: C_18  and  N_6 
REMARK    4  A    between atoms: O_22  and  C_16 
REMARK    5  A    between atoms: C_23  and  O_22 
ROOT
ATOM      1  C   UNL d   1      59.124  -1.480  29.456  0.00  0.00     0.144 A 
ATOM      2  C   UNL d   1      58.505  -1.459  29.996  0.00  0.00     0.209 A 
ATOM      3  C   UNL d   1      58.136  -0.757  30.195  0.00  0.00     0.058 A 
ATOM      4  C   UNL d   1      59.382  -0.766  29.103  0.00  0.00     0.095 A 
ATOM      5  N   UNL d   1      59.014  -0.051  29.300  0.00  0.00    -0.303 N 
ATOM      6  C   UNL d   1      58.394  -0.043  29.842  0.00  0.00     0.067 A 
ATOM      7  C   UNL d   1      58.029   0.670  30.036  0.00  0.00     0.020 A 
ATOM      8  C   UNL d   1      57.520  -0.738  30.733  0.00  0.00     0.029 A 
ATOM      9  O   UNL d   1      58.251  -2.162  30.343  0.00  0.00    -0.286 OA
ATOM     10  C   UNL d   1      57.145  -0.033  30.936  0.00  0.00     0.100 A 
ATOM     11  C   UNL d   1      57.403   0.682  30.583  0.00  0.00     0.026 A 
ENDROOT
BRANCH   1  12
ATOM     12  S   UNL d   1      59.499  -2.186  29.253  0.00  0.00     0.214 S 
ATOM     13  O   UNL d   1      58.948  -2.324  28.656  0.00  0.00    -0.217 OA
ATOM     14  O   UNL d   1      60.060  -2.051  29.856  0.00  0.00    -0.217 OA
BRANCH  12  15
ATOM     15  C   UNL d   1      59.883  -2.891  29.057  0.00  0.00     0.088 A 
ATOM     16  C   UNL d   1      60.689  -2.985  29.211  0.00  0.00     0.011 A 
ATOM     17  C   UNL d   1      61.074  -3.687  29.017  0.00  0.00     0.001 A 
ATOM     18  C   UNL d   1      60.654  -4.306  28.665  0.00  0.00     0.000 A 
ATOM     19  C   UNL d   1      59.848  -4.216  28.509  0.00  0.00     0.001 A 
ATOM     20  C   UNL d   1      61.038  -5.016  28.468  0.00  0.00     0.000 C 
ATOM     21  C   UNL d   1      59.463  -3.514  28.703  0.00  0.00     0.011 A 
ENDBRANCH  12  15
ENDBRANCH   1  12
BRANCH   5  22
ATOM     22  C   UNL d   1      59.262   0.657  28.956  0.00  0.00     0.080 C 
ATOM     23  C   UNL d   1      59.947   0.667  28.497  0.00  0.00     0.021 C 
ENDBRANCH   5  22
BRANCH  10  24
ATOM     24  O   UNL d   1      56.529  -0.013  31.474  0.00  0.00    -0.305 OA
BRANCH  24  25
ATOM     25  C   UNL d   1      56.567  -0.421  32.186  0.00  0.00     0.123 C 
ATOM     26  C   UNL d   1      55.976  -0.334  32.753  0.00  0.00     0.029 C 
ENDBRANCH  24  25
ENDBRANCH  10  24
TORSDOF 5
ENDMDL
MODEL 2
REMARK VINA RESULT:      -1.0      8.577      9.038
REMARK  5 active torsions:
REMARK  status: ('A' for Active; 'I' for Inactive)
REMARK    1  A    between atoms: S_2  and  C_1 
REMARK    2  A    between atoms: C_8  and  S_2 
REMARK    3  A    between atoms: C_18  and  N_6 
REMARK    4  A    between atoms: O_22  and  C_16 
REMARK    5  A    between atoms: C_23  and  O_22 
ROOT
ATOM      1  C   UNL d   1      58.594  -9.779  31.323  0.00  0.00     0.144 A 
ATOM      2  C   UNL d   1      58.413  -9.758  32.124  0.00  0.00     0.209 A 
ATOM      3  C   UNL d   1      58.998  -9.751  32.695  0.00  0.00     0.058 A 
ATOM      4  C   UNL d   1      59.397  -9.794  31.087  0.00  0.00     0.095 A 
ATOM      5  N   UNL d   1      59.996  -9.787  31.658  0.00  0.00    -0.303 N 
ATOM      6  C   UNL d   1      59.801  -9.766  32.458  0.00  0.00     0.067 A 
ATOM      7  C   UNL d   1      60.399  -9.760  33.026  0.00  0.00     0.020 A 
ATOM      8  C   UNL d   1      58.815  -9.731  33.492  0.00  0.00     0.029 A 
ATOM      9  O   UNL d   1      57.621  -9.743  32.357  0.00  0.00    -0.286 OA
ATOM     10  C   UNL d   1      59.403  -9.724  34.070  0.00  0.00     0.100 A 
ATOM     11  C   UNL d   1      60.206  -9.739  33.834  0.00  0.00     0.026 A 
ENDROOT
BRANCH   1  12
ATOM     12  S   UNL d   1      58.006  -9.785  30.745  0.00  0.00     0.214 S 
ATOM     13  O   UNL d   1      58.573  -9.753  30.147  0.00  0.00    -0.217 OA
ATOM     14  O   UNL d   1      57.428  -9.818  31.345  0.00  0.00    -0.217 OA
BRANCH  12  15
ATOM     15  C   UNL d   1      57.409  -9.792  30.173  0.00  0.00     0.088 A 
ATOM     16  C   UNL d   1      57.598  -9.795  29.369  0.00  0.00     0.011 A 
ATOM     17  C   UNL d   1      57.004  -9.802  28.799  0.00  0.00     0.001 A 
ATOM     18  C   UNL d   1      56.210  -9.806  29.028  0.00  0.00     0.000 A 
ATOM     19  C   UNL d   1      56.016  -9.803  29.831  0.00  0.00     0.001 A 
ATOM     20  C   UNL d   1      55.608  -9.813  28.455  0.00  0.00     0.000 C 
ATOM     21  C   UNL d   1      56.610  -9.796  30.401  0.00  0.00     0.011 A 
ENDBRANCH  12  15
ENDBRANCH   1  12
BRANCH   5  22
ATOM     22  C   UNL d   1      60.790  -9.802  31.434  0.00  0.00     0.080 C 
ATOM     23  C   UNL d   1      60.998  -9.589  30.666  0.00  0.00     0.021 C 
ENDBRANCH   5  22
BRANCH  10  24
ATOM     24  O   UNL d   1      59.220  -9.704  34.867  0.00  0.00    -0.305 OA
BRANCH  24  25
ATOM     25  C   UNL d   1      59.574  -9.164  35.375  0.00  0.00     0.123 C 
ATOM     26  C   UNL d   1      59.229  -8.977  36.099  0.00  0.00     0.029 C 
ENDBRANCH  24  25
ENDBRANCH  10  24
TORSDOF 5
ENDMDL
MODEL 3
REMARK VINA RESULT:      -0.6      2.499      4.289
REMARK  5 active torsions:
REMARK  status: ('A' for Active; 'I' for Inactive)
REMARK    1  A    between atoms: S_2  and  C_1 
REMARK    2  A    between atoms: C_8  and  S_2 
REMARK    3  A    between atoms: C_18  and  N_6 
REMARK    4  A    between atoms: O_22  and  C_16 
REMARK    5  A    between atoms: C_23  and  O_22 
ROOT
ATOM      1  C   UNL d   1      57.050   0.081  32.372  0.00  0.00     0.144 A 
ATOM      2  C   UNL d   1      56.232   0.104  32.440  0.00  0.00     0.209 A 
ATOM      3  C   UNL d   1      55.867   0.293  33.146  0.00  0.00     0.058 A 
ATOM      4  C   UNL d   1      57.521   0.256  33.042  0.00  0.00     0.095 A 
ATOM      5  N   UNL d   1      57.160   0.448  33.761  0.00  0.00    -0.303 N 
ATOM      6  C   UNL d   1      56.338   0.468  33.817  0.00  0.00     0.067 A 
ATOM      7  C   UNL d   1      55.980   0.660  34.534  0.00  0.00     0.020 A 
ATOM      8  C   UNL d   1      55.053   0.315  33.212  0.00  0.00     0.029 A 
ATOM      9  O   UNL d   1      55.769  -0.069  31.779  0.00  0.00    -0.286 OA
ATOM     10  C   UNL d   1      54.681   0.506  33.923  0.00  0.00     0.100 A 
ATOM     11  C   UNL d   1      55.152   0.681  34.594  0.00  0.00     0.026 A 
ENDROOT
BRANCH   1  12
ATOM     12  S   UNL d   1      57.422  -0.110  31.661  0.00  0.00     0.214 S 
ATOM     13  O   UNL d   1      57.513  -0.893  31.901  0.00  0.00    -0.217 OA
ATOM     14  O   UNL d   1      57.332   0.682  31.413  0.00  0.00    -0.217 OA
BRANCH  12  15
ATOM     15  C   UNL d   1      57.793  -0.289  30.944  0.00  0.00     0.088 A 
ATOM     16  C   UNL d   1      58.033   0.315  30.434  0.00  0.00     0.011 A 
ATOM     17  C   UNL d   1      58.403   0.138  29.720  0.00  0.00     0.001 A 
ATOM     18  C   UNL d   1      58.538  -0.649  29.507  0.00  0.00     0.000 A 
ATOM     19  C   UNL d   1      58.300  -1.256  30.014  0.00  0.00     0.001 A 
ATOM     20  C   UNL d   1      58.911  -0.831  28.788  0.00  0.00     0.000 C 
ATOM     21  C   UNL d   1      57.930  -1.079  30.728  0.00  0.00     0.011 A 
ENDBRANCH  12  15
ENDBRANCH   1  12
BRANCH   5  22
ATOM     22  C   UNL d   1      57.616   0.622  34.427  0.00  0.00     0.080 C 
ATOM     23  C   UNL d   1      58.437   0.566  34.381  0.00  0.00     0.021 C 
ENDBRANCH   5  22
BRANCH  10  24
ATOM     24  O   UNL d   1      53.866   0.528  33.989  0.00  0.00    -0.305 OA
BRANCH  24  25
ATOM     25  C   UNL d   1      53.483   0.263  34.665  0.00  0.00     0.123 C 
ATOM     26  C   UNL d   1      52.661   0.224  34.696  0.00  0.00     0.029 C 
ENDBRANCH  24  25
ENDBRANCH  10  24
TORSDOF 5
ENDMDL
