MODEL 1
REMARK VINA RESULT:      29.9      0.000      0.000
REMARK  1 active torsions:
REMARK  status: ('A' for Active; 'I' for Inactive)
REMARK    1  A    between atoms: C_10  and  C_4 
ROOT
ATOM      1  N   UNL d   1     -51.843  24.452  33.372  0.00  0.00    -0.202 N 
ATOM      2  C   UNL d   1     -51.869  25.277  33.366  0.00  0.00     0.166 A 
ATOM      3  N   UNL d   1     -51.041  24.222  33.388  0.00  0.00    -0.163 NA
ATOM      4  C   UNL d   1     -51.084  25.559  33.378  0.00  0.00     0.055 A 
ATOM      5  C   UNL d   1     -52.547  24.016  33.361  0.00  0.00     0.143 A 
ATOM      6  C   UNL d   1     -50.589  24.904  33.392  0.00  0.00     0.104 A 
ATOM      7  N   UNL d   1     -52.593  25.666  33.350  0.00  0.00    -0.227 NA
ATOM      8  C   UNL d   1     -53.275  24.409  33.345  0.00  0.00     0.050 A 
ATOM      9  C   UNL d   1     -53.299  25.241  33.339  0.00  0.00     0.086 A 
ATOM     10 CL   UNL d   1     -52.525  23.193  33.367  0.00  0.00    -0.061 Cl
ATOM     11  C   UNL d   1     -49.765  24.931  33.407  0.00  0.00     0.023 C 
ATOM     12  C   UNL d   1     -54.022  25.630  33.323  0.00  0.00     0.021 C 
ENDROOT
BRANCH   4  13
ATOM     13  C   UNL d   1     -50.851  26.351  33.377  0.00  0.00     0.004 A 
ATOM     14  C   UNL d   1     -50.050  26.545  33.417  0.00  0.00     0.001 A 
ATOM     15  C   UNL d   1     -49.821  27.333  33.416  0.00  0.00     0.011 A 
ATOM     16  C   UNL d   1     -50.385  27.933  33.376  0.00  0.00     0.058 A 
ATOM     17  C   UNL d   1     -51.183  27.742  33.336  0.00  0.00     0.011 A 
ATOM     18 CL   UNL d   1     -50.153  28.718  33.375  0.00  0.00    -0.082 Cl
ATOM     19  C   UNL d   1     -51.422  26.951  33.337  0.00  0.00     0.001 A 
ENDBRANCH   4  13
TORSDOF 1
ENDMDL
MODEL 2
REMARK VINA RESULT:      31.8      0.849      1.902
REMARK  1 active torsions:
REMARK  status: ('A' for Active; 'I' for Inactive)
REMARK    1  A    between atoms: C_10  and  C_4 
ROOT
ATOM      1  N   UNL d   1     -52.891  24.785  33.430  0.00  0.00    -0.202 N 
ATOM      2  C   UNL d   1     -52.115  25.065  33.424  0.00  0.00     0.166 A 
ATOM      3  N   UNL d   1     -53.401  25.445  33.436  0.00  0.00    -0.163 NA
ATOM      4  C   UNL d   1     -52.143  25.899  33.426  0.00  0.00     0.055 A 
ATOM      5  C   UNL d   1     -53.036  23.969  33.429  0.00  0.00     0.143 A 
ATOM      6  C   UNL d   1     -52.934  26.117  33.434  0.00  0.00     0.104 A 
ATOM      7  N   UNL d   1     -51.486  24.536  33.417  0.00  0.00    -0.227 NA
ATOM      8  C   UNL d   1     -52.401  23.438  33.422  0.00  0.00     0.050 A 
ATOM      9  C   UNL d   1     -51.620  23.724  33.416  0.00  0.00     0.086 A 
ATOM     10 CL   UNL d   1     -53.809  23.685  33.435  0.00  0.00    -0.061 Cl
ATOM     11  C   UNL d   1     -53.215  26.893  33.439  0.00  0.00     0.023 C 
ATOM     12  C   UNL d   1     -50.991  23.195  33.408  0.00  0.00     0.021 C 
ENDROOT
BRANCH   4  13
ATOM     13  C   UNL d   1     -51.494  26.408  33.422  0.00  0.00     0.004 A 
ATOM     14  C   UNL d   1     -51.610  27.225  33.436  0.00  0.00     0.001 A 
ATOM     15  C   UNL d   1     -50.962  27.729  33.431  0.00  0.00     0.011 A 
ATOM     16  C   UNL d   1     -50.195  27.426  33.413  0.00  0.00     0.058 A 
ATOM     17  C   UNL d   1     -50.077  26.613  33.399  0.00  0.00     0.011 A 
ATOM     18 CL   UNL d   1     -49.552  27.932  33.408  0.00  0.00    -0.082 Cl
ATOM     19  C   UNL d   1     -50.724  26.098  33.403  0.00  0.00     0.001 A 
ENDBRANCH   4  13
TORSDOF 1
ENDMDL
