MODEL 1
REMARK VINA RESULT:      23.8      0.000      0.000
REMARK  5 active torsions:
REMARK  status: ('A' for Active; 'I' for Inactive)
REMARK    1  A    between atoms: C_4  and  S_1 
REMARK    2  A    between atoms: N_5  and  S_1 
REMARK       I    between atoms: N_2  and  C_3 
REMARK    3  A    between atoms: C_3  and  C_12 
REMARK    4  A    between atoms: C_19  and  N_5 
REMARK    5  A    between atoms: C_20  and  C_19 
ROOT
ATOM      1  C   UNL d   1      45.992 -17.637  44.182  0.00  0.00     0.057 A 
ATOM      2  C   UNL d   1      46.638 -17.121  44.191  0.00  0.00     0.005 A 
ATOM      3  C   UNL d   1      45.251 -17.375  44.424  0.00  0.00     0.005 A 
ATOM      4  C   UNL d   1      45.798 -16.078  44.686  0.00  0.00     0.020 A 
ATOM      5  C   UNL d   1      46.536 -16.349  44.441  0.00  0.00     0.002 A 
ATOM      6  C   UNL d   1      45.156 -16.596  44.675  0.00  0.00     0.002 A 
ENDROOT
BRANCH   4   7
ATOM      7  C   UNL d   1      45.698 -15.301  44.937  0.00  0.00     0.112 C 
BRANCH   7   8
ATOM      8  N   UNL d   1      46.119 -14.690  44.563  0.00  0.00    -0.157 NA
BRANCH   8   9
ATOM      9  S   UNL d   1      45.706 -14.043  44.242  0.00  0.00     0.285 S 
ATOM     10  O   UNL d   1      46.407 -13.762  43.895  0.00  0.00    -0.198 OA
ATOM     11  O   UNL d   1      44.997 -14.323  44.589  0.00  0.00    -0.198 OA
BRANCH   9  12
ATOM     12  C   UNL d   1      45.286 -13.395  43.920  0.00  0.00     0.106 A 
ATOM     13  C   UNL d   1      45.492 -13.092  43.191  0.00  0.00     0.024 A 
ATOM     14  C   UNL d   1      45.078 -12.454  42.877  0.00  0.00     0.059 A 
ATOM     15 CL   UNL d   1      45.281 -12.142  42.139  0.00  0.00    -0.082 Cl
ATOM     16  C   UNL d   1      44.452 -12.118  43.298  0.00  0.00     0.011 A 
ATOM     17  C   UNL d   1      44.250 -12.427  44.031  0.00  0.00     0.002 A 
ATOM     18  C   UNL d   1      44.666 -13.069  44.347  0.00  0.00     0.013 A 
ENDBRANCH   9  12
ENDBRANCH   8   9
ENDBRANCH   7   8
ENDBRANCH   4   7
BRANCH   1  19
ATOM     19  C   UNL d   1      46.087 -18.429  43.927  0.00  0.00     0.265 C 
ATOM     20  N   UNL d   1      46.272 -18.587  43.134  0.00  0.00    -0.268 N 
ATOM     21  C   UNL d   1      46.361 -17.964  42.598  0.00  0.00     0.108 A 
ATOM     22  C   UNL d   1      46.366 -19.369  42.885  0.00  0.00     0.108 A 
ATOM     23  C   UNL d   1      46.546 -18.126  41.802  0.00  0.00     0.118 A 
ATOM     24  C   UNL d   1      46.636 -17.501  41.263  0.00  0.00     0.028 C 
ATOM     25  O   UNL d   1      46.640 -18.907  41.554  0.00  0.00    -0.304 OA
ATOM     26  C   UNL d   1      46.552 -19.534  42.086  0.00  0.00     0.118 A 
ATOM     27  C   UNL d   1      46.647 -20.318  41.833  0.00  0.00     0.028 C 
ATOM     28  O   UNL d   1      45.997 -19.051  44.468  0.00  0.00    -0.267 OA
ENDBRANCH   1  19
TORSDOF 5
ENDMDL
