MODEL 1
REMARK VINA RESULT:      54.4      0.000      0.000
REMARK  4 active torsions:
REMARK  status: ('A' for Active; 'I' for Inactive)
REMARK    1  A    between atoms: C_9  and  N_1 
REMARK    2  A    between atoms: C_6  and  C_2 
REMARK       I    between atoms: N_8  and  C_6 
REMARK    3  A    between atoms: C_15  and  N_8 
REMARK    4  A    between atoms: C_13  and  C_9 
ROOT
ATOM      1  N   UNL d   1      45.076 -15.870  36.972  0.00  0.00    -0.258 N 
ATOM      2  C   UNL d   1      45.533 -16.259  38.187  0.00  0.00     0.114 A 
ATOM      3  C   UNL d   1      45.038 -16.357  37.588  0.00  0.00     0.270 A 
ATOM      4  C   UNL d   1      45.601 -15.292  36.956  0.00  0.00     0.150 A 
ATOM      5  C   UNL d   1      46.060 -15.681  38.174  0.00  0.00     0.013 A 
ATOM      6  C   UNL d   1      46.092 -15.200  37.559  0.00  0.00     0.035 A 
ATOM      7  N   UNL d   1      45.634 -14.817  36.350  0.00  0.00    -0.227 NA
ATOM      8  O   UNL d   1      44.694 -16.910  37.838  0.00  0.00    -0.266 OA
ATOM      9  C   UNL d   1      46.622 -14.622  37.549  0.00  0.00     0.005 A 
ATOM     10  C   UNL d   1      46.153 -14.243  36.330  0.00  0.00     0.101 A 
ATOM     11  C   UNL d   1      46.647 -14.146  36.930  0.00  0.00     0.021 A 
ENDROOT
BRANCH   2  12
ATOM     12  C   UNL d   1      45.499 -16.742  38.804  0.00  0.00     0.284 C 
ATOM     13  N   UNL d   1      46.066 -17.231  39.171  0.00  0.00    -0.208 NA
ATOM     14  O   UNL d   1      44.896 -16.627  38.918  0.00  0.00    -0.265 OA
BRANCH  13  15
ATOM     15  C   UNL d   1      45.852 -17.698  39.845  0.00  0.00     0.085 A 
ATOM     16  C   UNL d   1      45.055 -17.781  40.064  0.00  0.00     0.019 A 
ATOM     17  C   UNL d   1      44.861 -18.240  40.723  0.00  0.00     0.002 A 
ATOM     18  C   UNL d   1      45.453 -18.612  41.160  0.00  0.00     0.000 A 
ATOM     19  C   UNL d   1      46.252 -18.538  40.955  0.00  0.00     0.002 A 
ATOM     20  C   UNL d   1      46.448 -18.074  40.288  0.00  0.00     0.019 A 
ENDBRANCH  13  15
ENDBRANCH   2  12
BRANCH   1  21
ATOM     21  C   UNL d   1      44.550 -15.971  36.331  0.00  0.00     0.084 C 
BRANCH  21  22
ATOM     22  C   UNL d   1      43.923 -15.858  36.415  0.00  0.00     0.018 A 
ATOM     23  C   UNL d   1      43.392 -16.539  36.353  0.00  0.00     0.004 A 
ATOM     24  C   UNL d   1      42.538 -16.435  36.459  0.00  0.00     0.030 A 
ATOM     25  C   UNL d   1      42.220 -15.654  36.624  0.00  0.00     0.140 A 
ATOM     26  C   UNL d   1      42.738 -14.971  36.687  0.00  0.00     0.030 A 
ATOM     27  F   UNL d   1      41.388 -15.552  36.726  0.00  0.00    -0.204 F 
ATOM     28  C   UNL d   1      43.599 -15.071  36.581  0.00  0.00     0.004 A 
ENDBRANCH  21  22
ENDBRANCH   1  21
TORSDOF 4
ENDMDL
MODEL 2
REMARK VINA RESULT:      55.1      4.328      6.370
REMARK  4 active torsions:
REMARK  status: ('A' for Active; 'I' for Inactive)
REMARK    1  A    between atoms: C_9  and  N_1 
REMARK    2  A    between atoms: C_6  and  C_2 
REMARK       I    between atoms: N_8  and  C_6 
REMARK    3  A    between atoms: C_15  and  N_8 
REMARK    4  A    between atoms: C_13  and  C_9 
ROOT
ATOM      1  N   UNL d   1      46.392 -18.153  42.285  0.00  0.00    -0.258 N 
ATOM      2  C   UNL d   1      46.104 -16.852  42.532  0.00  0.00     0.114 A 
ATOM      3  C   UNL d   1      46.341 -17.552  42.789  0.00  0.00     0.270 A 
ATOM      4  C   UNL d   1      46.207 -18.055  41.533  0.00  0.00     0.150 A 
ATOM      5  C   UNL d   1      45.918 -16.750  41.778  0.00  0.00     0.013 A 
ATOM      6  C   UNL d   1      45.971 -17.351  41.283  0.00  0.00     0.035 A 
ATOM      7  N   UNL d   1      46.259 -18.647  41.042  0.00  0.00    -0.227 NA
ATOM      8  O   UNL d   1      46.438 -17.380  43.459  0.00  0.00    -0.266 OA
ATOM      9  C   UNL d   1      45.784 -17.246  40.528  0.00  0.00     0.005 A 
ATOM     10  C   UNL d   1      46.077 -18.553  40.296  0.00  0.00     0.101 A 
ATOM     11  C   UNL d   1      45.839 -17.853  40.039  0.00  0.00     0.021 A 
ENDROOT
BRANCH   2  12
ATOM     12  C   UNL d   1      46.052 -16.249  43.031  0.00  0.00     0.284 C 
ATOM     13  N   UNL d   1      45.493 -15.638  43.123  0.00  0.00    -0.208 NA
ATOM     14  O   UNL d   1      46.580 -16.396  43.332  0.00  0.00    -0.265 OA
BRANCH  13  15
ATOM     15  C   UNL d   1      45.596 -15.056  43.732  0.00  0.00     0.085 A 
ATOM     16  C   UNL d   1      46.111 -15.197  44.367  0.00  0.00     0.019 A 
ATOM     17  C   UNL d   1      46.202 -14.621  44.952  0.00  0.00     0.002 A 
ATOM     18  C   UNL d   1      45.785 -13.912  44.905  0.00  0.00     0.000 A 
ATOM     19  C   UNL d   1      45.268 -13.756  44.278  0.00  0.00     0.002 A 
ATOM     20  C   UNL d   1      45.176 -14.339  43.686  0.00  0.00     0.019 A 
ENDBRANCH  13  15
ENDBRANCH   2  12
BRANCH   1  21
ATOM     21  C   UNL d   1      46.645 -18.901  42.556  0.00  0.00     0.084 C 
BRANCH  21  22
ATOM     22  C   UNL d   1      46.345 -19.177  43.054  0.00  0.00     0.018 A 
ATOM     23  C   UNL d   1      45.629 -19.629  42.878  0.00  0.00     0.004 A 
ATOM     24  C   UNL d   1      45.192 -20.017  43.517  0.00  0.00     0.030 A 
ATOM     25  C   UNL d   1      45.472 -19.952  44.327  0.00  0.00     0.140 A 
ATOM     26  C   UNL d   1      46.182 -19.505  44.514  0.00  0.00     0.030 A 
ATOM     27  F   UNL d   1      45.046 -20.330  44.951  0.00  0.00    -0.204 F 
ATOM     28  C   UNL d   1      46.626 -19.112  43.872  0.00  0.00     0.004 A 
ENDBRANCH  21  22
ENDBRANCH   1  21
TORSDOF 4
ENDMDL
