MODEL 1
REMARK VINA RESULT:      49.6      0.000      0.000
REMARK  8 active torsions:
REMARK  status: ('A' for Active; 'I' for Inactive)
REMARK    1  A    between atoms: N_5  and  C_1 
REMARK    2  A    between atoms: C_2  and  N_5 
REMARK    3  A    between atoms: N_3  and  C_2 
REMARK       I    between atoms: C_6  and  N_3 
REMARK    4  A    between atoms: C_13  and  C_6 
REMARK    5  A    between atoms: C_9  and  C_7 
REMARK    6  A    between atoms: C_11  and  C_9 
REMARK    7  A    between atoms: O_21  and  C_11 
REMARK    8  A    between atoms: C_23  and  O_21 
ROOT
ATOM      1  C   UNL d   1     -48.649  27.873  34.851  0.00  0.00     0.225 C 
ATOM      2  S   UNL d   1     -48.666  27.555  35.599  0.00  0.00    -0.037 SA
ENDROOT
BRANCH   1   3
ATOM      3  N   UNL d   1     -48.737  27.379  34.196  0.00  0.00    -0.192 NA
BRANCH   3   4
ATOM      4  C   UNL d   1     -49.503  27.196  33.913  0.00  0.00     0.196 A 
ATOM      5  N   UNL d   1     -49.827  26.461  33.832  0.00  0.00    -0.220 NA
ATOM      6  C   UNL d   1     -50.571  26.558  33.541  0.00  0.00     0.095 A 
ATOM      7  C   UNL d   1     -50.701  27.366  33.446  0.00  0.00     0.058 A 
ATOM      8  S   UNL d   1     -50.037  27.748  33.678  0.00  0.00    -0.046 SA
BRANCH   6   9
ATOM      9  C   UNL d   1     -51.101  25.929  33.374  0.00  0.00     0.088 C 
BRANCH   9  10
ATOM     10  C   UNL d   1     -50.852  25.160  33.333  0.00  0.00     0.302 C 
ATOM     11  O   UNL d   1     -50.060  24.958  33.306  0.00  0.00    -0.259 OA
BRANCH  10  12
ATOM     12  O   UNL d   1     -51.419  24.542  33.316  0.00  0.00    -0.271 OA
BRANCH  12  13
ATOM     13  C   UNL d   1     -52.192  24.704  33.567  0.00  0.00     0.126 C 
ATOM     14  C   UNL d   1     -52.768  24.144  33.393  0.00  0.00     0.029 C 
ENDBRANCH  12  13
ENDBRANCH  10  12
ENDBRANCH   9  10
ENDBRANCH   6   9
ENDBRANCH   3   4
ENDBRANCH   1   3
BRANCH   1  15
ATOM     15  N   UNL d   1     -48.546  28.666  34.736  0.00  0.00    -0.179 NA
ATOM     16  C   UNL d   1     -48.049  29.091  35.249  0.00  0.00     0.281 C 
ATOM     17  O   UNL d   1     -47.669  28.706  35.864  0.00  0.00    -0.265 OA
BRANCH  16  18
ATOM     18  C   UNL d   1     -47.939  29.908  35.137  0.00  0.00     0.058 A 
ATOM     19  C   UNL d   1     -47.388  30.327  35.598  0.00  0.00     0.007 A 
ATOM     20  C   UNL d   1     -47.295  31.140  35.469  0.00  0.00     0.030 A 
ATOM     21  C   UNL d   1     -47.745  31.531  34.887  0.00  0.00     0.140 A 
ATOM     22  C   UNL d   1     -48.282  31.107  34.442  0.00  0.00     0.030 A 
ATOM     23  F   UNL d   1     -47.654  32.323  34.761  0.00  0.00    -0.204 F 
ATOM     24  C   UNL d   1     -48.385  30.302  34.558  0.00  0.00     0.007 A 
ENDBRANCH  16  18
ENDBRANCH   1  15
TORSDOF 8
ENDMDL
MODEL 2
REMARK VINA RESULT:      50.2      2.364      5.864
REMARK  8 active torsions:
REMARK  status: ('A' for Active; 'I' for Inactive)
REMARK    1  A    between atoms: N_5  and  C_1 
REMARK    2  A    between atoms: C_2  and  N_5 
REMARK    3  A    between atoms: N_3  and  C_2 
REMARK       I    between atoms: C_6  and  N_3 
REMARK    4  A    between atoms: C_13  and  C_6 
REMARK    5  A    between atoms: C_9  and  C_7 
REMARK    6  A    between atoms: C_11  and  C_9 
REMARK    7  A    between atoms: O_21  and  C_11 
REMARK    8  A    between atoms: C_23  and  O_21 
ROOT
ATOM      1  C   UNL d   1     -49.028  28.272  34.482  0.00  0.00     0.225 C 
ATOM      2  S   UNL d   1     -49.390  28.919  34.147  0.00  0.00    -0.037 SA
ENDROOT
BRANCH   1   3
ATOM      3  N   UNL d   1     -48.369  28.380  34.967  0.00  0.00    -0.192 NA
BRANCH   3   4
ATOM      4  C   UNL d   1     -48.045  29.145  35.065  0.00  0.00     0.196 A 
ATOM      5  N   UNL d   1     -48.392  29.847  34.866  0.00  0.00    -0.220 NA
ATOM      6  C   UNL d   1     -47.876  30.432  35.061  0.00  0.00     0.095 A 
ATOM      7  C   UNL d   1     -47.205  30.079  35.384  0.00  0.00     0.058 A 
ATOM      8  S   UNL d   1     -47.321  29.287  35.381  0.00  0.00    -0.046 SA
BRANCH   6   9
ATOM      9  C   UNL d   1     -48.021  31.251  34.945  0.00  0.00     0.088 C 
BRANCH   9  10
ATOM     10  C   UNL d   1     -47.418  31.787  34.884  0.00  0.00     0.302 C 
ATOM     11  O   UNL d   1     -46.667  31.634  35.173  0.00  0.00    -0.259 OA
BRANCH  10  12
ATOM     12  O   UNL d   1     -47.557  32.527  34.514  0.00  0.00    -0.271 OA
BRANCH  12  13
ATOM     13  C   UNL d   1     -47.599  32.556  33.687  0.00  0.00     0.126 C 
ATOM     14  C   UNL d   1     -47.719  33.293  33.343  0.00  0.00     0.029 C 
ENDBRANCH  12  13
ENDBRANCH  10  12
ENDBRANCH   9  10
ENDBRANCH   6   9
ENDBRANCH   3   4
ENDBRANCH   1   3
BRANCH   1  15
ATOM     15  N   UNL d   1     -49.302  27.524  34.350  0.00  0.00    -0.179 NA
ATOM     16  C   UNL d   1     -49.980  27.416  33.879  0.00  0.00     0.281 C 
ATOM     17  O   UNL d   1     -50.361  28.064  33.556  0.00  0.00    -0.265 OA
BRANCH  16  18
ATOM     18  C   UNL d   1     -50.268  26.649  33.738  0.00  0.00     0.058 A 
ATOM     19  C   UNL d   1     -49.774  25.987  33.833  0.00  0.00     0.007 A 
ATOM     20  C   UNL d   1     -50.083  25.233  33.686  0.00  0.00     0.030 A 
ATOM     21  C   UNL d   1     -50.875  25.138  33.448  0.00  0.00     0.140 A 
ATOM     22  C   UNL d   1     -51.350  25.796  33.359  0.00  0.00     0.030 A 
ATOM     23  F   UNL d   1     -51.177  24.403  33.306  0.00  0.00    -0.204 F 
ATOM     24  C   UNL d   1     -51.058  26.549  33.500  0.00  0.00     0.007 A 
ENDBRANCH  16  18
ENDBRANCH   1  15
TORSDOF 8
ENDMDL
