MODEL 1
REMARK VINA RESULT:      69.7      0.000      0.000
REMARK  9 active torsions:
REMARK  status: ('A' for Active; 'I' for Inactive)
REMARK    1  A    between atoms: C_5  and  C_1 
REMARK    2  A    between atoms: N_4  and  C_2 
REMARK       I    between atoms: C_3  and  N_4 
REMARK    3  A    between atoms: C_10  and  C_3 
REMARK    4  A    between atoms: N_6  and  C_5 
REMARK    5  A    between atoms: C_12  and  C_5 
REMARK    6  A    between atoms: C_14  and  N_6 
REMARK    7  A    between atoms: C_8  and  C_14 
REMARK    8  A    between atoms: O_17  and  C_8 
REMARK    9  A    between atoms: C_23  and  O_17 
ROOT
ATOM      1  C   UNL d   1      44.155 -15.229  37.861  0.00  0.00     0.036 A 
ATOM      2  C   UNL d   1      43.436 -15.515  37.616  0.00  0.00     0.086 A 
ATOM      3  C   UNL d   1      44.190 -14.520  38.270  0.00  0.00     0.010 A 
ATOM      4  C   UNL d   1      42.737 -15.105  37.774  0.00  0.00     0.020 A 
ATOM      5  C   UNL d   1      43.501 -14.097  38.436  0.00  0.00     0.035 A 
ATOM      6  C   UNL d   1      42.758 -14.409  38.175  0.00  0.00     0.008 A 
ATOM      7 BR   UNL d   1      43.538 -13.371  38.856  0.00  0.00    -0.049 Br
ENDROOT
BRANCH   1   8
ATOM      8  C   UNL d   1      44.854 -15.639  37.704  0.00  0.00     0.083 C 
BRANCH   8   9
ATOM      9  N   UNL d   1      44.967 -16.400  37.969  0.00  0.00    -0.238 NA
BRANCH   9  10
ATOM     10  C   UNL d   1      45.183 -16.507  38.764  0.00  0.00     0.167 C 
BRANCH  10  11
ATOM     11  C   UNL d   1      45.407 -17.280  39.011  0.00  0.00     0.320 C 
ATOM     12  O   UNL d   1      46.061 -17.654  38.624  0.00  0.00    -0.257 OA
BRANCH  11  13
ATOM     13  O   UNL d   1      45.005 -17.673  39.614  0.00  0.00    -0.270 OA
BRANCH  13  14
ATOM     14  C   UNL d   1      45.276 -17.638  40.365  0.00  0.00     0.126 C 
ATOM     15  C   UNL d   1      45.304 -18.315  40.798  0.00  0.00     0.029 C 
ENDBRANCH  13  14
ENDBRANCH  11  13
ENDBRANCH  10  11
ENDBRANCH   9  10
ENDBRANCH   8   9
BRANCH   8  16
ATOM     16  C   UNL d   1      45.449 -15.274  37.271  0.00  0.00     0.018 A 
ATOM     17  C   UNL d   1      45.941 -15.713  36.775  0.00  0.00     0.002 A 
ATOM     18  C   UNL d   1      46.537 -15.369  36.337  0.00  0.00     0.000 A 
ATOM     19  C   UNL d   1      46.646 -14.522  36.405  0.00  0.00     0.000 A 
ATOM     20  C   UNL d   1      46.158 -14.077  36.899  0.00  0.00     0.000 A 
ATOM     21  C   UNL d   1      45.561 -14.450  37.332  0.00  0.00     0.002 A 
ENDBRANCH   8  16
ENDBRANCH   1   8
BRANCH   2  22
ATOM     22  N   UNL d   1      43.407 -16.247  37.194  0.00  0.00    -0.208 NA
ATOM     23  C   UNL d   1      42.738 -16.437  36.744  0.00  0.00     0.279 C 
ATOM     24  O   UNL d   1      42.711 -17.135  36.342  0.00  0.00    -0.265 OA
BRANCH  23  25
ATOM     25  C   UNL d   1      42.099 -15.928  36.700  0.00  0.00     0.058 A 
ATOM     26  C   UNL d   1      42.180 -15.177  36.379  0.00  0.00     0.005 A 
ATOM     27  C   UNL d   1      41.524 -14.677  36.342  0.00  0.00     0.000 A 
ATOM     28  C   UNL d   1      40.801 -14.930  36.624  0.00  0.00     0.000 A 
ATOM     29  C   UNL d   1      40.724 -15.672  36.940  0.00  0.00     0.000 A 
ATOM     30  C   UNL d   1      41.380 -16.172  36.977  0.00  0.00     0.005 A 
ENDBRANCH  23  25
ENDBRANCH   2  22
TORSDOF 9
ENDMDL
