MODEL 1
REMARK VINA RESULT:      40.7      0.000      0.000
REMARK  3 active torsions:
REMARK  status: ('A' for Active; 'I' for Inactive)
REMARK    1  A    between atoms: C_7  and  N_1 
REMARK    2  A    between atoms: C_10  and  C_3 
REMARK    3  A    between atoms: C_8  and  C_7 
ROOT
ATOM      1  N   UNL d   1      14.302  13.145  -2.178  0.00  0.00    -0.289 N 
ATOM      2  N   UNL d   1      14.255  14.502  -2.633  0.00  0.00    -0.217 NA
ATOM      3  C   UNL d   1      14.476  13.946  -2.069  0.00  0.00     0.149 A 
ATOM      4  C   UNL d   1      13.675  13.457  -3.435  0.00  0.00     0.044 A 
ATOM      5  C   UNL d   1      13.857  14.266  -3.315  0.00  0.00     0.139 A 
ATOM      6  C   UNL d   1      13.896  12.902  -2.871  0.00  0.00     0.068 A 
ATOM      7  S   UNL d   1      13.628  14.818  -3.893  0.00  0.00    -0.057 SA
ATOM      8  C   UNL d   1      13.273  13.215  -4.122  0.00  0.00     0.004 A 
ATOM      9  C   UNL d   1      13.723  12.097  -2.976  0.00  0.00     0.018 A 
ATOM     10  C   UNL d   1      13.101  12.408  -4.225  0.00  0.00     0.000 A 
ATOM     11  C   UNL d   1      13.321  11.852  -3.661  0.00  0.00     0.002 A 
ENDROOT
BRANCH   1  12
ATOM     12  C   UNL d   1      14.522  12.589  -1.614  0.00  0.00     0.106 C 
BRANCH  12  13
ATOM     13  C   UNL d   1      13.959  12.270  -1.101  0.00  0.00     0.118 A 
ATOM     14  O   UNL d   1      14.079  12.086  -0.320  0.00  0.00    -0.304 OA
ATOM     15  C   UNL d   1      13.379  11.785  -0.020  0.00  0.00     0.123 A 
ATOM     16  C   UNL d   1      12.820  11.785  -0.629  0.00  0.00     0.029 A 
ATOM     17  C   UNL d   1      13.182  12.088  -1.305  0.00  0.00     0.028 A 
ENDBRANCH  12  13
ENDBRANCH   1  12
BRANCH   3  18
ATOM     18  C   UNL d   1      14.876  14.179  -1.383  0.00  0.00     0.035 A 
ATOM     19  C   UNL d   1      15.542  13.770  -1.129  0.00  0.00     0.003 A 
ATOM     20  C   UNL d   1      15.928  14.015  -0.445  0.00  0.00     0.000 A 
ATOM     21  C   UNL d   1      15.662  14.657  -0.015  0.00  0.00     0.000 A 
ATOM     22  C   UNL d   1      14.985  15.074  -0.274  0.00  0.00     0.000 A 
ATOM     23  C   UNL d   1      14.596  14.831  -0.958  0.00  0.00     0.003 A 
ENDBRANCH   3  18
TORSDOF 3
ENDMDL
MODEL 2
REMARK VINA RESULT:      42.3      0.616      2.950
REMARK  3 active torsions:
REMARK  status: ('A' for Active; 'I' for Inactive)
REMARK    1  A    between atoms: C_7  and  N_1 
REMARK    2  A    between atoms: C_10  and  C_3 
REMARK    3  A    between atoms: C_8  and  C_7 
ROOT
ATOM      1  N   UNL d   1      14.271  13.222  -2.148  0.00  0.00    -0.289 N 
ATOM      2  N   UNL d   1      14.023  14.325  -3.026  0.00  0.00    -0.217 NA
ATOM      3  C   UNL d   1      13.970  13.522  -2.857  0.00  0.00     0.149 A 
ATOM      4  C   UNL d   1      14.686  14.547  -1.769  0.00  0.00     0.044 A 
ATOM      5  C   UNL d   1      14.378  14.841  -2.490  0.00  0.00     0.139 A 
ATOM      6  C   UNL d   1      14.633  13.744  -1.599  0.00  0.00     0.068 A 
ATOM      7  S   UNL d   1      14.438  15.654  -2.649  0.00  0.00    -0.057 SA
ATOM      8  C   UNL d   1      15.046  15.064  -1.224  0.00  0.00     0.004 A 
ATOM      9  C   UNL d   1      14.934  13.439  -0.889  0.00  0.00     0.018 A 
ATOM     10  C   UNL d   1      15.346  14.755  -0.513  0.00  0.00     0.000 A 
ATOM     11  C   UNL d   1      15.293  13.953  -0.343  0.00  0.00     0.002 A 
ENDROOT
BRANCH   1  12
ATOM     12  C   UNL d   1      14.217  12.420  -1.978  0.00  0.00     0.106 C 
BRANCH  12  13
ATOM     13  C   UNL d   1      13.880  12.166  -1.269  0.00  0.00     0.118 A 
ATOM     14  O   UNL d   1      14.281  12.018  -0.578  0.00  0.00    -0.304 OA
ATOM     15  C   UNL d   1      13.738  11.779  -0.015  0.00  0.00     0.123 A 
ATOM     16  C   UNL d   1      12.989  11.780  -0.366  0.00  0.00     0.029 A 
ATOM     17  C   UNL d   1      13.078  12.022  -1.150  0.00  0.00     0.028 A 
ENDBRANCH  12  13
ENDBRANCH   1  12
BRANCH   3  18
ATOM     18  C   UNL d   1      13.614  13.002  -3.393  0.00  0.00     0.035 A 
ATOM     19  C   UNL d   1      13.305  12.285  -3.137  0.00  0.00     0.003 A 
ATOM     20  C   UNL d   1      12.955  11.780  -3.682  0.00  0.00     0.000 A 
ATOM     21  C   UNL d   1      12.908  11.978  -4.474  0.00  0.00     0.000 A 
ATOM     22  C   UNL d   1      13.222  12.707  -4.735  0.00  0.00     0.000 A 
ATOM     23  C   UNL d   1      13.574  13.216  -4.191  0.00  0.00     0.003 A 
ENDBRANCH   3  18
TORSDOF 3
ENDMDL
MODEL 3
REMARK VINA RESULT:      42.9      1.516      3.770
REMARK  3 active torsions:
REMARK  status: ('A' for Active; 'I' for Inactive)
REMARK    1  A    between atoms: C_7  and  N_1 
REMARK    2  A    between atoms: C_10  and  C_3 
REMARK    3  A    between atoms: C_8  and  C_7 
ROOT
ATOM      1  N   UNL d   1      14.510  13.186  -2.289  0.00  0.00    -0.289 N 
ATOM      2  N   UNL d   1      13.865  12.030  -1.742  0.00  0.00    -0.217 NA
ATOM      3  C   UNL d   1      14.064  12.497  -2.389  0.00  0.00     0.149 A 
ATOM      4  C   UNL d   1      14.562  12.940  -0.872  0.00  0.00     0.044 A 
ATOM      5  C   UNL d   1      14.110  12.244  -0.985  0.00  0.00     0.139 A 
ATOM      6  C   UNL d   1      14.761  13.407  -1.519  0.00  0.00     0.068 A 
ATOM      7  S   UNL d   1      13.916  11.782  -0.322  0.00  0.00    -0.057 SA
ATOM      8  C   UNL d   1      14.811  13.160  -0.109  0.00  0.00     0.004 A 
ATOM      9  C   UNL d   1      15.208  14.099  -1.423  0.00  0.00     0.018 A 
ATOM     10  C   UNL d   1      15.260  13.854  -0.015  0.00  0.00     0.000 A 
ATOM     11  C   UNL d   1      15.458  14.321  -0.662  0.00  0.00     0.002 A 
ENDROOT
BRANCH   1  12
ATOM     12  C   UNL d   1      14.709  13.653  -2.936  0.00  0.00     0.106 C 
BRANCH  12  13
ATOM     13  C   UNL d   1      14.407  14.418  -3.006  0.00  0.00     0.118 A 
ATOM     14  O   UNL d   1      14.770  15.096  -2.748  0.00  0.00    -0.304 OA
ATOM     15  C   UNL d   1      14.282  15.729  -2.926  0.00  0.00     0.123 A 
ATOM     16  C   UNL d   1      13.606  15.433  -3.300  0.00  0.00     0.029 A 
ATOM     17  C   UNL d   1      13.684  14.613  -3.350  0.00  0.00     0.028 A 
ENDBRANCH  12  13
ENDBRANCH   1  12
BRANCH   3  18
ATOM     18  C   UNL d   1      13.820  12.285  -3.151  0.00  0.00     0.035 A 
ATOM     19  C   UNL d   1      14.360  11.985  -3.694  0.00  0.00     0.003 A 
ATOM     20  C   UNL d   1      14.102  11.779  -4.446  0.00  0.00     0.000 A 
ATOM     21  C   UNL d   1      13.319  11.866  -4.665  0.00  0.00     0.000 A 
ATOM     22  C   UNL d   1      12.769  12.171  -4.113  0.00  0.00     0.000 A 
ATOM     23  C   UNL d   1      13.025  12.378  -3.358  0.00  0.00     0.003 A 
ENDBRANCH   3  18
TORSDOF 3
ENDMDL
