MODEL 1
REMARK VINA RESULT:      43.7      0.000      0.000
REMARK  7 active torsions:
REMARK  status: ('A' for Active; 'I' for Inactive)
REMARK    1  A    between atoms: N_4  and  C_2 
REMARK    2  A    between atoms: C_8  and  C_3 
REMARK       I    between atoms: C_7  and  N_4 
REMARK    3  A    between atoms: C_13  and  C_7 
REMARK    4  A    between atoms: S_11  and  C_16 
REMARK    5  A    between atoms: C_12  and  S_11 
REMARK    6  A    between atoms: C_19  and  C_13 
REMARK    7  A    between atoms: C_16  and  C_19 
ROOT
ATOM      1  N   UNL d   1     -49.651  26.276  33.561  0.00  0.00    -0.183 NA
ATOM      2  C   UNL d   1     -50.039  26.990  33.730  0.00  0.00     0.281 C 
ATOM      3  O   UNL d   1     -50.850  27.019  33.813  0.00  0.00    -0.265 OA
ENDROOT
BRANCH   1   4
ATOM      4  C   UNL d   1     -50.100  25.586  33.478  0.00  0.00     0.197 A 
ATOM      5  N   UNL d   1     -50.926  25.542  33.489  0.00  0.00    -0.219 NA
ATOM      6  C   UNL d   1     -51.133  24.748  33.387  0.00  0.00     0.108 A 
ATOM      7  C   UNL d   1     -50.438  24.309  33.314  0.00  0.00     0.059 A 
ATOM      8  S   UNL d   1     -49.797  24.823  33.370  0.00  0.00    -0.046 SA
BRANCH   6   9
ATOM      9  C   UNL d   1     -51.891  24.454  33.364  0.00  0.00     0.100 A 
ATOM     10  N   UNL d   1     -52.018  23.630  33.373  0.00  0.00    -0.242 NA
ATOM     11  C   UNL d   1     -52.791  23.339  33.349  0.00  0.00     0.099 A 
ATOM     12  C   UNL d   1     -53.430  23.859  33.315  0.00  0.00     0.021 A 
ATOM     13  C   UNL d   1     -53.299  24.675  33.306  0.00  0.00     0.003 A 
ATOM     14  C   UNL d   1     -52.527  24.972  33.330  0.00  0.00     0.021 A 
ENDBRANCH   6   9
ENDBRANCH   1   4
BRANCH   2  15
ATOM     15  C   UNL d   1     -49.586  27.680  33.812  0.00  0.00     0.063 C 
BRANCH  15  16
ATOM     16  C   UNL d   1     -49.363  27.933  34.571  0.00  0.00     0.012 C 
BRANCH  16  17
ATOM     17  C   UNL d   1     -48.821  28.545  34.661  0.00  0.00     0.036 C 
BRANCH  17  18
ATOM     18  S   UNL d   1     -48.679  28.868  35.400  0.00  0.00    -0.086 SA
BRANCH  18  19
ATOM     19  C   UNL d   1     -47.985  29.290  35.540  0.00  0.00     0.029 A 
ATOM     20  C   UNL d   1     -47.901  29.720  36.241  0.00  0.00     0.005 A 
ATOM     21  C   UNL d   1     -47.210  30.144  36.385  0.00  0.00    -0.012 A 
ATOM     22  C   UNL d   1     -46.599  30.139  35.829  0.00  0.00     0.026 A 
ATOM     23  C   UNL d   1     -46.682  29.711  35.131  0.00  0.00    -0.012 A 
ATOM     24  C   UNL d   1     -47.375  29.286  34.985  0.00  0.00     0.005 A 
ENDBRANCH  18  19
ENDBRANCH  17  18
ENDBRANCH  16  17
ENDBRANCH  15  16
ENDBRANCH   2  15
TORSDOF 7
ENDMDL
MODEL 2
REMARK VINA RESULT:      45.0      1.088      1.320
REMARK  7 active torsions:
REMARK  status: ('A' for Active; 'I' for Inactive)
REMARK    1  A    between atoms: N_4  and  C_2 
REMARK    2  A    between atoms: C_8  and  C_3 
REMARK       I    between atoms: C_7  and  N_4 
REMARK    3  A    between atoms: C_13  and  C_7 
REMARK    4  A    between atoms: S_11  and  C_16 
REMARK    5  A    between atoms: C_12  and  S_11 
REMARK    6  A    between atoms: C_19  and  C_13 
REMARK    7  A    between atoms: C_16  and  C_19 
ROOT
ATOM      1  N   UNL d   1     -49.636  27.065  33.806  0.00  0.00    -0.183 NA
ATOM      2  C   UNL d   1     -49.489  27.308  34.586  0.00  0.00     0.281 C 
ATOM      3  O   UNL d   1     -50.012  27.133  35.187  0.00  0.00    -0.265 OA
ENDROOT
BRANCH   1   4
ATOM      4  C   UNL d   1     -50.326  26.639  33.643  0.00  0.00     0.197 A 
ATOM      5  N   UNL d   1     -50.408  25.817  33.682  0.00  0.00    -0.219 NA
ATOM      6  C   UNL d   1     -51.187  25.635  33.475  0.00  0.00     0.108 A 
ATOM      7  C   UNL d   1     -51.581  26.341  33.310  0.00  0.00     0.059 A 
ATOM      8  S   UNL d   1     -51.052  26.965  33.412  0.00  0.00    -0.046 SA
BRANCH   6   9
ATOM      9  C   UNL d   1     -51.509  24.888  33.441  0.00  0.00     0.100 A 
ATOM     10  N   UNL d   1     -51.013  24.226  33.340  0.00  0.00    -0.242 NA
ATOM     11  C   UNL d   1     -51.347  23.471  33.306  0.00  0.00     0.099 A 
ATOM     12  C   UNL d   1     -52.163  23.374  33.372  0.00  0.00     0.021 A 
ATOM     13  C   UNL d   1     -52.650  24.034  33.472  0.00  0.00     0.003 A 
ATOM     14  C   UNL d   1     -52.321  24.793  33.507  0.00  0.00     0.021 A 
ENDBRANCH   6   9
ENDBRANCH   1   4
BRANCH   2  15
ATOM     15  C   UNL d   1     -48.796  27.735  34.746  0.00  0.00     0.063 C 
BRANCH  15  16
ATOM     16  C   UNL d   1     -48.853  28.524  35.001  0.00  0.00     0.012 C 
BRANCH  16  17
ATOM     17  C   UNL d   1     -48.196  29.017  34.969  0.00  0.00     0.036 C 
BRANCH  17  18
ATOM     18  S   UNL d   1     -47.867  29.314  35.657  0.00  0.00    -0.086 SA
BRANCH  18  19
ATOM     19  C   UNL d   1     -47.559  30.079  35.672  0.00  0.00     0.029 A 
ATOM     20  C   UNL d   1     -47.971  30.694  35.306  0.00  0.00     0.005 A 
ATOM     21  C   UNL d   1     -47.667  31.460  35.319  0.00  0.00    -0.012 A 
ATOM     22  C   UNL d   1     -46.951  31.613  35.698  0.00  0.00     0.026 A 
ATOM     23  C   UNL d   1     -46.539  31.000  36.064  0.00  0.00    -0.012 A 
ATOM     24  C   UNL d   1     -46.843  30.232  36.052  0.00  0.00     0.005 A 
ENDBRANCH  18  19
ENDBRANCH  17  18
ENDBRANCH  16  17
ENDBRANCH  15  16
ENDBRANCH   2  15
TORSDOF 7
ENDMDL
