MODEL 1
REMARK VINA RESULT:      -7.4      0.000      0.000
REMARK  3 active torsions:
REMARK  status: ('A' for Active; 'I' for Inactive)
REMARK    1  A    between atoms: C_10  and  C_1 
REMARK    2  A    between atoms: C_8  and  N_5 
REMARK    3  A    between atoms: N_9  and  C_10 
ROOT
ATOM      1  C   UNL d   1     -47.775  13.625  23.355  0.00  0.00     0.084 C 
ENDROOT
BRANCH   1   2
ATOM      2  N   UNL d   1     -47.030  13.408  23.072  0.00  0.00    -0.300 N 
ATOM      3  C   UNL d   1     -46.622  13.907  22.561  0.00  0.00     0.100 A 
ATOM      4  C   UNL d   1     -45.873  13.690  22.277  0.00  0.00     0.101 A 
ATOM      5  N   UNL d   1     -45.540  12.973  22.507  0.00  0.00    -0.286 N 
ATOM      6  C   UNL d   1     -45.949  12.462  23.026  0.00  0.00     0.101 A 
ATOM      7  C   UNL d   1     -46.706  12.688  23.310  0.00  0.00     0.100 A 
BRANCH   5   8
ATOM      8  C   UNL d   1     -44.800  12.742  22.235  0.00  0.00     0.148 A 
ATOM      9  N   UNL d   1     -44.455  12.047  22.553  0.00  0.00    -0.227 NA
ATOM     10  C   UNL d   1     -43.702  11.806  22.282  0.00  0.00     0.101 A 
ATOM     11  C   UNL d   1     -43.313  12.252  21.708  0.00  0.00     0.021 A 
ATOM     12  C   UNL d   1     -43.661  12.938  21.399  0.00  0.00     0.005 A 
ATOM     13  C   UNL d   1     -44.402  13.181  21.662  0.00  0.00     0.037 A 
ENDBRANCH   5   8
ENDBRANCH   1   2
BRANCH   1  14
ATOM     14  C   UNL d   1     -48.449  13.516  22.885  0.00  0.00     0.059 A 
ATOM     15  C   UNL d   1     -49.051  14.101  22.875  0.00  0.00     0.214 A 
ATOM     16  C   UNL d   1     -49.712  13.975  22.403  0.00  0.00     0.121 A 
ATOM     17  O   UNL d   1     -48.976  14.780  23.327  0.00  0.00    -0.285 OA
ATOM     18  N   UNL d   1     -50.304  14.546  22.390  0.00  0.00    -0.241 NA
ATOM     19  C   UNL d   1     -49.786  13.298  21.953  0.00  0.00     0.032 A 
ATOM     20  C   UNL d   1     -50.989  14.440  21.916  0.00  0.00     0.099 A 
ATOM     21  C   UNL d   1     -51.064  13.756  21.461  0.00  0.00     0.021 A 
ATOM     22  C   UNL d   1     -50.461  13.182  21.478  0.00  0.00     0.004 A 
ATOM     23  C   UNL d   1     -49.203  12.724  21.959  0.00  0.00     0.059 A 
ATOM     24  C   UNL d   1     -48.516  12.836  22.438  0.00  0.00     0.016 A 
ATOM     25 CL   UNL d   1     -49.278  12.037  21.502  0.00  0.00    -0.082 Cl
ENDBRANCH   1  14
TORSDOF 3
ENDMDL
MODEL 2
REMARK VINA RESULT:      -6.8      8.329      9.807
REMARK  3 active torsions:
REMARK  status: ('A' for Active; 'I' for Inactive)
REMARK    1  A    between atoms: C_10  and  C_1 
REMARK    2  A    between atoms: C_8  and  N_5 
REMARK    3  A    between atoms: N_9  and  C_10 
ROOT
ATOM      1  C   UNL d   1     -40.131  14.900  18.472  0.00  0.00     0.084 C 
ENDROOT
BRANCH   1   2
ATOM      2  N   UNL d   1     -39.911  14.951  19.266  0.00  0.00    -0.300 N 
ATOM      3  C   UNL d   1     -40.311  14.509  19.833  0.00  0.00     0.100 A 
ATOM      4  C   UNL d   1     -40.091  14.559  20.632  0.00  0.00     0.101 A 
ATOM      5  N   UNL d   1     -39.470  15.052  20.856  0.00  0.00    -0.286 N 
ATOM      6  C   UNL d   1     -39.060  15.504  20.284  0.00  0.00     0.101 A 
ATOM      7  C   UNL d   1     -39.289  15.448  19.479  0.00  0.00     0.100 A 
BRANCH   5   8
ATOM      8  C   UNL d   1     -39.239  15.114  21.641  0.00  0.00     0.148 A 
ATOM      9  N   UNL d   1     -39.357  15.843  22.038  0.00  0.00    -0.227 NA
ATOM     10  C   UNL d   1     -39.125  15.914  22.837  0.00  0.00     0.101 A 
ATOM     11  C   UNL d   1     -38.786  15.269  23.222  0.00  0.00     0.021 A 
ATOM     12  C   UNL d   1     -38.672  14.551  22.823  0.00  0.00     0.005 A 
ATOM     13  C   UNL d   1     -38.899  14.475  22.036  0.00  0.00     0.037 A 
ENDBRANCH   5   8
ENDBRANCH   1   2
BRANCH   1  14
ATOM     14  C   UNL d   1     -39.647  14.502  17.928  0.00  0.00     0.059 A 
ATOM     15  C   UNL d   1     -39.405  14.889  17.223  0.00  0.00     0.214 A 
ATOM     16  C   UNL d   1     -38.927  14.479  16.697  0.00  0.00     0.121 A 
ATOM     17  O   UNL d   1     -39.644  15.657  17.069  0.00  0.00    -0.285 OA
ATOM     18  N   UNL d   1     -38.687  14.854  16.005  0.00  0.00    -0.241 NA
ATOM     19  C   UNL d   1     -38.689  13.714  16.850  0.00  0.00     0.032 A 
ATOM     20  C   UNL d   1     -38.197  14.456  15.451  0.00  0.00     0.099 A 
ATOM     21  C   UNL d   1     -37.957  13.683  15.605  0.00  0.00     0.021 A 
ATOM     22  C   UNL d   1     -38.203  13.308  16.308  0.00  0.00     0.004 A 
ATOM     23  C   UNL d   1     -38.922  13.331  17.536  0.00  0.00     0.059 A 
ATOM     24  C   UNL d   1     -39.414  13.737  18.089  0.00  0.00     0.016 A 
ATOM     25 CL   UNL d   1     -38.681  12.554  17.691  0.00  0.00    -0.082 Cl
ENDBRANCH   1  14
TORSDOF 3
ENDMDL
MODEL 3
REMARK VINA RESULT:      -6.5      8.425      9.096
REMARK  3 active torsions:
REMARK  status: ('A' for Active; 'I' for Inactive)
REMARK    1  A    between atoms: C_10  and  C_1 
REMARK    2  A    between atoms: C_8  and  N_5 
REMARK    3  A    between atoms: N_9  and  C_10 
ROOT
ATOM      1  C   UNL d   1     -39.574  13.765  19.169  0.00  0.00     0.084 C 
ENDROOT
BRANCH   1   2
ATOM      2  N   UNL d   1     -39.321  14.033  19.909  0.00  0.00    -0.300 N 
ATOM      3  C   UNL d   1     -38.544  13.909  20.148  0.00  0.00     0.100 A 
ATOM      4  C   UNL d   1     -38.288  14.177  20.890  0.00  0.00     0.101 A 
ATOM      5  N   UNL d   1     -38.815  14.570  21.387  0.00  0.00    -0.286 N 
ATOM      6  C   UNL d   1     -39.606  14.700  21.150  0.00  0.00     0.101 A 
ATOM      7  C   UNL d   1     -39.857  14.425  20.398  0.00  0.00     0.100 A 
BRANCH   5   8
ATOM      8  C   UNL d   1     -38.579  14.842  22.125  0.00  0.00     0.148 A 
ATOM      9  N   UNL d   1     -38.537  14.295  22.760  0.00  0.00    -0.227 NA
ATOM     10  C   UNL d   1     -38.298  14.565  23.514  0.00  0.00     0.101 A 
ATOM     11  C   UNL d   1     -38.108  15.359  23.621  0.00  0.00     0.021 A 
ATOM     12  C   UNL d   1     -38.152  15.894  22.989  0.00  0.00     0.005 A 
ATOM     13  C   UNL d   1     -38.387  15.635  22.244  0.00  0.00     0.037 A 
ENDBRANCH   5   8
ENDBRANCH   1   2
BRANCH   1  14
ATOM     14  C   UNL d   1     -39.724  14.305  18.557  0.00  0.00     0.059 A 
ATOM     15  C   UNL d   1     -40.468  14.300  18.169  0.00  0.00     0.214 A 
ATOM     16  C   UNL d   1     -40.598  14.842  17.565  0.00  0.00     0.121 A 
ATOM     17  O   UNL d   1     -41.048  13.767  18.392  0.00  0.00    -0.285 OA
ATOM     18  N   UNL d   1     -41.326  14.841  17.182  0.00  0.00    -0.241 NA
ATOM     19  C   UNL d   1     -40.020  15.373  17.344  0.00  0.00     0.032 A 
ATOM     20  C   UNL d   1     -41.483  15.385  16.562  0.00  0.00     0.099 A 
ATOM     21  C   UNL d   1     -40.899  15.922  16.338  0.00  0.00     0.021 A 
ATOM     22  C   UNL d   1     -40.164  15.918  16.729  0.00  0.00     0.004 A 
ATOM     23  C   UNL d   1     -39.292  15.383  17.718  0.00  0.00     0.059 A 
ATOM     24  C   UNL d   1     -39.140  14.833  18.342  0.00  0.00     0.016 A 
ATOM     25 CL   UNL d   1     -38.705  15.922  17.493  0.00  0.00    -0.082 Cl
ENDBRANCH   1  14
TORSDOF 3
ENDMDL
MODEL 4
REMARK VINA RESULT:      -5.9      8.355      9.539
REMARK  3 active torsions:
REMARK  status: ('A' for Active; 'I' for Inactive)
REMARK    1  A    between atoms: C_10  and  C_1 
REMARK    2  A    between atoms: C_8  and  N_5 
REMARK    3  A    between atoms: N_9  and  C_10 
ROOT
ATOM      1  C   UNL d   1     -40.170  14.768  19.915  0.00  0.00     0.084 C 
ENDROOT
BRANCH   1   2
ATOM      2  N   UNL d   1     -39.807  14.667  19.180  0.00  0.00    -0.300 N 
ATOM      3  C   UNL d   1     -39.304  15.249  18.886  0.00  0.00     0.100 A 
ATOM      4  C   UNL d   1     -38.938  15.150  18.148  0.00  0.00     0.101 A 
ATOM      5  N   UNL d   1     -39.080  14.467  17.709  0.00  0.00    -0.286 N 
ATOM      6  C   UNL d   1     -39.590  13.873  18.002  0.00  0.00     0.101 A 
ATOM      7  C   UNL d   1     -39.956  13.981  18.750  0.00  0.00     0.100 A 
BRANCH   5   8
ATOM      8  C   UNL d   1     -38.727  14.352  16.977  0.00  0.00     0.148 A 
ATOM      9  N   UNL d   1     -38.412  13.595  16.798  0.00  0.00    -0.227 NA
ATOM     10  C   UNL d   1     -38.051  13.470  16.055  0.00  0.00     0.101 A 
ATOM     11  C   UNL d   1     -38.010  14.089  15.512  0.00  0.00     0.021 A 
ATOM     12  C   UNL d   1     -38.324  14.834  15.697  0.00  0.00     0.005 A 
ATOM     13  C   UNL d   1     -38.681  14.964  16.427  0.00  0.00     0.037 A 
ENDBRANCH   5   8
ENDBRANCH   1   2
BRANCH   1  14
ATOM     14  C   UNL d   1     -39.732  14.677  20.614  0.00  0.00     0.059 A 
ATOM     15  C   UNL d   1     -39.784  15.258  21.217  0.00  0.00     0.214 A 
ATOM     16  C   UNL d   1     -39.343  15.151  21.902  0.00  0.00     0.121 A 
ATOM     17  O   UNL d   1     -40.264  15.915  21.121  0.00  0.00    -0.285 OA
ATOM     18  N   UNL d   1     -39.391  15.718  22.497  0.00  0.00    -0.241 NA
ATOM     19  C   UNL d   1     -38.865  14.497  21.999  0.00  0.00     0.032 A 
ATOM     20  C   UNL d   1     -38.950  15.631  23.206  0.00  0.00     0.099 A 
ATOM     21  C   UNL d   1     -38.467  14.971  23.304  0.00  0.00     0.021 A 
ATOM     22  C   UNL d   1     -38.423  14.400  22.699  0.00  0.00     0.004 A 
ATOM     23  C   UNL d   1     -38.810  13.927  21.414  0.00  0.00     0.059 A 
ATOM     24  C   UNL d   1     -39.256  14.020  20.702  0.00  0.00     0.016 A 
ATOM     25 CL   UNL d   1     -38.325  13.263  21.512  0.00  0.00    -0.082 Cl
ENDBRANCH   1  14
TORSDOF 3
ENDMDL
MODEL 5
REMARK VINA RESULT:      -5.7      1.691      5.042
REMARK  3 active torsions:
REMARK  status: ('A' for Active; 'I' for Inactive)
REMARK    1  A    between atoms: C_10  and  C_1 
REMARK    2  A    between atoms: C_8  and  N_5 
REMARK    3  A    between atoms: N_9  and  C_10 
ROOT
ATOM      1  C   UNL d   1     -46.280  13.252  22.259  0.00  0.00     0.084 C 
ENDROOT
BRANCH   1   2
ATOM      2  N   UNL d   1     -47.040  13.545  22.396  0.00  0.00    -0.300 N 
ATOM      3  C   UNL d   1     -47.178  14.050  23.030  0.00  0.00     0.100 A 
ATOM      4  C   UNL d   1     -47.940  14.346  23.170  0.00  0.00     0.101 A 
ATOM      5  N   UNL d   1     -48.560  14.131  22.671  0.00  0.00    -0.286 N 
ATOM      6  C   UNL d   1     -48.426  13.618  22.025  0.00  0.00     0.101 A 
ATOM      7  C   UNL d   1     -47.652  13.324  21.891  0.00  0.00     0.100 A 
BRANCH   5   8
ATOM      8  C   UNL d   1     -49.321  14.414  22.794  0.00  0.00     0.148 A 
ATOM      9  N   UNL d   1     -49.876  13.916  23.177  0.00  0.00    -0.227 NA
ATOM     10  C   UNL d   1     -50.653  14.196  23.307  0.00  0.00     0.101 A 
ATOM     11  C   UNL d   1     -50.860  14.953  23.057  0.00  0.00     0.021 A 
ATOM     12  C   UNL d   1     -50.305  15.440  22.679  0.00  0.00     0.005 A 
ATOM     13  C   UNL d   1     -49.539  15.170  22.549  0.00  0.00     0.037 A 
ENDBRANCH   5   8
ENDBRANCH   1   2
BRANCH   1  14
ATOM     14  C   UNL d   1     -46.033  12.545  22.617  0.00  0.00     0.059 A 
ATOM     15  C   UNL d   1     -45.219  12.336  22.610  0.00  0.00     0.214 A 
ATOM     16  C   UNL d   1     -44.993  11.633  22.969  0.00  0.00     0.121 A 
ATOM     17  O   UNL d   1     -44.669  12.826  22.252  0.00  0.00    -0.285 OA
ATOM     18  N   UNL d   1     -44.198  11.424  22.965  0.00  0.00    -0.241 NA
ATOM     19  C   UNL d   1     -45.542  11.146  23.326  0.00  0.00     0.032 A 
ATOM     20  C   UNL d   1     -43.942  10.710  23.326  0.00  0.00     0.099 A 
ATOM     21  C   UNL d   1     -44.496  10.218  23.687  0.00  0.00     0.021 A 
ATOM     22  C   UNL d   1     -45.300  10.435  23.688  0.00  0.00     0.004 A 
ATOM     23  C   UNL d   1     -46.336  11.345  23.336  0.00  0.00     0.059 A 
ATOM     24  C   UNL d   1     -46.588  12.064  22.971  0.00  0.00     0.016 A 
ATOM     25 CL   UNL d   1     -46.893  10.850  23.698  0.00  0.00    -0.082 Cl
ENDBRANCH   1  14
TORSDOF 3
ENDMDL
