MODEL 1
REMARK VINA RESULT:      -3.0      0.000      0.000
REMARK  2 active torsions:
REMARK  status: ('A' for Active; 'I' for Inactive)
REMARK    1  A    between atoms: C_2  and  S_1 
REMARK    2  A    between atoms: N_3  and  S_1 
ROOT
ATOM      1  S   UNL d   1      31.114  17.335 -24.336  0.00  0.00     0.272 S 
ATOM      2  O   UNL d   1      30.370  17.687 -24.380  0.00  0.00    -0.200 OA
ATOM      3  O   UNL d   1      31.177  16.510 -24.334  0.00  0.00    -0.200 OA
ENDROOT
BRANCH   1   4
ATOM      4  C   UNL d   1      30.438  16.865 -24.377  0.00  0.00     0.115 A 
ATOM      5  C   UNL d   1      30.491  16.105 -24.671  0.00  0.00     0.071 A 
ATOM      6  C   UNL d   1      29.823  15.632 -24.715  0.00  0.00     0.024 A 
ATOM      7 CL   UNL d   1      31.211  15.794 -24.930  0.00  0.00    -0.082 Cl
ATOM      8  C   UNL d   1      29.091  15.926 -24.460  0.00  0.00     0.059 A 
ATOM      9  C   UNL d   1      29.046  16.695 -24.164  0.00  0.00     0.011 A 
ATOM     10 CL   UNL d   1      28.418  15.453 -24.503  0.00  0.00    -0.082 Cl
ATOM     11  C   UNL d   1      29.716  17.166 -24.122  0.00  0.00     0.015 A 
ATOM     12  C   UNL d   1      28.315  16.985 -23.911  0.00  0.00     0.001 C 
ENDBRANCH   1   4
BRANCH   1  13
ATOM     13  N   UNL d   1      31.792  17.801 -24.295  0.00  0.00    -0.229 N 
ATOM     14  C   UNL d   1      32.102  17.869 -23.503  0.00  0.00     0.092 A 
ATOM     15  C   UNL d   1      32.667  18.208 -23.213  0.00  0.00     0.020 A 
ATOM     16  C   UNL d   1      33.225  18.675 -23.619  0.00  0.00     0.002 A 
ATOM     17  C   UNL d   1      33.233  18.842 -24.479  0.00  0.00     0.002 A 
ATOM     18  C   UNL d   1      32.666  18.562 -25.097  0.00  0.00     0.020 A 
ATOM     19  C   UNL d   1      31.995  18.068 -24.960  0.00  0.00     0.092 A 
ENDBRANCH   1  13
TORSDOF 2
ENDMDL
MODEL 2
REMARK VINA RESULT:      -2.7      1.423      3.701
REMARK  2 active torsions:
REMARK  status: ('A' for Active; 'I' for Inactive)
REMARK    1  A    between atoms: C_2  and  S_1 
REMARK    2  A    between atoms: N_3  and  S_1 
ROOT
ATOM      1  S   UNL d   1      30.243  16.634 -24.162  0.00  0.00     0.272 S 
ATOM      2  O   UNL d   1      30.824  16.365 -23.643  0.00  0.00    -0.200 OA
ATOM      3  O   UNL d   1      30.417  17.244 -24.692  0.00  0.00    -0.200 OA
ENDROOT
BRANCH   1   4
ATOM      4  C   UNL d   1      30.994  16.973 -24.174  0.00  0.00     0.115 A 
ATOM      5  C   UNL d   1      31.122  17.655 -24.604  0.00  0.00     0.071 A 
ATOM      6  C   UNL d   1      31.867  17.998 -24.621  0.00  0.00     0.024 A 
ATOM      7 CL   UNL d   1      30.513  18.015 -25.029  0.00  0.00    -0.082 Cl
ATOM      8  C   UNL d   1      32.491  17.651 -24.200  0.00  0.00     0.059 A 
ATOM      9  C   UNL d   1      32.353  16.962 -23.768  0.00  0.00     0.011 A 
ATOM     10 CL   UNL d   1      33.241  17.994 -24.215  0.00  0.00    -0.082 Cl
ATOM     11  C   UNL d   1      31.608  16.621 -23.753  0.00  0.00     0.015 A 
ATOM     12  C   UNL d   1      32.977  16.619 -23.350  0.00  0.00     0.001 C 
ENDBRANCH   1   4
BRANCH   1  13
ATOM     13  N   UNL d   1      29.491  16.298 -24.153  0.00  0.00    -0.229 N 
ATOM     14  C   UNL d   1      29.036  16.516 -23.464  0.00  0.00     0.092 A 
ATOM     15  C   UNL d   1      28.374  16.359 -23.230  0.00  0.00     0.020 A 
ATOM     16  C   UNL d   1      27.817  15.871 -23.612  0.00  0.00     0.002 A 
ATOM     17  C   UNL d   1      27.931  15.453 -24.373  0.00  0.00     0.002 A 
ATOM     18  C   UNL d   1      28.643  15.453 -24.897  0.00  0.00     0.020 A 
ATOM     19  C   UNL d   1      29.363  15.871 -24.749  0.00  0.00     0.092 A 
ENDBRANCH   1  13
TORSDOF 2
ENDMDL
MODEL 3
REMARK VINA RESULT:      -2.6      2.308      4.051
REMARK  2 active torsions:
REMARK  status: ('A' for Active; 'I' for Inactive)
REMARK    1  A    between atoms: C_2  and  S_1 
REMARK    2  A    between atoms: N_3  and  S_1 
ROOT
ATOM      1  S   UNL d   1      32.652  17.949 -23.507  0.00  0.00     0.272 S 
ATOM      2  O   UNL d   1      32.853  18.135 -22.730  0.00  0.00    -0.200 OA
ATOM      3  O   UNL d   1      32.599  18.551 -24.072  0.00  0.00    -0.200 OA
ENDROOT
BRANCH   1   4
ATOM      4  C   UNL d   1      32.799  18.732 -23.296  0.00  0.00     0.115 A 
ATOM      5  C   UNL d   1      32.843  19.305 -23.876  0.00  0.00     0.071 A 
ATOM      6  C   UNL d   1      32.990  20.086 -23.674  0.00  0.00     0.024 A 
ATOM      7 CL   UNL d   1      32.743  19.117 -24.674  0.00  0.00    -0.082 Cl
ATOM      8  C   UNL d   1      33.094  20.295 -22.879  0.00  0.00     0.059 A 
ATOM      9  C   UNL d   1      33.048  19.710 -22.299  0.00  0.00     0.011 A 
ATOM     10 CL   UNL d   1      33.241  21.079 -22.673  0.00  0.00    -0.082 Cl
ATOM     11  C   UNL d   1      32.901  18.930 -22.504  0.00  0.00     0.015 A 
ATOM     12  C   UNL d   1      33.151  19.921 -21.507  0.00  0.00     0.001 C 
ENDBRANCH   1   4
BRANCH   1  13
ATOM     13  N   UNL d   1      32.503  17.168 -23.721  0.00  0.00    -0.229 N 
ATOM     14  C   UNL d   1      31.676  16.962 -23.682  0.00  0.00     0.092 A 
ATOM     15  C   UNL d   1      31.301  16.362 -23.815  0.00  0.00     0.020 A 
ATOM     16  C   UNL d   1      31.611  15.632 -24.070  0.00  0.00     0.002 A 
ATOM     17  C   UNL d   1      32.454  15.453 -24.226  0.00  0.00     0.002 A 
ATOM     18  C   UNL d   1      33.152  15.992 -24.150  0.00  0.00     0.020 A 
ATOM     19  C   UNL d   1      33.124  16.800 -23.906  0.00  0.00     0.092 A 
ENDBRANCH   1  13
TORSDOF 2
ENDMDL
MODEL 4
REMARK VINA RESULT:      -2.0      3.962      5.235
REMARK  2 active torsions:
REMARK  status: ('A' for Active; 'I' for Inactive)
REMARK    1  A    between atoms: C_2  and  S_1 
REMARK    2  A    between atoms: N_3  and  S_1 
ROOT
ATOM      1  S   UNL d   1      32.840  21.023 -21.848  0.00  0.00     0.272 S 
ATOM      2  O   UNL d   1      33.057  20.874 -22.629  0.00  0.00    -0.200 OA
ATOM      3  O   UNL d   1      32.724  20.391 -21.327  0.00  0.00    -0.200 OA
ENDROOT
BRANCH   1   4
ATOM      4  C   UNL d   1      32.940  20.247 -22.106  0.00  0.00     0.115 A 
ATOM      5  C   UNL d   1      33.137  19.664 -21.569  0.00  0.00     0.071 A 
ATOM      6  C   UNL d   1      33.238  18.890 -21.819  0.00  0.00     0.024 A 
ATOM      7 CL   UNL d   1      33.239  19.836 -20.768  0.00  0.00    -0.082 Cl
ATOM      8  C   UNL d   1      33.140  18.698 -22.619  0.00  0.00     0.059 A 
ATOM      9  C   UNL d   1      32.941  19.292 -23.156  0.00  0.00     0.011 A 
ATOM     10 CL   UNL d   1      33.241  17.920 -22.873  0.00  0.00    -0.082 Cl
ATOM     11  C   UNL d   1      32.841  20.066 -22.903  0.00  0.00     0.015 A 
ATOM     12  C   UNL d   1      32.844  19.098 -23.952  0.00  0.00     0.001 C 
ENDBRANCH   1   4
BRANCH   1  13
ATOM     13  N   UNL d   1      32.740  21.797 -21.585  0.00  0.00    -0.229 N 
ATOM     14  C   UNL d   1      33.165  22.367 -22.057  0.00  0.00     0.092 A 
ATOM     15  C   UNL d   1      33.237  23.083 -22.034  0.00  0.00     0.020 A 
ATOM     16  C   UNL d   1      32.886  23.598 -21.481  0.00  0.00     0.002 A 
ATOM     17  C   UNL d   1      32.360  23.368 -20.820  0.00  0.00     0.002 A 
ATOM     18  C   UNL d   1      32.089  22.558 -20.592  0.00  0.00     0.020 A 
ATOM     19  C   UNL d   1      32.296  21.840 -20.988  0.00  0.00     0.092 A 
ENDBRANCH   1  13
TORSDOF 2
ENDMDL
MODEL 5
REMARK VINA RESULT:      -1.8      4.587      5.859
REMARK  2 active torsions:
REMARK  status: ('A' for Active; 'I' for Inactive)
REMARK    1  A    between atoms: C_2  and  S_1 
REMARK    2  A    between atoms: N_3  and  S_1 
ROOT
ATOM      1  S   UNL d   1      32.869  21.509 -21.308  0.00  0.00     0.272 S 
ATOM      2  O   UNL d   1      32.964  20.713 -21.116  0.00  0.00    -0.200 OA
ATOM      3  O   UNL d   1      32.868  21.741 -22.102  0.00  0.00    -0.200 OA
ENDROOT
BRANCH   1   4
ATOM      4  C   UNL d   1      32.962  20.949 -21.906  0.00  0.00     0.115 A 
ATOM      5  C   UNL d   1      33.145  21.194 -22.663  0.00  0.00     0.071 A 
ATOM      6  C   UNL d   1      33.239  20.643 -23.263  0.00  0.00     0.024 A 
ATOM      7 CL   UNL d   1      33.241  21.994 -22.845  0.00  0.00    -0.082 Cl
ATOM      8  C   UNL d   1      33.147  19.835 -23.101  0.00  0.00     0.059 A 
ATOM      9  C   UNL d   1      32.962  19.596 -22.333  0.00  0.00     0.011 A 
ATOM     10 CL   UNL d   1      33.241  19.279 -23.702  0.00  0.00    -0.082 Cl
ATOM     11  C   UNL d   1      32.869  20.150 -21.735  0.00  0.00     0.015 A 
ATOM     12  C   UNL d   1      32.871  18.791 -22.174  0.00  0.00     0.001 C 
ENDBRANCH   1   4
BRANCH   1  13
ATOM     13  N   UNL d   1      32.777  22.071 -20.713  0.00  0.00    -0.229 N 
ATOM     14  C   UNL d   1      33.170  21.857 -19.987  0.00  0.00     0.092 A 
ATOM     15  C   UNL d   1      33.237  22.168 -19.341  0.00  0.00     0.020 A 
ATOM     16  C   UNL d   1      32.913  22.900 -19.110  0.00  0.00     0.002 A 
ATOM     17  C   UNL d   1      32.427  23.432 -19.607  0.00  0.00     0.002 A 
ATOM     18  C   UNL d   1      32.175  23.318 -20.448  0.00  0.00     0.020 A 
ATOM     19  C   UNL d   1      32.367  22.653 -20.933  0.00  0.00     0.092 A 
ENDBRANCH   1  13
TORSDOF 2
ENDMDL
MODEL 6
REMARK VINA RESULT:      -1.6      1.328      1.985
REMARK  2 active torsions:
REMARK  status: ('A' for Active; 'I' for Inactive)
REMARK    1  A    between atoms: C_2  and  S_1 
REMARK    2  A    between atoms: N_3  and  S_1 
ROOT
ATOM      1  S   UNL d   1      32.161  18.234 -23.938  0.00  0.00     0.272 S 
ATOM      2  O   UNL d   1      31.518  18.274 -24.452  0.00  0.00    -0.200 OA
ATOM      3  O   UNL d   1      32.463  17.497 -23.716  0.00  0.00    -0.200 OA
ENDROOT
BRANCH   1   4
ATOM      4  C   UNL d   1      31.822  17.541 -24.228  0.00  0.00     0.115 A 
ATOM      5  C   UNL d   1      32.283  16.874 -24.319  0.00  0.00     0.071 A 
ATOM      6  C   UNL d   1      31.952  16.180 -24.607  0.00  0.00     0.024 A 
ATOM      7 CL   UNL d   1      33.086  16.876 -24.128  0.00  0.00    -0.082 Cl
ATOM      8  C   UNL d   1      31.147  16.157 -24.804  0.00  0.00     0.059 A 
ATOM      9  C   UNL d   1      30.689  16.836 -24.708  0.00  0.00     0.011 A 
ATOM     10 CL   UNL d   1      30.812  15.462 -25.093  0.00  0.00    -0.082 Cl
ATOM     11  C   UNL d   1      31.022  17.528 -24.421  0.00  0.00     0.015 A 
ATOM     12  C   UNL d   1      29.887  16.810 -24.906  0.00  0.00     0.001 C 
ENDBRANCH   1   4
BRANCH   1  13
ATOM     13  N   UNL d   1      32.504  18.925 -23.647  0.00  0.00    -0.229 N 
ATOM     14  C   UNL d   1      32.678  19.494 -24.259  0.00  0.00     0.092 A 
ATOM     15  C   UNL d   1      32.969  20.153 -24.263  0.00  0.00     0.020 A 
ATOM     16  C   UNL d   1      33.241  20.577 -23.599  0.00  0.00     0.002 A 
ATOM     17  C   UNL d   1      33.225  20.304 -22.768  0.00  0.00     0.002 A 
ATOM     18  C   UNL d   1      32.926  19.535 -22.449  0.00  0.00     0.020 A 
ATOM     19  C   UNL d   1      32.591  18.910 -22.908  0.00  0.00     0.092 A 
ENDBRANCH   1  13
TORSDOF 2
ENDMDL
