MODEL 1
REMARK VINA RESULT:      -0.1      0.000      0.000
REMARK  2 active torsions:
REMARK  status: ('A' for Active; 'I' for Inactive)
REMARK    1  A    between atoms: CA_2  and  C_1 
REMARK    2  A    between atoms: C_3  and  CA_2 
ROOT
ATOM      1  C   UNL d   1      45.497 -13.452  44.201  0.00  0.00     0.025 A 
ATOM      2  C   UNL d   1      44.781 -13.859  44.307  0.00  0.00     0.003 A 
ATOM      3  C   UNL d   1      46.219 -13.840  44.349  0.00  0.00     0.003 A 
ATOM      4  C   UNL d   1      45.507 -15.031  44.705  0.00  0.00     0.058 A 
ATOM      5  C   UNL d   1      44.791 -14.647  44.558  0.00  0.00     0.011 A 
ATOM      6  C   UNL d   1      46.218 -14.631  44.601  0.00  0.00     0.011 A 
ATOM      7 CL   UNL d   1      45.509 -15.816  44.955  0.00  0.00    -0.082 Cl
ENDROOT
BRANCH   1   8
ATOM      8  CA  UNL d   1      45.494 -12.667  43.951  0.00  0.00     0.167 C 
ATOM      9  N   UNL d   1      45.831 -12.080  44.421  0.00  0.00    -0.142 N 
BRANCH   8  10
ATOM     10  C   UNL d   1      45.150 -12.474  43.226  0.00  0.00     0.231 C 
ATOM     11  O   UNL d   1      44.417 -12.102  43.195  0.00  0.00    -0.643 OA
ATOM     12  OXT UNL d   1      45.546 -12.655  42.524  0.00  0.00    -0.643 OA
ENDBRANCH   8  10
ENDBRANCH   1   8
TORSDOF 2
ENDMDL
MODEL 2
REMARK VINA RESULT:       2.0      7.412      7.890
REMARK  2 active torsions:
REMARK  status: ('A' for Active; 'I' for Inactive)
REMARK    1  A    between atoms: CA_2  and  C_1 
REMARK    2  A    between atoms: C_3  and  CA_2 
ROOT
ATOM      1  C   UNL d   1      44.479 -15.485  36.693  0.00  0.00     0.025 A 
ATOM      2  C   UNL d   1      44.519 -14.757  37.092  0.00  0.00     0.003 A 
ATOM      3  C   UNL d   1      45.168 -15.814  36.361  0.00  0.00     0.003 A 
ATOM      4  C   UNL d   1      45.928 -14.691  36.824  0.00  0.00     0.058 A 
ATOM      5  C   UNL d   1      45.245 -14.365  37.154  0.00  0.00     0.011 A 
ATOM      6  C   UNL d   1      45.891 -15.412  36.429  0.00  0.00     0.011 A 
ATOM      7 CL   UNL d   1      46.647 -14.295  36.890  0.00  0.00    -0.082 Cl
ENDROOT
BRANCH   1   8
ATOM      8  CA  UNL d   1      43.759 -15.881  36.628  0.00  0.00     0.167 C 
ATOM      9  N   UNL d   1      43.734 -16.649  36.330  0.00  0.00    -0.142 N 
BRANCH   8  10
ATOM     10  C   UNL d   1      43.065 -15.502  36.862  0.00  0.00     0.231 C 
ATOM     11  O   UNL d   1      42.991 -15.193  37.621  0.00  0.00    -0.643 OA
ATOM     12  OXT UNL d   1      42.437 -15.433  36.330  0.00  0.00    -0.643 OA
ENDBRANCH   8  10
ENDBRANCH   1   8
TORSDOF 2
ENDMDL
MODEL 3
REMARK VINA RESULT:       2.1      7.364      7.777
REMARK  2 active torsions:
REMARK  status: ('A' for Active; 'I' for Inactive)
REMARK    1  A    between atoms: CA_2  and  C_1 
REMARK    2  A    between atoms: C_3  and  CA_2 
ROOT
ATOM      1  C   UNL d   1      44.792 -15.441  36.889  0.00  0.00     0.025 A 
ATOM      2  C   UNL d   1      44.232 -14.871  37.119  0.00  0.00     0.003 A 
ATOM      3  C   UNL d   1      44.543 -16.131  36.495  0.00  0.00     0.003 A 
ATOM      4  C   UNL d   1      43.184 -15.680  36.563  0.00  0.00     0.058 A 
ATOM      5  C   UNL d   1      43.431 -14.996  36.953  0.00  0.00     0.011 A 
ATOM      6  C   UNL d   1      43.736 -16.246  36.334  0.00  0.00     0.011 A 
ATOM      7 CL   UNL d   1      42.385 -15.797  36.401  0.00  0.00    -0.082 Cl
ENDROOT
BRANCH   1   8
ATOM      8  CA  UNL d   1      45.591 -15.323  37.051  0.00  0.00     0.167 C 
ATOM      9  N   UNL d   1      46.030 -15.911  37.426  0.00  0.00    -0.142 N 
BRANCH   8  10
ATOM     10  C   UNL d   1      45.948 -14.611  36.835  0.00  0.00     0.231 C 
ATOM     11  O   UNL d   1      46.600 -14.604  36.333  0.00  0.00    -0.643 OA
ATOM     12  OXT UNL d   1      45.649 -13.898  37.125  0.00  0.00    -0.643 OA
ENDBRANCH   8  10
ENDBRANCH   1   8
TORSDOF 2
ENDMDL
