MODEL 1
REMARK VINA RESULT:      29.2      0.000      0.000
REMARK  3 active torsions:
REMARK  status: ('A' for Active; 'I' for Inactive)
REMARK    1  A    between atoms: C_6  and  C_1 
REMARK    2  A    between atoms: C_7  and  C_4 
REMARK    3  A    between atoms: O_14  and  C_6 
ROOT
ATOM      1  C   UNL d   1     -53.135  24.291  33.843  0.00  0.00     0.167 A 
ATOM      2  C   UNL d   1     -52.337  24.244  34.069  0.00  0.00     0.047 A 
ATOM      3  N   UNL d   1     -52.918  25.596  33.341  0.00  0.00    -0.148 NA
ATOM      4  C   UNL d   1     -52.124  25.553  33.564  0.00  0.00     0.105 A 
ATOM      5  N   UNL d   1     -53.428  24.967  33.478  0.00  0.00    -0.143 NA
ENDROOT
BRANCH   4   6
ATOM      6  C   UNL d   1     -51.475  26.057  33.516  0.00  0.00     0.019 A 
ATOM      7  C   UNL d   1     -50.714  25.739  33.494  0.00  0.00     0.002 A 
ATOM      8  C   UNL d   1     -50.064  26.242  33.446  0.00  0.00     0.000 A 
ATOM      9  C   UNL d   1     -50.601  24.927  33.521  0.00  0.00     0.000 C 
ATOM     10  C   UNL d   1     -50.176  27.064  33.420  0.00  0.00     0.000 A 
ATOM     11  C   UNL d   1     -50.939  27.372  33.442  0.00  0.00     0.000 A 
ATOM     12  C   UNL d   1     -49.522  27.567  33.371  0.00  0.00     0.000 C 
ATOM     13  C   UNL d   1     -51.587  26.874  33.489  0.00  0.00     0.002 A 
ENDBRANCH   4   6
BRANCH   1  14
ATOM     14  C   UNL d   1     -53.638  23.650  33.988  0.00  0.00     0.316 C 
ATOM     15  O   UNL d   1     -54.067  23.320  33.369  0.00  0.00    -0.257 OA
BRANCH  14  16
ATOM     16  O   UNL d   1     -53.708  23.345  34.745  0.00  0.00    -0.294 OA
ATOM     17  C   UNL d   1     -54.478  23.285  35.117  0.00  0.00     0.185 C 
ENDBRANCH  14  16
ENDBRANCH   1  14
TORSDOF 3
ENDMDL
MODEL 2
REMARK VINA RESULT:      31.8      0.998      1.570
REMARK  3 active torsions:
REMARK  status: ('A' for Active; 'I' for Inactive)
REMARK    1  A    between atoms: C_6  and  C_1 
REMARK    2  A    between atoms: C_7  and  C_4 
REMARK    3  A    between atoms: O_14  and  C_6 
ROOT
ATOM      1  C   UNL d   1     -52.982  23.967  33.954  0.00  0.00     0.167 A 
ATOM      2  C   UNL d   1     -52.656  24.677  34.234  0.00  0.00     0.047 A 
ATOM      3  N   UNL d   1     -51.762  23.660  33.306  0.00  0.00    -0.148 NA
ATOM      4  C   UNL d   1     -51.434  24.366  33.584  0.00  0.00     0.105 A 
ATOM      5  N   UNL d   1     -52.535  23.456  33.489  0.00  0.00    -0.143 NA
ENDROOT
BRANCH   4   6
ATOM      6  C   UNL d   1     -50.703  24.738  33.514  0.00  0.00     0.019 A 
ATOM      7  C   UNL d   1     -50.667  25.562  33.488  0.00  0.00     0.002 A 
ATOM      8  C   UNL d   1     -49.937  25.935  33.419  0.00  0.00     0.000 A 
ATOM      9  C   UNL d   1     -51.353  26.010  33.531  0.00  0.00     0.000 C 
ATOM     10  C   UNL d   1     -49.242  25.484  33.376  0.00  0.00     0.000 A 
ATOM     11  C   UNL d   1     -49.287  24.662  33.403  0.00  0.00     0.000 A 
ATOM     12  C   UNL d   1     -48.510  25.860  33.306  0.00  0.00     0.000 C 
ATOM     13  C   UNL d   1     -50.013  24.288  33.472  0.00  0.00     0.002 A 
ENDBRANCH   4   6
BRANCH   1  14
ATOM     14  C   UNL d   1     -53.763  23.773  34.145  0.00  0.00     0.316 C 
ATOM     15  O   UNL d   1     -54.269  23.493  33.561  0.00  0.00    -0.257 OA
BRANCH  14  16
ATOM     16  O   UNL d   1     -54.032  23.861  34.914  0.00  0.00    -0.294 OA
ATOM     17  C   UNL d   1     -54.354  23.189  35.338  0.00  0.00     0.185 C 
ENDBRANCH  14  16
ENDBRANCH   1  14
TORSDOF 3
ENDMDL
