MODEL 1
REMARK VINA RESULT:      -9.7      0.000      0.000
REMARK  4 active torsions:
REMARK  status: ('A' for Active; 'I' for Inactive)
REMARK    1  A    between atoms: C_2  and  S_1 
REMARK    2  A    between atoms: N_3  and  S_1 
REMARK    3  A    between atoms: C_4  and  C_6 
REMARK       I    between atoms: N_5  and  C_4 
REMARK    4  A    between atoms: C_11  and  N_8 
ROOT
ATOM      1  C   UNL d   1      52.316  33.208  53.123  0.00  0.00     0.104 A 
ATOM      2  C   UNL d   1      51.432  34.109  52.465  0.00  0.00     0.057 A 
ATOM      3  C   UNL d   1      51.725  33.343  52.571  0.00  0.00     0.018 A 
ATOM      4  C   UNL d   1      52.622  33.825  53.571  0.00  0.00     0.012 A 
ATOM      5  C   UNL d   1      51.734  34.732  52.911  0.00  0.00     0.005 A 
ATOM      6  C   UNL d   1      52.329  34.591  53.465  0.00  0.00     0.001 A 
ATOM      7  C   UNL d   1      53.214  33.690  54.123  0.00  0.00     0.001 C 
ENDROOT
BRANCH   2   8
ATOM      8  C   UNL d   1      50.836  34.260  51.913  0.00  0.00     0.265 C 
ATOM      9  N   UNL d   1      50.131  34.605  52.167  0.00  0.00    -0.269 N 
ATOM     10  C   UNL d   1      49.537  34.757  51.624  0.00  0.00     0.102 A 
ATOM     11  C   UNL d   1      50.033  34.791  52.966  0.00  0.00     0.102 A 
ATOM     12  C   UNL d   1      48.832  35.101  51.879  0.00  0.00     0.100 A 
ATOM     13  N   UNL d   1      48.727  35.290  52.676  0.00  0.00    -0.301 N 
ATOM     14  C   UNL d   1      49.328  35.135  53.217  0.00  0.00     0.100 A 
ATOM     15  O   UNL d   1      50.947  34.070  51.125  0.00  0.00    -0.267 OA
BRANCH  13  16
ATOM     16  C   UNL d   1      48.021  35.635  52.930  0.00  0.00     0.064 A 
ATOM     17  C   UNL d   1      47.367  35.652  52.425  0.00  0.00     0.020 A 
ATOM     18  C   UNL d   1      46.662  35.997  52.680  0.00  0.00     0.031 A 
ATOM     19  C   UNL d   1      46.604  36.324  53.434  0.00  0.00     0.140 A 
ATOM     20  C   UNL d   1      47.267  36.304  53.942  0.00  0.00     0.031 A 
ATOM     21  F   UNL d   1      45.899  36.668  53.689  0.00  0.00    -0.204 F 
ATOM     22  C   UNL d   1      47.973  35.959  53.687  0.00  0.00     0.020 A 
ENDBRANCH  13  16
ENDBRANCH   2   8
BRANCH   1  23
ATOM     23  S   UNL d   1      52.609  32.442  53.229  0.00  0.00     0.271 S 
ATOM     24  O   UNL d   1      52.043  32.308  53.816  0.00  0.00    -0.200 OA
ATOM     25  O   UNL d   1      53.261  32.598  52.553  0.00  0.00    -0.200 OA
BRANCH  23  26
ATOM     26  N   UNL d   1      52.943  31.691  53.290  0.00  0.00    -0.229 N 
ATOM     27  C   UNL d   1      52.559  31.052  52.945  0.00  0.00     0.092 A 
ATOM     28  C   UNL d   1      52.891  30.295  53.004  0.00  0.00     0.020 A 
ATOM     29  C   UNL d   1      53.601  30.196  53.407  0.00  0.00     0.003 A 
ATOM     30  C   UNL d   1      53.978  30.834  53.748  0.00  0.00     0.020 A 
ATOM     31  C   UNL d   1      53.654  31.581  53.692  0.00  0.00     0.092 A 
ENDBRANCH  23  26
ENDBRANCH   1  23
TORSDOF 4
ENDMDL
MODEL 2
REMARK VINA RESULT:      -8.7      1.558      2.322
REMARK  4 active torsions:
REMARK  status: ('A' for Active; 'I' for Inactive)
REMARK    1  A    between atoms: C_2  and  S_1 
REMARK    2  A    between atoms: N_3  and  S_1 
REMARK    3  A    between atoms: C_4  and  C_6 
REMARK       I    between atoms: N_5  and  C_4 
REMARK    4  A    between atoms: C_11  and  N_8 
ROOT
ATOM      1  C   UNL d   1      53.491  32.293  53.640  0.00  0.00     0.104 A 
ATOM      2  C   UNL d   1      52.991  33.613  53.824  0.00  0.00     0.057 A 
ATOM      3  C   UNL d   1      52.890  32.794  53.884  0.00  0.00     0.018 A 
ATOM      4  C   UNL d   1      54.193  32.593  53.338  0.00  0.00     0.012 A 
ATOM      5  C   UNL d   1      53.693  33.921  53.522  0.00  0.00     0.005 A 
ATOM      6  C   UNL d   1      54.294  33.412  53.278  0.00  0.00     0.001 A 
ATOM      7  C   UNL d   1      54.795  32.092  53.094  0.00  0.00     0.001 C 
ENDROOT
BRANCH   2   8
ATOM      8  C   UNL d   1      52.394  34.130  54.065  0.00  0.00     0.265 C 
ATOM      9  N   UNL d   1      51.736  34.239  53.580  0.00  0.00    -0.269 N 
ATOM     10  C   UNL d   1      51.142  34.751  53.815  0.00  0.00     0.102 A 
ATOM     11  C   UNL d   1      51.685  33.830  52.864  0.00  0.00     0.102 A 
ATOM     12  C   UNL d   1      50.484  34.860  53.329  0.00  0.00     0.100 A 
ATOM     13  N   UNL d   1      50.426  34.454  52.612  0.00  0.00    -0.301 N 
ATOM     14  C   UNL d   1      51.027  33.941  52.382  0.00  0.00     0.100 A 
ATOM     15  O   UNL d   1      52.459  34.529  54.777  0.00  0.00    -0.267 OA
BRANCH  13  16
ATOM     16  C   UNL d   1      49.767  34.563  52.127  0.00  0.00     0.064 A 
ATOM     17  C   UNL d   1      49.082  34.910  52.434  0.00  0.00     0.020 A 
ATOM     18  C   UNL d   1      48.425  35.018  51.949  0.00  0.00     0.031 A 
ATOM     19  C   UNL d   1      48.444  34.784  51.158  0.00  0.00     0.140 A 
ATOM     20  C   UNL d   1      49.138  34.435  50.851  0.00  0.00     0.031 A 
ATOM     21  F   UNL d   1      47.787  34.893  50.673  0.00  0.00    -0.204 F 
ATOM     22  C   UNL d   1      49.796  34.326  51.337  0.00  0.00     0.020 A 
ENDBRANCH  13  16
ENDBRANCH   2   8
BRANCH   1  23
ATOM     23  S   UNL d   1      53.390  31.474  53.700  0.00  0.00     0.271 S 
ATOM     24  O   UNL d   1      53.661  31.497  54.480  0.00  0.00    -0.200 OA
ATOM     25  O   UNL d   1      53.078  31.447  52.801  0.00  0.00    -0.200 OA
BRANCH  23  26
ATOM     26  N   UNL d   1      53.269  30.659  53.699  0.00  0.00    -0.229 N 
ATOM     27  C   UNL d   1      52.956  30.300  53.029  0.00  0.00     0.092 A 
ATOM     28  C   UNL d   1      52.833  29.480  53.024  0.00  0.00     0.020 A 
ATOM     29  C   UNL d   1      53.025  29.040  53.691  0.00  0.00     0.003 A 
ATOM     30  C   UNL d   1      53.334  29.401  54.354  0.00  0.00     0.020 A 
ATOM     31  C   UNL d   1      53.457  30.207  54.362  0.00  0.00     0.092 A 
ENDBRANCH  23  26
ENDBRANCH   1  23
TORSDOF 4
ENDMDL
MODEL 3
REMARK VINA RESULT:      -7.6      2.420      6.008
REMARK  4 active torsions:
REMARK  status: ('A' for Active; 'I' for Inactive)
REMARK    1  A    between atoms: C_2  and  S_1 
REMARK    2  A    between atoms: N_3  and  S_1 
REMARK    3  A    between atoms: C_4  and  C_6 
REMARK       I    between atoms: N_5  and  C_4 
REMARK    4  A    between atoms: C_11  and  N_8 
ROOT
ATOM      1  C   UNL d   1      49.356  35.001  52.554  0.00  0.00     0.104 A 
ATOM      2  C   UNL d   1      50.712  34.573  52.627  0.00  0.00     0.057 A 
ATOM      3  C   UNL d   1      50.060  34.947  52.972  0.00  0.00     0.018 A 
ATOM      4  C   UNL d   1      49.291  34.690  51.797  0.00  0.00     0.012 A 
ATOM      5  C   UNL d   1      50.654  34.258  51.868  0.00  0.00     0.005 A 
ATOM      6  C   UNL d   1      49.944  34.316  51.452  0.00  0.00     0.001 A 
ATOM      7  C   UNL d   1      48.587  34.744  51.378  0.00  0.00     0.001 C 
ENDROOT
BRANCH   2   8
ATOM      8  C   UNL d   1      51.427  34.510  53.035  0.00  0.00     0.265 C 
ATOM      9  N   UNL d   1      51.778  33.768  53.120  0.00  0.00    -0.269 N 
ATOM     10  C   UNL d   1      52.486  33.701  53.524  0.00  0.00     0.102 A 
ATOM     11  C   UNL d   1      51.409  33.104  52.797  0.00  0.00     0.102 A 
ATOM     12  C   UNL d   1      52.837  32.959  53.610  0.00  0.00     0.100 A 
ATOM     13  N   UNL d   1      52.474  32.290  53.289  0.00  0.00    -0.301 N 
ATOM     14  C   UNL d   1      51.762  32.365  52.884  0.00  0.00     0.100 A 
ATOM     15  O   UNL d   1      51.780  35.178  53.350  0.00  0.00    -0.267 OA
BRANCH  13  16
ATOM     16  C   UNL d   1      52.825  31.548  53.374  0.00  0.00     0.064 A 
ATOM     17  C   UNL d   1      52.476  30.885  53.024  0.00  0.00     0.020 A 
ATOM     18  C   UNL d   1      52.827  30.144  53.110  0.00  0.00     0.031 A 
ATOM     19  C   UNL d   1      53.524  30.058  53.541  0.00  0.00     0.140 A 
ATOM     20  C   UNL d   1      53.874  30.729  53.893  0.00  0.00     0.031 A 
ATOM     21  F   UNL d   1      53.875  29.316  53.627  0.00  0.00    -0.204 F 
ATOM     22  C   UNL d   1      53.523  31.472  53.808  0.00  0.00     0.020 A 
ENDBRANCH  13  16
ENDBRANCH   2   8
BRANCH   1  23
ATOM     23  S   UNL d   1      48.704  35.375  52.899  0.00  0.00     0.271 S 
ATOM     24  O   UNL d   1      48.479  34.660  53.247  0.00  0.00    -0.200 OA
ATOM     25  O   UNL d   1      48.963  36.198  52.496  0.00  0.00    -0.200 OA
BRANCH  23  26
ATOM     26  N   UNL d   1      48.073  35.800  53.215  0.00  0.00    -0.229 N 
ATOM     27  C   UNL d   1      48.061  35.962  54.021  0.00  0.00     0.092 A 
ATOM     28  C   UNL d   1      47.428  36.390  54.343  0.00  0.00     0.020 A 
ATOM     29  C   UNL d   1      46.823  36.645  53.850  0.00  0.00     0.003 A 
ATOM     30  C   UNL d   1      46.839  36.482  53.051  0.00  0.00     0.020 A 
ATOM     31  C   UNL d   1      47.460  36.062  52.731  0.00  0.00     0.092 A 
ENDBRANCH  23  26
ENDBRANCH   1  23
TORSDOF 4
ENDMDL
MODEL 4
REMARK VINA RESULT:      -7.0      2.669      6.230
REMARK  4 active torsions:
REMARK  status: ('A' for Active; 'I' for Inactive)
REMARK    1  A    between atoms: C_2  and  S_1 
REMARK    2  A    between atoms: N_3  and  S_1 
REMARK    3  A    between atoms: C_4  and  C_6 
REMARK       I    between atoms: N_5  and  C_4 
REMARK    4  A    between atoms: C_11  and  N_8 
ROOT
ATOM      1  C   UNL d   1      47.416  35.647  52.308  0.00  0.00     0.104 A 
ATOM      2  C   UNL d   1      48.756  35.186  52.169  0.00  0.00     0.057 A 
ATOM      3  C   UNL d   1      47.982  35.234  51.882  0.00  0.00     0.018 A 
ATOM      4  C   UNL d   1      47.608  36.014  53.017  0.00  0.00     0.012 A 
ATOM      5  C   UNL d   1      48.955  35.552  52.880  0.00  0.00     0.005 A 
ATOM      6  C   UNL d   1      48.382  35.967  53.304  0.00  0.00     0.001 A 
ATOM      7  C   UNL d   1      47.042  36.428  53.444  0.00  0.00     0.001 C 
ENDROOT
BRANCH   2   8
ATOM      8  C   UNL d   1      49.336  34.774  51.751  0.00  0.00     0.265 C 
ATOM      9  N   UNL d   1      50.019  34.529  52.146  0.00  0.00    -0.269 N 
ATOM     10  C   UNL d   1      50.597  34.120  51.736  0.00  0.00     0.102 A 
ATOM     11  C   UNL d   1      50.108  34.700  52.949  0.00  0.00     0.102 A 
ATOM     12  C   UNL d   1      51.279  33.875  52.131  0.00  0.00     0.100 A 
ATOM     13  N   UNL d   1      51.376  34.042  52.934  0.00  0.00    -0.301 N 
ATOM     14  C   UNL d   1      50.790  34.454  53.340  0.00  0.00     0.100 A 
ATOM     15  O   UNL d   1      49.234  34.612  50.956  0.00  0.00    -0.267 OA
BRANCH  13  16
ATOM     16  C   UNL d   1      52.058  33.798  53.328  0.00  0.00     0.064 A 
ATOM     17  C   UNL d   1      52.255  32.995  53.350  0.00  0.00     0.020 A 
ATOM     18  C   UNL d   1      52.937  32.751  53.744  0.00  0.00     0.031 A 
ATOM     19  C   UNL d   1      53.424  33.301  54.118  0.00  0.00     0.140 A 
ATOM     20  C   UNL d   1      53.221  34.111  54.095  0.00  0.00     0.031 A 
ATOM     21  F   UNL d   1      54.106  33.057  54.513  0.00  0.00    -0.204 F 
ATOM     22  C   UNL d   1      52.539  34.356  53.700  0.00  0.00     0.020 A 
ENDBRANCH  13  16
ENDBRANCH   2   8
BRANCH   1  23
ATOM     23  S   UNL d   1      46.642  35.695  52.021  0.00  0.00     0.271 S 
ATOM     24  O   UNL d   1      46.786  36.465  51.760  0.00  0.00    -0.200 OA
ATOM     25  O   UNL d   1      46.476  34.807  52.322  0.00  0.00    -0.200 OA
BRANCH  23  26
ATOM     26  N   UNL d   1      45.862  35.684  51.755  0.00  0.00    -0.229 N 
ATOM     27  C   UNL d   1      45.688  35.982  51.009  0.00  0.00     0.092 A 
ATOM     28  C   UNL d   1      44.904  35.973  50.738  0.00  0.00     0.020 A 
ATOM     29  C   UNL d   1      44.314  35.664  51.220  0.00  0.00     0.003 A 
ATOM     30  C   UNL d   1      44.493  35.369  51.959  0.00  0.00     0.020 A 
ATOM     31  C   UNL d   1      45.263  35.377  52.229  0.00  0.00     0.092 A 
ENDBRANCH  23  26
ENDBRANCH   1  23
TORSDOF 4
ENDMDL
