MODEL 1
REMARK VINA RESULT:      -3.5      0.000      0.000
REMARK  2 active torsions:
REMARK  status: ('A' for Active; 'I' for Inactive)
REMARK    1  A    between atoms: C_5  and  C_1 
REMARK    2  A    between atoms: C_7  and  C_5 
ROOT
ATOM      1  C   UNL d   1      31.297  16.538 -23.979  0.00  0.00     0.158 A 
ATOM      2  C   UNL d   1      31.200  15.869 -23.508  0.00  0.00     0.131 A 
ATOM      3  O   UNL d   1      30.628  16.962 -24.229  0.00  0.00    -0.302 OA
ATOM      4  C   UNL d   1      29.758  16.055 -23.542  0.00  0.00     0.044 A 
ATOM      5  C   UNL d   1      29.855  16.724 -24.013  0.00  0.00     0.102 A 
ATOM      6  N   UNL d   1      31.859  15.453 -23.262  0.00  0.00    -0.146 N 
ATOM      7  C   UNL d   1      28.992  15.818 -23.328  0.00  0.00     0.004 A 
ATOM      8  C   UNL d   1      29.185  17.148 -24.263  0.00  0.00     0.025 A 
ATOM      9  C   UNL d   1      28.329  16.238 -23.576  0.00  0.00     0.000 A 
ATOM     10  C   UNL d   1      28.426  16.908 -24.047  0.00  0.00     0.002 A 
ENDROOT
BRANCH   1  11
ATOM     11  C   UNL d   1      32.051  16.773 -24.191  0.00  0.00     0.220 C 
ATOM     12  O   UNL d   1      32.521  16.267 -24.611  0.00  0.00    -0.284 OA
BRANCH  11  13
ATOM     13  C   UNL d   1      32.342  17.492 -23.996  0.00  0.00     0.041 A 
ATOM     14  C   UNL d   1      32.561  17.669 -23.222  0.00  0.00     0.003 A 
ATOM     15  C   UNL d   1      32.863  18.424 -23.036  0.00  0.00     0.000 A 
ATOM     16  C   UNL d   1      32.943  19.007 -23.646  0.00  0.00     0.000 A 
ATOM     17  C   UNL d   1      32.718  18.813 -24.418  0.00  0.00     0.000 A 
ATOM     18  C   UNL d   1      33.241  19.758 -23.471  0.00  0.00     0.000 C 
ATOM     19  C   UNL d   1      32.422  18.075 -24.606  0.00  0.00     0.003 A 
ENDBRANCH  11  13
ENDBRANCH   1  11
TORSDOF 2
ENDMDL
MODEL 2
REMARK VINA RESULT:      -3.0      0.710      3.623
REMARK  2 active torsions:
REMARK  status: ('A' for Active; 'I' for Inactive)
REMARK    1  A    between atoms: C_5  and  C_1 
REMARK    2  A    between atoms: C_7  and  C_5 
ROOT
ATOM      1  C   UNL d   1      31.598  16.543 -23.893  0.00  0.00     0.158 A 
ATOM      2  C   UNL d   1      32.166  16.252 -23.372  0.00  0.00     0.131 A 
ATOM      3  O   UNL d   1      31.581  17.355 -24.067  0.00  0.00    -0.302 OA
ATOM      4  C   UNL d   1      32.697  17.596 -23.202  0.00  0.00     0.044 A 
ATOM      5  C   UNL d   1      32.129  17.886 -23.723  0.00  0.00     0.102 A 
ATOM      6  N   UNL d   1      32.182  15.453 -23.201  0.00  0.00    -0.146 N 
ATOM      7  C   UNL d   1      33.241  18.121 -22.861  0.00  0.00     0.004 A 
ATOM      8  C   UNL d   1      32.113  18.699 -23.897  0.00  0.00     0.025 A 
ATOM      9  C   UNL d   1      33.224  18.926 -23.033  0.00  0.00     0.000 A 
ATOM     10  C   UNL d   1      32.656  19.217 -23.555  0.00  0.00     0.002 A 
ENDROOT
BRANCH   1  11
ATOM     11  C   UNL d   1      31.061  16.027 -24.230  0.00  0.00     0.220 C 
ATOM     12  O   UNL d   1      31.322  15.472 -24.758  0.00  0.00    -0.284 OA
BRANCH  11  13
ATOM     13  C   UNL d   1      30.282  16.051 -24.055  0.00  0.00     0.041 A 
ATOM     14  C   UNL d   1      30.000  15.803 -23.322  0.00  0.00     0.003 A 
ATOM     15  C   UNL d   1      29.183  15.835 -23.156  0.00  0.00     0.000 A 
ATOM     16  C   UNL d   1      28.645  16.124 -23.743  0.00  0.00     0.000 A 
ATOM     17  C   UNL d   1      28.945  16.370 -24.475  0.00  0.00     0.000 A 
ATOM     18  C   UNL d   1      27.834  16.160 -23.587  0.00  0.00     0.000 C 
ATOM     19  C   UNL d   1      29.744  16.340 -24.643  0.00  0.00     0.003 A 
ENDBRANCH  11  13
ENDBRANCH   1  11
TORSDOF 2
ENDMDL
MODEL 3
REMARK VINA RESULT:      -3.0      1.646      4.039
REMARK  2 active torsions:
REMARK  status: ('A' for Active; 'I' for Inactive)
REMARK    1  A    between atoms: C_5  and  C_1 
REMARK    2  A    between atoms: C_7  and  C_5 
ROOT
ATOM      1  C   UNL d   1      32.864  18.509 -23.875  0.00  0.00     0.158 A 
ATOM      2  C   UNL d   1      32.876  19.225 -24.282  0.00  0.00     0.131 A 
ATOM      3  O   UNL d   1      32.950  18.507 -23.048  0.00  0.00    -0.302 OA
ATOM      4  C   UNL d   1      33.060  19.935 -23.025  0.00  0.00     0.044 A 
ATOM      5  C   UNL d   1      33.048  19.219 -22.619  0.00  0.00     0.102 A 
ATOM      6  N   UNL d   1      32.792  19.226 -25.095  0.00  0.00    -0.146 N 
ATOM      7  C   UNL d   1      33.157  20.641 -22.600  0.00  0.00     0.004 A 
ATOM      8  C   UNL d   1      33.133  19.217 -21.792  0.00  0.00     0.025 A 
ATOM      9  C   UNL d   1      33.241  20.639 -21.781  0.00  0.00     0.000 A 
ATOM     10  C   UNL d   1      33.229  19.922 -21.374  0.00  0.00     0.002 A 
ENDROOT
BRANCH   1  11
ATOM     11  C   UNL d   1      32.769  17.812 -24.292  0.00  0.00     0.220 C 
ATOM     12  O   UNL d   1      33.241  17.665 -24.933  0.00  0.00    -0.284 OA
BRANCH  11  13
ATOM     13  C   UNL d   1      32.221  17.267 -24.088  0.00  0.00     0.041 A 
ATOM     14  C   UNL d   1      31.417  17.410 -24.194  0.00  0.00     0.003 A 
ATOM     15  C   UNL d   1      30.859  16.829 -23.975  0.00  0.00     0.000 A 
ATOM     16  C   UNL d   1      31.122  16.095 -23.645  0.00  0.00     0.000 A 
ATOM     17  C   UNL d   1      31.934  15.969 -23.545  0.00  0.00     0.000 A 
ATOM     18  C   UNL d   1      30.575  15.515 -23.425  0.00  0.00     0.000 C 
ATOM     19  C   UNL d   1      32.485  16.533 -23.758  0.00  0.00     0.003 A 
ENDBRANCH  11  13
ENDBRANCH   1  11
TORSDOF 2
ENDMDL
MODEL 4
REMARK VINA RESULT:      -0.8      1.173      1.638
REMARK  2 active torsions:
REMARK  status: ('A' for Active; 'I' for Inactive)
REMARK    1  A    between atoms: C_5  and  C_1 
REMARK    2  A    between atoms: C_7  and  C_5 
ROOT
ATOM      1  C   UNL d   1      31.861  17.595 -23.921  0.00  0.00     0.158 A 
ATOM      2  C   UNL d   1      31.583  17.884 -24.641  0.00  0.00     0.131 A 
ATOM      3  O   UNL d   1      31.369  17.112 -23.458  0.00  0.00    -0.302 OA
ATOM      4  C   UNL d   1      30.316  17.203 -24.425  0.00  0.00     0.044 A 
ATOM      5  C   UNL d   1      30.594  16.913 -23.705  0.00  0.00     0.102 A 
ATOM      6  N   UNL d   1      32.068  18.358 -25.097  0.00  0.00    -0.146 N 
ATOM      7  C   UNL d   1      29.548  17.006 -24.671  0.00  0.00     0.004 A 
ATOM      8  C   UNL d   1      30.101  16.431 -23.241  0.00  0.00     0.025 A 
ATOM      9  C   UNL d   1      29.061  16.528 -24.211  0.00  0.00     0.000 A 
ATOM     10  C   UNL d   1      29.339  16.239 -23.491  0.00  0.00     0.002 A 
ENDROOT
BRANCH   1  11
ATOM     11  C   UNL d   1      32.617  17.787 -23.677  0.00  0.00     0.220 C 
ATOM     12  O   UNL d   1      33.241  17.334 -23.922  0.00  0.00    -0.284 OA
BRANCH  11  13
ATOM     13  C   UNL d   1      32.763  18.412 -23.201  0.00  0.00     0.041 A 
ATOM     14  C   UNL d   1      32.886  18.314 -22.392  0.00  0.00     0.003 A 
ATOM     15  C   UNL d   1      33.037  18.978 -21.910  0.00  0.00     0.000 A 
ATOM     16  C   UNL d   1      33.062  19.751 -22.254  0.00  0.00     0.000 A 
ATOM     17  C   UNL d   1      32.936  19.832 -23.068  0.00  0.00     0.000 A 
ATOM     18  C   UNL d   1      33.211  20.415 -21.783  0.00  0.00     0.000 C 
ATOM     19  C   UNL d   1      32.788  19.186 -23.545  0.00  0.00     0.003 A 
ENDBRANCH  11  13
ENDBRANCH   1  11
TORSDOF 2
ENDMDL
