MODEL 1
REMARK VINA RESULT:      -9.2      0.000      0.000
REMARK  6 active torsions:
REMARK  status: ('A' for Active; 'I' for Inactive)
REMARK       I    between atoms: C_2  and  N_1 
REMARK    1  A    between atoms: C_4  and  N_1 
REMARK    2  A    between atoms: C_11  and  N_1 
REMARK    3  A    between atoms: C_3  and  C_2 
REMARK    4  A    between atoms: C_5  and  C_4 
REMARK       I    between atoms: N_10  and  C_5 
REMARK    5  A    between atoms: C_21  and  N_10 
REMARK    6  A    between atoms: C_13  and  C_11 
ROOT
ATOM      1  N   UNL d   1      52.440  33.060  53.179  0.00  0.00    -0.281 N 
ATOM      2  C   UNL d   1      52.476  32.236  53.160  0.00  0.00     0.263 C 
ATOM      3  O   UNL d   1      51.805  31.793  53.047  0.00  0.00    -0.267 OA
ENDROOT
BRANCH   1   4
ATOM      4  C   UNL d   1      51.308  33.896  53.035  0.00  0.00     0.181 A 
ATOM      5  C   UNL d   1      50.829  34.335  52.762  0.00  0.00     0.007 A 
ATOM      6  C   UNL d   1      50.926  34.578  51.995  0.00  0.00    -0.002 A 
ATOM      7  C   UNL d   1      51.562  34.319  51.557  0.00  0.00    -0.001 A 
ATOM      8  C   UNL d   1      52.106  33.806  51.899  0.00  0.00    -0.002 A 
ATOM      9  C   UNL d   1      52.010  33.563  52.666  0.00  0.00     0.007 A 
BRANCH   4  10
ATOM     10  C   UNL d   1      50.127  34.690  53.076  0.00  0.00     0.282 C 
ATOM     11  N   UNL d   1      49.346  34.607  52.823  0.00  0.00    -0.210 NA
ATOM     12  O   UNL d   1      50.376  35.373  53.460  0.00  0.00    -0.268 OA
BRANCH  11  13
ATOM     13  C   UNL d   1      48.806  35.216  52.956  0.00  0.00     0.084 A 
ATOM     14  C   UNL d   1      48.304  35.540  52.397  0.00  0.00     0.019 A 
ATOM     15  C   UNL d   1      47.870  36.120  52.757  0.00  0.00     0.002 A 
ATOM     16  C   UNL d   1      48.101  36.160  53.546  0.00  0.00     0.002 A 
ATOM     17  C   UNL d   1      48.674  35.602  53.658  0.00  0.00     0.019 A 
ENDBRANCH  11  13
ENDBRANCH   4  10
ENDBRANCH   1   4
BRANCH   1  18
ATOM     18  C   UNL d   1      53.192  33.470  53.303  0.00  0.00     0.104 C 
BRANCH  18  19
ATOM     19  C   UNL d   1      53.456  33.653  54.117  0.00  0.00     0.117 A 
ATOM     20  O   UNL d   1      53.001  33.808  54.717  0.00  0.00    -0.304 OA
ATOM     21  C   UNL d   1      53.506  33.957  55.418  0.00  0.00     0.123 A 
ATOM     22  C   UNL d   1      54.268  33.892  55.240  0.00  0.00     0.029 A 
ATOM     23  C   UNL d   1      54.283  33.692  54.389  0.00  0.00     0.028 A 
ENDBRANCH  18  19
ENDBRANCH   1  18
BRANCH   2  24
ATOM     24  C   UNL d   1      52.959  31.382  53.207  0.00  0.00     0.076 A 
ATOM     25  C   UNL d   1      52.179  30.984  53.391  0.00  0.00     0.107 A 
ATOM     26  N   UNL d   1      52.139  30.131  53.522  0.00  0.00    -0.206 NA
ATOM     27  C   UNL d   1      52.847  29.672  53.475  0.00  0.00     0.279 A 
ATOM     28  C   UNL d   1      53.621  30.038  53.296  0.00  0.00     0.063 A 
ATOM     29  O   UNL d   1      52.797  28.813  53.609  0.00  0.00    -0.265 OA
ATOM     30  C   UNL d   1      53.668  30.895  53.163  0.00  0.00     0.011 A 
ENDBRANCH   2  24
TORSDOF 6
ENDMDL
MODEL 2
REMARK VINA RESULT:      -8.1      1.062      2.748
REMARK  6 active torsions:
REMARK  status: ('A' for Active; 'I' for Inactive)
REMARK       I    between atoms: C_2  and  N_1 
REMARK    1  A    between atoms: C_4  and  N_1 
REMARK    2  A    between atoms: C_11  and  N_1 
REMARK    3  A    between atoms: C_3  and  C_2 
REMARK    4  A    between atoms: C_5  and  C_4 
REMARK       I    between atoms: N_10  and  C_5 
REMARK    5  A    between atoms: C_21  and  N_10 
REMARK    6  A    between atoms: C_13  and  C_11 
ROOT
ATOM      1  N   UNL d   1      52.415  33.160  53.299  0.00  0.00    -0.281 N 
ATOM      2  C   UNL d   1      52.845  33.341  53.980  0.00  0.00     0.263 C 
ATOM      3  O   UNL d   1      52.621  33.955  54.461  0.00  0.00    -0.267 OA
ENDROOT
BRANCH   1   4
ATOM      4  C   UNL d   1      51.259  33.797  52.790  0.00  0.00     0.181 A 
ATOM      5  C   UNL d   1      50.831  34.189  52.392  0.00  0.00     0.007 A 
ATOM      6  C   UNL d   1      51.150  34.585  51.761  0.00  0.00    -0.002 A 
ATOM      7  C   UNL d   1      51.946  34.527  51.597  0.00  0.00    -0.001 A 
ATOM      8  C   UNL d   1      52.425  34.063  52.078  0.00  0.00    -0.002 A 
ATOM      9  C   UNL d   1      52.106  33.667  52.709  0.00  0.00     0.007 A 
BRANCH   4  10
ATOM     10  C   UNL d   1      50.000  34.351  52.426  0.00  0.00     0.282 C 
ATOM     11  N   UNL d   1      49.417  34.184  51.867  0.00  0.00    -0.210 NA
ATOM     12  O   UNL d   1      49.916  34.980  52.949  0.00  0.00    -0.268 OA
BRANCH  11  13
ATOM     13  C   UNL d   1      48.739  34.653  51.829  0.00  0.00     0.084 A 
ATOM     14  C   UNL d   1      48.326  34.842  51.149  0.00  0.00     0.019 A 
ATOM     15  C   UNL d   1      47.701  35.311  51.358  0.00  0.00     0.002 A 
ATOM     16  C   UNL d   1      47.723  35.417  52.174  0.00  0.00     0.002 A 
ATOM     17  C   UNL d   1      48.362  35.010  52.454  0.00  0.00     0.019 A 
ENDBRANCH  11  13
ENDBRANCH   4  10
ENDBRANCH   1   4
BRANCH   1  18
ATOM     18  C   UNL d   1      52.708  32.493  52.831  0.00  0.00     0.104 C 
BRANCH  18  19
ATOM     19  C   UNL d   1      52.435  31.682  53.016  0.00  0.00     0.117 A 
ATOM     20  O   UNL d   1      51.758  31.491  53.325  0.00  0.00    -0.304 OA
ATOM     21  C   UNL d   1      51.727  30.619  53.410  0.00  0.00     0.123 A 
ATOM     22  C   UNL d   1      52.388  30.283  53.151  0.00  0.00     0.029 A 
ATOM     23  C   UNL d   1      52.886  30.949  52.881  0.00  0.00     0.028 A 
ENDBRANCH  18  19
ENDBRANCH   1  18
BRANCH   2  24
ATOM     24  C   UNL d   1      53.582  33.195  54.612  0.00  0.00     0.076 A 
ATOM     25  C   UNL d   1      53.811  34.051  54.499  0.00  0.00     0.107 A 
ATOM     26  N   UNL d   1      54.488  34.386  54.918  0.00  0.00    -0.206 NA
ATOM     27  C   UNL d   1      54.935  33.895  55.439  0.00  0.00     0.279 A 
ATOM     28  C   UNL d   1      54.732  33.054  55.567  0.00  0.00     0.063 A 
ATOM     29  O   UNL d   1      55.616  34.242  55.858  0.00  0.00    -0.265 OA
ATOM     30  C   UNL d   1      54.053  32.711  55.148  0.00  0.00     0.011 A 
ENDBRANCH   2  24
TORSDOF 6
ENDMDL
