MODEL 1
REMARK VINA RESULT:      -6.0      0.000      0.000
REMARK  7 active torsions:
REMARK  status: ('A' for Active; 'I' for Inactive)
REMARK    1  A    between atoms: C_6  and  C_1 
REMARK    2  A    between atoms: C_7  and  C_3 
REMARK    3  A    between atoms: O_14  and  C_6 
REMARK    4  A    between atoms: C_8  and  C_7 
REMARK    5  A    between atoms: S_10  and  C_8 
REMARK    6  A    between atoms: C_13  and  S_10 
REMARK    7  A    between atoms: C_22  and  O_14 
ROOT
ATOM      1  C   UNL d   1     -38.719  13.713  16.759  0.00  0.00     0.083 A 
ATOM      2  C   UNL d   1     -39.339  14.121  17.116  0.00  0.00     0.028 A 
ATOM      3  C   UNL d   1     -39.533  13.729  17.774  0.00  0.00     0.121 A 
ATOM      4  N   UNL d   1     -39.040  13.067  17.843  0.00  0.00    -0.242 NA
ATOM      5  C   UNL d   1     -38.562  13.087  17.216  0.00  0.00     0.087 A 
ATOM      6  C   UNL d   1     -39.661  14.803  16.810  0.00  0.00     0.002 C 
ATOM      7  C   UNL d   1     -37.944  12.522  17.024  0.00  0.00     0.021 C 
ENDROOT
BRANCH   3   8
ATOM      8  C   UNL d   1     -40.151  14.020  18.254  0.00  0.00     0.220 C 
ATOM      9  O   UNL d   1     -40.921  13.970  18.012  0.00  0.00    -0.284 OA
BRANCH   8  10
ATOM     10  C   UNL d   1     -39.969  14.364  18.987  0.00  0.00     0.079 C 
BRANCH  10  11
ATOM     11  S   UNL d   1     -40.546  14.465  19.547  0.00  0.00    -0.083 SA
BRANCH  11  12
ATOM     12  C   UNL d   1     -40.342  14.820  20.280  0.00  0.00     0.030 A 
ATOM     13  C   UNL d   1     -39.823  14.433  20.799  0.00  0.00     0.007 A 
ATOM     14  C   UNL d   1     -39.640  14.788  21.495  0.00  0.00     0.012 A 
ATOM     15  C   UNL d   1     -39.945  15.523  21.717  0.00  0.00     0.058 A 
ATOM     16  C   UNL d   1     -40.441  15.879  21.207  0.00  0.00     0.012 A 
ATOM     17 CL   UNL d   1     -39.767  15.908  22.436  0.00  0.00    -0.082 Cl
ATOM     18  C   UNL d   1     -40.653  15.554  20.492  0.00  0.00     0.007 A 
ENDBRANCH  11  12
ENDBRANCH  10  11
ENDBRANCH   8  10
ENDBRANCH   3   8
BRANCH   1  19
ATOM     19  C   UNL d   1     -38.334  13.932  16.041  0.00  0.00     0.302 C 
ATOM     20  O   UNL d   1     -37.942  14.673  15.990  0.00  0.00    -0.259 OA
BRANCH  19  21
ATOM     21  O   UNL d   1     -38.331  13.432  15.372  0.00  0.00    -0.271 OA
BRANCH  21  22
ATOM     22  C   UNL d   1     -37.949  13.703  14.689  0.00  0.00     0.126 C 
ATOM     23  C   UNL d   1     -37.988  13.257  13.975  0.00  0.00     0.029 C 
ENDBRANCH  21  22
ENDBRANCH  19  21
ENDBRANCH   1  19
TORSDOF 7
ENDMDL
MODEL 2
REMARK VINA RESULT:      -5.2      1.488      1.980
REMARK  7 active torsions:
REMARK  status: ('A' for Active; 'I' for Inactive)
REMARK    1  A    between atoms: C_6  and  C_1 
REMARK    2  A    between atoms: C_7  and  C_3 
REMARK    3  A    between atoms: O_14  and  C_6 
REMARK    4  A    between atoms: C_8  and  C_7 
REMARK    5  A    between atoms: S_10  and  C_8 
REMARK    6  A    between atoms: C_13  and  S_10 
REMARK    7  A    between atoms: C_22  and  O_14 
ROOT
ATOM      1  C   UNL d   1     -39.656  14.587  17.753  0.00  0.00     0.083 A 
ATOM      2  C   UNL d   1     -40.003  14.887  18.437  0.00  0.00     0.028 A 
ATOM      3  C   UNL d   1     -39.993  14.312  18.980  0.00  0.00     0.121 A 
ATOM      4  N   UNL d   1     -39.639  13.640  18.648  0.00  0.00    -0.242 NA
ATOM      5  C   UNL d   1     -39.448  13.839  17.909  0.00  0.00     0.087 A 
ATOM      6  C   UNL d   1     -40.291  15.645  18.497  0.00  0.00     0.002 C 
ATOM      7  C   UNL d   1     -39.065  13.339  17.326  0.00  0.00     0.021 C 
ENDROOT
BRANCH   3   8
ATOM      8  C   UNL d   1     -40.313  14.461  19.736  0.00  0.00     0.220 C 
ATOM      9  O   UNL d   1     -41.110  14.540  19.840  0.00  0.00    -0.284 OA
BRANCH   8  10
ATOM     10  C   UNL d   1     -39.802  14.528  20.387  0.00  0.00     0.079 C 
BRANCH  10  11
ATOM     11  S   UNL d   1     -40.058  14.331  21.131  0.00  0.00    -0.083 SA
BRANCH  11  12
ATOM     12  C   UNL d   1     -39.522  14.398  21.774  0.00  0.00     0.030 A 
ATOM     13  C   UNL d   1     -39.244  13.717  22.157  0.00  0.00     0.007 A 
ATOM     14  C   UNL d   1     -38.733  13.803  22.770  0.00  0.00     0.012 A 
ATOM     15  C   UNL d   1     -38.472  14.540  23.036  0.00  0.00     0.058 A 
ATOM     16  C   UNL d   1     -38.749  15.183  22.657  0.00  0.00     0.012 A 
ATOM     17 CL   UNL d   1     -37.941  14.650  23.671  0.00  0.00    -0.082 Cl
ATOM     18  C   UNL d   1     -39.268  15.140  22.032  0.00  0.00     0.007 A 
ENDBRANCH  11  12
ENDBRANCH  10  11
ENDBRANCH   8  10
ENDBRANCH   3   8
BRANCH   1  19
ATOM     19  C   UNL d   1     -39.548  15.008  17.030  0.00  0.00     0.302 C 
ATOM     20  O   UNL d   1     -40.203  15.129  16.519  0.00  0.00    -0.259 OA
BRANCH  19  21
ATOM     21  O   UNL d   1     -38.804  15.311  16.803  0.00  0.00    -0.271 OA
BRANCH  21  22
ATOM     22  C   UNL d   1     -38.773  15.796  16.133  0.00  0.00     0.126 C 
ATOM     23  C   UNL d   1     -38.042  15.920  15.732  0.00  0.00     0.029 C 
ENDBRANCH  21  22
ENDBRANCH  19  21
ENDBRANCH   1  19
TORSDOF 7
ENDMDL
MODEL 3
REMARK VINA RESULT:      -5.2      7.961      9.448
REMARK  7 active torsions:
REMARK  status: ('A' for Active; 'I' for Inactive)
REMARK    1  A    between atoms: C_6  and  C_1 
REMARK    2  A    between atoms: C_7  and  C_3 
REMARK    3  A    between atoms: O_14  and  C_6 
REMARK    4  A    between atoms: C_8  and  C_7 
REMARK    5  A    between atoms: S_10  and  C_8 
REMARK    6  A    between atoms: C_13  and  S_10 
REMARK    7  A    between atoms: C_22  and  O_14 
ROOT
ATOM      1  C   UNL d   1     -45.439  12.155  23.020  0.00  0.00     0.083 A 
ATOM      2  C   UNL d   1     -45.636  12.935  22.846  0.00  0.00     0.028 A 
ATOM      3  C   UNL d   1     -46.356  13.070  23.142  0.00  0.00     0.121 A 
ATOM      4  N   UNL d   1     -46.626  12.377  23.509  0.00  0.00    -0.242 NA
ATOM      5  C   UNL d   1     -46.050  11.846  23.417  0.00  0.00     0.087 A 
ATOM      6  C   UNL d   1     -45.145  13.441  22.439  0.00  0.00     0.002 C 
ATOM      7  C   UNL d   1     -46.052  11.035  23.697  0.00  0.00     0.021 C 
ENDROOT
BRANCH   3   8
ATOM      8  C   UNL d   1     -46.701  13.825  23.047  0.00  0.00     0.220 C 
ATOM      9  O   UNL d   1     -46.282  14.495  23.213  0.00  0.00    -0.284 OA
BRANCH   8  10
ATOM     10  C   UNL d   1     -47.485  13.881  22.779  0.00  0.00     0.079 C 
BRANCH  10  11
ATOM     11  S   UNL d   1     -47.882  14.587  22.822  0.00  0.00    -0.083 SA
BRANCH  11  12
ATOM     12  C   UNL d   1     -48.689  14.612  22.589  0.00  0.00     0.030 A 
ATOM     13  C   UNL d   1     -49.215  15.131  22.966  0.00  0.00     0.007 A 
ATOM     14  C   UNL d   1     -49.981  15.140  22.728  0.00  0.00     0.012 A 
ATOM     15  C   UNL d   1     -50.270  14.654  22.125  0.00  0.00     0.058 A 
ATOM     16  C   UNL d   1     -49.751  14.162  21.775  0.00  0.00     0.012 A 
ATOM     17 CL   UNL d   1     -51.063  14.649  21.864  0.00  0.00    -0.082 Cl
ATOM     18  C   UNL d   1     -48.966  14.122  21.986  0.00  0.00     0.007 A 
ENDBRANCH  11  12
ENDBRANCH  10  11
ENDBRANCH   8  10
ENDBRANCH   3   8
BRANCH   1  19
ATOM     19  C   UNL d   1     -44.718  11.770  22.810  0.00  0.00     0.302 C 
ATOM     20  O   UNL d   1     -44.340  11.966  22.086  0.00  0.00    -0.259 OA
BRANCH  19  21
ATOM     21  O   UNL d   1     -44.365  11.195  23.302  0.00  0.00    -0.271 OA
BRANCH  21  22
ATOM     22  C   UNL d   1     -43.654  10.855  23.049  0.00  0.00     0.126 C 
ATOM     23  C   UNL d   1     -43.310  10.220  23.483  0.00  0.00     0.029 C 
ENDBRANCH  21  22
ENDBRANCH  19  21
ENDBRANCH   1  19
TORSDOF 7
ENDMDL
MODEL 4
REMARK VINA RESULT:      -5.0      8.110     10.026
REMARK  7 active torsions:
REMARK  status: ('A' for Active; 'I' for Inactive)
REMARK    1  A    between atoms: C_6  and  C_1 
REMARK    2  A    between atoms: C_7  and  C_3 
REMARK    3  A    between atoms: O_14  and  C_6 
REMARK    4  A    between atoms: C_8  and  C_7 
REMARK    5  A    between atoms: S_10  and  C_8 
REMARK    6  A    between atoms: C_13  and  S_10 
REMARK    7  A    between atoms: C_22  and  O_14 
ROOT
ATOM      1  C   UNL d   1     -48.643  13.844  22.072  0.00  0.00     0.083 A 
ATOM      2  C   UNL d   1     -47.942  13.957  22.490  0.00  0.00     0.028 A 
ATOM      3  C   UNL d   1     -47.463  13.353  22.317  0.00  0.00     0.121 A 
ATOM      4  N   UNL d   1     -47.853  12.848  21.787  0.00  0.00    -0.242 NA
ATOM      5  C   UNL d   1     -48.560  13.173  21.661  0.00  0.00     0.087 A 
ATOM      6  C   UNL d   1     -47.811  14.592  22.981  0.00  0.00     0.002 C 
ATOM      7  C   UNL d   1     -49.181  12.868  21.153  0.00  0.00     0.021 C 
ENDROOT
BRANCH   3   8
ATOM      8  C   UNL d   1     -46.705  13.321  22.665  0.00  0.00     0.220 C 
ATOM      9  O   UNL d   1     -46.326  13.998  22.893  0.00  0.00    -0.284 OA
BRANCH   8  10
ATOM     10  C   UNL d   1     -46.340  12.584  22.777  0.00  0.00     0.079 C 
BRANCH  10  11
ATOM     11  S   UNL d   1     -45.535  12.534  22.862  0.00  0.00    -0.083 SA
BRANCH  11  12
ATOM     12  C   UNL d   1     -45.194  11.794  23.067  0.00  0.00     0.030 A 
ATOM     13  C   UNL d   1     -44.422  11.610  22.825  0.00  0.00     0.007 A 
ATOM     14  C   UNL d   1     -44.115  10.898  23.032  0.00  0.00     0.012 A 
ATOM     15  C   UNL d   1     -44.534  10.340  23.474  0.00  0.00     0.058 A 
ATOM     16  C   UNL d   1     -45.274  10.534  23.697  0.00  0.00     0.012 A 
ATOM     17 CL   UNL d   1     -44.233   9.595  23.698  0.00  0.00    -0.082 Cl
ATOM     18  C   UNL d   1     -45.622  11.245  23.509  0.00  0.00     0.007 A 
ENDBRANCH  11  12
ENDBRANCH  10  11
ENDBRANCH   8  10
ENDBRANCH   3   8
BRANCH   1  19
ATOM     19  C   UNL d   1     -49.314  14.355  22.089  0.00  0.00     0.302 C 
ATOM     20  O   UNL d   1     -49.354  15.005  21.559  0.00  0.00    -0.259 OA
BRANCH  19  21
ATOM     21  O   UNL d   1     -49.946  14.235  22.621  0.00  0.00    -0.271 OA
BRANCH  21  22
ATOM     22  C   UNL d   1     -50.583  14.763  22.589  0.00  0.00     0.126 C 
ATOM     23  C   UNL d   1     -51.064  14.889  23.270  0.00  0.00     0.029 C 
ENDBRANCH  21  22
ENDBRANCH  19  21
ENDBRANCH   1  19
TORSDOF 7
ENDMDL
MODEL 5
REMARK VINA RESULT:      -4.8      7.156      8.603
REMARK  7 active torsions:
REMARK  status: ('A' for Active; 'I' for Inactive)
REMARK    1  A    between atoms: C_6  and  C_1 
REMARK    2  A    between atoms: C_7  and  C_3 
REMARK    3  A    between atoms: O_14  and  C_6 
REMARK    4  A    between atoms: C_8  and  C_7 
REMARK    5  A    between atoms: S_10  and  C_8 
REMARK    6  A    between atoms: C_13  and  S_10 
REMARK    7  A    between atoms: C_22  and  O_14 
ROOT
ATOM      1  C   UNL d   1     -44.516  12.632  22.140  0.00  0.00     0.083 A 
ATOM      2  C   UNL d   1     -45.166  13.126  22.244  0.00  0.00     0.028 A 
ATOM      3  C   UNL d   1     -45.611  12.816  22.819  0.00  0.00     0.121 A 
ATOM      4  N   UNL d   1     -45.249  12.121  23.088  0.00  0.00    -0.242 NA
ATOM      5  C   UNL d   1     -44.592  12.039  22.659  0.00  0.00     0.087 A 
ATOM      6  C   UNL d   1     -45.288  13.803  21.809  0.00  0.00     0.002 C 
ATOM      7  C   UNL d   1     -44.016  11.405  22.719  0.00  0.00     0.021 C 
ENDROOT
BRANCH   3   8
ATOM      8  C   UNL d   1     -46.314  13.205  23.044  0.00  0.00     0.220 C 
ATOM      9  O   UNL d   1     -46.295  13.831  23.555  0.00  0.00    -0.284 OA
BRANCH   8  10
ATOM     10  C   UNL d   1     -47.040  12.942  22.738  0.00  0.00     0.079 C 
BRANCH  10  11
ATOM     11  S   UNL d   1     -47.736  13.160  23.091  0.00  0.00    -0.083 SA
BRANCH  11  12
ATOM     12  C   UNL d   1     -48.460  12.965  22.712  0.00  0.00     0.030 A 
ATOM     13  C   UNL d   1     -48.824  12.234  22.858  0.00  0.00     0.007 A 
ATOM     14  C   UNL d   1     -49.515  12.068  22.486  0.00  0.00     0.012 A 
ATOM     15  C   UNL d   1     -49.881  12.593  21.964  0.00  0.00     0.058 A 
ATOM     16  C   UNL d   1     -49.518  13.289  21.835  0.00  0.00     0.012 A 
ATOM     17 CL   UNL d   1     -50.599  12.438  21.568  0.00  0.00    -0.082 Cl
ATOM     18  C   UNL d   1     -48.817  13.497  22.192  0.00  0.00     0.007 A 
ENDBRANCH  11  12
ENDBRANCH  10  11
ENDBRANCH   8  10
ENDBRANCH   3   8
BRANCH   1  19
ATOM     19  C   UNL d   1     -43.893  12.747  21.583  0.00  0.00     0.302 C 
ATOM     20  O   UNL d   1     -43.996  12.496  20.788  0.00  0.00    -0.259 OA
BRANCH  19  21
ATOM     21  O   UNL d   1     -43.170  13.107  21.797  0.00  0.00    -0.271 OA
BRANCH  21  22
ATOM     22  C   UNL d   1     -42.595  13.197  21.209  0.00  0.00     0.126 C 
ATOM     23  C   UNL d   1     -41.880  13.612  21.375  0.00  0.00     0.029 C 
ENDBRANCH  21  22
ENDBRANCH  19  21
ENDBRANCH   1  19
TORSDOF 7
ENDMDL
MODEL 6
REMARK VINA RESULT:      -4.8      7.679      9.766
REMARK  7 active torsions:
REMARK  status: ('A' for Active; 'I' for Inactive)
REMARK    1  A    between atoms: C_6  and  C_1 
REMARK    2  A    between atoms: C_7  and  C_3 
REMARK    3  A    between atoms: O_14  and  C_6 
REMARK    4  A    between atoms: C_8  and  C_7 
REMARK    5  A    between atoms: S_10  and  C_8 
REMARK    6  A    between atoms: C_13  and  S_10 
REMARK    7  A    between atoms: C_22  and  O_14 
ROOT
ATOM      1  C   UNL d   1     -48.630  13.805  22.754  0.00  0.00     0.083 A 
ATOM      2  C   UNL d   1     -48.131  13.173  22.927  0.00  0.00     0.028 A 
ATOM      3  C   UNL d   1     -47.394  13.455  22.961  0.00  0.00     0.121 A 
ATOM      4  N   UNL d   1     -47.415  14.270  22.810  0.00  0.00    -0.242 NA
ATOM      5  C   UNL d   1     -48.173  14.448  22.690  0.00  0.00     0.087 A 
ATOM      6  C   UNL d   1     -48.395  12.411  23.035  0.00  0.00     0.002 C 
ATOM      7  C   UNL d   1     -48.496  15.223  22.511  0.00  0.00     0.021 C 
ENDROOT
BRANCH   3   8
ATOM      8  C   UNL d   1     -46.765  12.932  23.129  0.00  0.00     0.220 C 
ATOM      9  O   UNL d   1     -46.848  12.351  23.684  0.00  0.00    -0.284 OA
BRANCH   8  10
ATOM     10  C   UNL d   1     -46.048  13.014  22.719  0.00  0.00     0.079 C 
BRANCH  10  11
ATOM     11  S   UNL d   1     -45.473  12.447  22.782  0.00  0.00    -0.083 SA
BRANCH  11  12
ATOM     12  C   UNL d   1     -44.761  12.541  22.347  0.00  0.00     0.030 A 
ATOM     13  C   UNL d   1     -44.146  11.990  22.429  0.00  0.00     0.007 A 
ATOM     14  C   UNL d   1     -43.475  12.099  22.004  0.00  0.00     0.012 A 
ATOM     15  C   UNL d   1     -43.368  12.735  21.488  0.00  0.00     0.058 A 
ATOM     16  C   UNL d   1     -43.968  13.254  21.422  0.00  0.00     0.012 A 
ATOM     17 CL   UNL d   1     -42.677  12.865  21.037  0.00  0.00    -0.082 Cl
ATOM     18  C   UNL d   1     -44.665  13.181  21.834  0.00  0.00     0.007 A 
ENDBRANCH  11  12
ENDBRANCH  10  11
ENDBRANCH   8  10
ENDBRANCH   3   8
BRANCH   1  19
ATOM     19  C   UNL d   1     -49.468  13.761  22.664  0.00  0.00     0.302 C 
ATOM     20  O   UNL d   1     -49.959  13.773  23.346  0.00  0.00    -0.259 OA
BRANCH  19  21
ATOM     21  O   UNL d   1     -49.829  13.707  21.914  0.00  0.00    -0.271 OA
BRANCH  21  22
ATOM     22  C   UNL d   1     -50.654  13.636  21.886  0.00  0.00     0.126 C 
ATOM     23  C   UNL d   1     -51.062  13.713  21.153  0.00  0.00     0.029 C 
ENDBRANCH  21  22
ENDBRANCH  19  21
ENDBRANCH   1  19
TORSDOF 7
ENDMDL
MODEL 7
REMARK VINA RESULT:      -4.5      7.925     10.014
REMARK  7 active torsions:
REMARK  status: ('A' for Active; 'I' for Inactive)
REMARK    1  A    between atoms: C_6  and  C_1 
REMARK    2  A    between atoms: C_7  and  C_3 
REMARK    3  A    between atoms: O_14  and  C_6 
REMARK    4  A    between atoms: C_8  and  C_7 
REMARK    5  A    between atoms: S_10  and  C_8 
REMARK    6  A    between atoms: C_13  and  S_10 
REMARK    7  A    between atoms: C_22  and  O_14 
ROOT
ATOM      1  C   UNL d   1     -48.997  13.713  22.289  0.00  0.00     0.083 A 
ATOM      2  C   UNL d   1     -48.321  13.641  22.754  0.00  0.00     0.028 A 
ATOM      3  C   UNL d   1     -47.967  12.962  22.555  0.00  0.00     0.121 A 
ATOM      4  N   UNL d   1     -48.415  12.595  21.962  0.00  0.00    -0.242 NA
ATOM      5  C   UNL d   1     -49.027  13.073  21.825  0.00  0.00     0.087 A 
ATOM      6  C   UNL d   1     -48.096  14.194  23.306  0.00  0.00     0.002 C 
ATOM      7  C   UNL d   1     -49.659  12.946  21.258  0.00  0.00     0.021 C 
ENDROOT
BRANCH   3   8
ATOM      8  C   UNL d   1     -47.261  12.743  22.942  0.00  0.00     0.220 C 
ATOM      9  O   UNL d   1     -47.276  12.431  23.687  0.00  0.00    -0.284 OA
BRANCH   8  10
ATOM     10  C   UNL d   1     -46.535  12.848  22.552  0.00  0.00     0.079 C 
BRANCH  10  11
ATOM     11  S   UNL d   1     -45.837  12.732  22.947  0.00  0.00    -0.083 SA
BRANCH  11  12
ATOM     12  C   UNL d   1     -45.122  12.703  22.507  0.00  0.00     0.030 A 
ATOM     13  C   UNL d   1     -44.577  12.092  22.639  0.00  0.00     0.007 A 
ATOM     14  C   UNL d   1     -43.900  12.082  22.208  0.00  0.00     0.012 A 
ATOM     15  C   UNL d   1     -43.723  12.653  21.638  0.00  0.00     0.058 A 
ATOM     16  C   UNL d   1     -44.258  13.231  21.525  0.00  0.00     0.012 A 
ATOM     17 CL   UNL d   1     -43.025  12.660  21.180  0.00  0.00    -0.082 Cl
ATOM     18  C   UNL d   1     -44.956  13.278  21.940  0.00  0.00     0.007 A 
ENDBRANCH  11  12
ENDBRANCH  10  11
ENDBRANCH   8  10
ENDBRANCH   3   8
BRANCH   1  19
ATOM     19  C   UNL d   1     -49.545  14.354  22.313  0.00  0.00     0.302 C 
ATOM     20  O   UNL d   1     -49.437  15.011  21.803  0.00  0.00    -0.259 OA
BRANCH  19  21
ATOM     21  O   UNL d   1     -50.198  14.355  22.833  0.00  0.00    -0.271 OA
BRANCH  21  22
ATOM     22  C   UNL d   1     -50.673  15.034  22.855  0.00  0.00     0.126 C 
ATOM     23  C   UNL d   1     -51.064  15.256  23.568  0.00  0.00     0.029 C 
ENDBRANCH  21  22
ENDBRANCH  19  21
ENDBRANCH   1  19
TORSDOF 7
ENDMDL
MODEL 8
REMARK VINA RESULT:      -3.8      2.573      5.165
REMARK  7 active torsions:
REMARK  status: ('A' for Active; 'I' for Inactive)
REMARK    1  A    between atoms: C_6  and  C_1 
REMARK    2  A    between atoms: C_7  and  C_3 
REMARK    3  A    between atoms: O_14  and  C_6 
REMARK    4  A    between atoms: C_8  and  C_7 
REMARK    5  A    between atoms: S_10  and  C_8 
REMARK    6  A    between atoms: C_13  and  S_10 
REMARK    7  A    between atoms: C_22  and  O_14 
ROOT
ATOM      1  C   UNL d   1     -40.276  15.033  19.996  0.00  0.00     0.083 A 
ATOM      2  C   UNL d   1     -39.516  14.875  19.721  0.00  0.00     0.028 A 
ATOM      3  C   UNL d   1     -39.381  15.356  19.108  0.00  0.00     0.121 A 
ATOM      4  N   UNL d   1     -40.054  15.824  18.986  0.00  0.00    -0.242 NA
ATOM      5  C   UNL d   1     -40.573  15.605  19.537  0.00  0.00     0.087 A 
ATOM      6  C   UNL d   1     -39.026  14.316  20.052  0.00  0.00     0.002 C 
ATOM      7  C   UNL d   1     -41.362  15.922  19.653  0.00  0.00     0.021 C 
ENDROOT
BRANCH   3   8
ATOM      8  C   UNL d   1     -38.645  15.318  18.715  0.00  0.00     0.220 C 
ATOM      9  O   UNL d   1     -37.963  15.526  19.093  0.00  0.00    -0.284 OA
BRANCH   8  10
ATOM     10  C   UNL d   1     -38.620  15.062  17.925  0.00  0.00     0.079 C 
BRANCH  10  11
ATOM     11  S   UNL d   1     -37.947  14.723  17.626  0.00  0.00    -0.083 SA
BRANCH  11  12
ATOM     12  C   UNL d   1     -37.946  14.461  16.828  0.00  0.00     0.030 A 
ATOM     13  C   UNL d   1     -37.945  15.012  16.208  0.00  0.00     0.007 A 
ATOM     14  C   UNL d   1     -37.944  14.741  15.453  0.00  0.00     0.012 A 
ATOM     15  C   UNL d   1     -37.945  13.937  15.265  0.00  0.00     0.058 A 
ATOM     16  C   UNL d   1     -37.946  13.422  15.873  0.00  0.00     0.012 A 
ATOM     17 CL   UNL d   1     -37.944  13.635  14.487  0.00  0.00    -0.082 Cl
ATOM     18  C   UNL d   1     -37.947  13.655  16.652  0.00  0.00     0.007 A 
ENDBRANCH  11  12
ENDBRANCH  10  11
ENDBRANCH   8  10
ENDBRANCH   3   8
BRANCH   1  19
ATOM     19  C   UNL d   1     -40.654  14.649  20.646  0.00  0.00     0.302 C 
ATOM     20  O   UNL d   1     -40.375  14.785  21.426  0.00  0.00    -0.259 OA
BRANCH  19  21
ATOM     21  O   UNL d   1     -41.302  14.134  20.537  0.00  0.00    -0.271 OA
BRANCH  21  22
ATOM     22  C   UNL d   1     -41.546  13.679  21.184  0.00  0.00     0.126 C 
ATOM     23  C   UNL d   1     -42.129  13.078  21.084  0.00  0.00     0.029 C 
ENDBRANCH  21  22
ENDBRANCH  19  21
ENDBRANCH   1  19
TORSDOF 7
ENDMDL
MODEL 9
REMARK VINA RESULT:      -3.5      1.690      2.011
REMARK  7 active torsions:
REMARK  status: ('A' for Active; 'I' for Inactive)
REMARK    1  A    between atoms: C_6  and  C_1 
REMARK    2  A    between atoms: C_7  and  C_3 
REMARK    3  A    between atoms: O_14  and  C_6 
REMARK    4  A    between atoms: C_8  and  C_7 
REMARK    5  A    between atoms: S_10  and  C_8 
REMARK    6  A    between atoms: C_13  and  S_10 
REMARK    7  A    between atoms: C_22  and  O_14 
ROOT
ATOM      1  C   UNL d   1     -38.910  15.344  16.792  0.00  0.00     0.083 A 
ATOM      2  C   UNL d   1     -38.709  15.272  17.587  0.00  0.00     0.028 A 
ATOM      3  C   UNL d   1     -39.338  15.495  18.011  0.00  0.00     0.121 A 
ATOM      4  N   UNL d   1     -39.945  15.711  17.491  0.00  0.00    -0.242 NA
ATOM      5  C   UNL d   1     -39.655  15.609  16.765  0.00  0.00     0.087 A 
ATOM      6  C   UNL d   1     -37.982  15.013  17.843  0.00  0.00     0.002 C 
ATOM      7  C   UNL d   1     -40.064  15.755  16.024  0.00  0.00     0.021 C 
ENDROOT
BRANCH   3   8
ATOM      8  C   UNL d   1     -39.293  15.478  18.845  0.00  0.00     0.220 C 
ATOM      9  O   UNL d   1     -38.745  15.922  19.239  0.00  0.00    -0.284 OA
BRANCH   8  10
ATOM     10  C   UNL d   1     -39.820  14.998  19.270  0.00  0.00     0.079 C 
BRANCH  10  11
ATOM     11  S   UNL d   1     -40.012  15.179  20.037  0.00  0.00    -0.083 SA
BRANCH  11  12
ATOM     12  C   UNL d   1     -40.622  14.743  20.415  0.00  0.00     0.030 A 
ATOM     13  C   UNL d   1     -40.561  13.919  20.488  0.00  0.00     0.007 A 
ATOM     14  C   UNL d   1     -41.154  13.522  20.853  0.00  0.00     0.012 A 
ATOM     15  C   UNL d   1     -41.824  13.897  21.160  0.00  0.00     0.058 A 
ATOM     16  C   UNL d   1     -41.865  14.687  21.080  0.00  0.00     0.012 A 
ATOM     17 CL   UNL d   1     -42.451  13.500  21.542  0.00  0.00    -0.082 Cl
ATOM     18  C   UNL d   1     -41.286  15.128  20.717  0.00  0.00     0.007 A 
ENDBRANCH  11  12
ENDBRANCH  10  11
ENDBRANCH   8  10
ENDBRANCH   3   8
BRANCH   1  19
ATOM     19  C   UNL d   1     -38.406  15.166  16.138  0.00  0.00     0.302 C 
ATOM     20  O   UNL d   1     -37.940  15.775  15.797  0.00  0.00    -0.259 OA
BRANCH  19  21
ATOM     21  O   UNL d   1     -38.357  14.397  15.817  0.00  0.00    -0.271 OA
BRANCH  21  22
ATOM     22  C   UNL d   1     -37.998  14.311  15.076  0.00  0.00     0.126 C 
ATOM     23  C   UNL d   1     -37.940  13.550  14.718  0.00  0.00     0.029 C 
ENDBRANCH  21  22
ENDBRANCH  19  21
ENDBRANCH   1  19
TORSDOF 7
ENDMDL
