MODEL 1
REMARK VINA RESULT:      21.8      0.000      0.000
REMARK  3 active torsions:
REMARK  status: ('A' for Active; 'I' for Inactive)
REMARK    1  A    between atoms: C_2  and  N_1 
REMARK    2  A    between atoms: C_3  and  N_1 
REMARK    3  A    between atoms: C_7  and  C_3 
ROOT
ATOM      1  N   UNL d   1      59.039  49.390  50.551  0.00  0.00    -0.184 N 
ATOM      2  O   UNL d   1      59.042  48.979  49.831  0.00  0.00    -0.080 OA
ENDROOT
BRANCH   1   3
ATOM      3  C   UNL d   1      59.743  49.477  50.973  0.00  0.00     0.090 A 
ATOM      4  C   UNL d   1      60.463  49.620  50.582  0.00  0.00     0.018 A 
ATOM      5  C   UNL d   1      60.483  49.679  49.764  0.00  0.00     0.002 C 
ATOM      6  C   UNL d   1      61.167  49.707  51.004  0.00  0.00     0.002 A 
ATOM      7  C   UNL d   1      61.172  49.651  51.846  0.00  0.00     0.000 A 
ATOM      8  C   UNL d   1      60.430  49.504  52.224  0.00  0.00     0.002 A 
ATOM      9  C   UNL d   1      59.734  49.420  51.789  0.00  0.00     0.020 A 
ENDBRANCH   1   3
BRANCH   1  10
ATOM     10  C   UNL d   1      58.341  49.706  50.837  0.00  0.00     0.108 C 
BRANCH  10  11
ATOM     11  C   UNL d   1      57.619  49.520  50.475  0.00  0.00     0.023 A 
ATOM     12  C   UNL d   1      57.010  49.147  50.902  0.00  0.00     0.022 A 
ATOM     13  C   UNL d   1      56.294  48.961  50.553  0.00  0.00     0.099 A 
ATOM     14  N   UNL d   1      56.171  49.146  49.757  0.00  0.00    -0.242 NA
ATOM     15  C   UNL d   1      56.787  49.523  49.325  0.00  0.00     0.099 A 
ATOM     16  C   UNL d   1      57.500  49.706  49.686  0.00  0.00     0.022 A 
ENDBRANCH  10  11
ENDBRANCH   1  10
TORSDOF 3
ENDMDL
