MODEL 1
REMARK VINA RESULT:      65.5      0.000      0.000
REMARK  4 active torsions:
REMARK  status: ('A' for Active; 'I' for Inactive)
REMARK    1  A    between atoms: C_6  and  N_1 
REMARK    2  A    between atoms: C_8  and  C_14 
REMARK    3  A    between atoms: O_20  and  C_8 
REMARK    4  A    between atoms: C_22  and  O_20 
ROOT
ATOM      1  N   UNL d   1      59.284  49.470  50.825  0.00  0.00    -0.242 N 
ATOM      2  C   UNL d   1      58.520  49.344  51.174  0.00  0.00     0.267 A 
ATOM      3  C   UNL d   1      59.254  49.572  50.100  0.00  0.00     0.267 A 
ATOM      4  C   UNL d   1      58.006  49.387  50.529  0.00  0.00     0.061 A 
ATOM      5  C   UNL d   1      58.472  49.531  49.848  0.00  0.00     0.061 A 
ATOM      6  C   UNL d   1      58.124  49.606  49.093  0.00  0.00     0.005 A 
ATOM      7  C   UNL d   1      57.198  49.319  50.447  0.00  0.00     0.005 A 
ATOM      8  O   UNL d   1      58.315  49.211  51.953  0.00  0.00    -0.267 OA
ATOM      9  O   UNL d   1      59.915  49.707  49.612  0.00  0.00    -0.267 OA
ATOM     10  C   UNL d   1      57.307  49.531  49.052  0.00  0.00     0.000 A 
ATOM     11  C   UNL d   1      56.842  49.387  49.733  0.00  0.00     0.000 A 
ATOM     12  C   UNL d   1      56.034  49.319  49.651  0.00  0.00     0.000 C 
ENDROOT
BRANCH   1  13
ATOM     13  C   UNL d   1      60.003  49.483  51.228  0.00  0.00     0.070 A 
ATOM     14  C   UNL d   1      60.711  49.295  50.842  0.00  0.00     0.018 A 
ATOM     15  C   UNL d   1      61.430  49.308  51.245  0.00  0.00     0.007 A 
ATOM     16  C   UNL d   1      61.465  49.507  52.041  0.00  0.00     0.064 A 
ATOM     17  C   UNL d   1      60.733  49.706  52.460  0.00  0.00     0.007 A 
ATOM     18  C   UNL d   1      59.994  49.685  52.014  0.00  0.00     0.018 A 
BRANCH  16  19
ATOM     19  C   UNL d   1      62.210  49.506  52.405  0.00  0.00     0.300 C 
ATOM     20  O   UNL d   1      62.905  49.483  51.919  0.00  0.00    -0.259 OA
BRANCH  19  21
ATOM     21  O   UNL d   1      62.246  49.527  53.190  0.00  0.00    -0.271 OA
BRANCH  21  22
ATOM     22  C   UNL d   1      61.979  48.903  53.606  0.00  0.00     0.126 C 
ATOM     23  C   UNL d   1      62.518  48.363  53.981  0.00  0.00     0.029 C 
ENDBRANCH  21  22
ENDBRANCH  19  21
ENDBRANCH  16  19
ENDBRANCH   1  13
TORSDOF 4
ENDMDL
