MODEL 1
REMARK VINA RESULT:      92.6      0.000      0.000
REMARK  2 active torsions:
REMARK  status: ('A' for Active; 'I' for Inactive)
REMARK    1  A    between atoms: N_7  and  C_3 
REMARK    2  A    between atoms: C_15  and  C_5 
ROOT
ATOM      1  N   UNL d   1     -51.888  25.584  33.934  0.00  0.00    -0.196 N 
ATOM      2  C   UNL d   1     -51.728  26.393  33.764  0.00  0.00     0.167 A 
ATOM      3  C   UNL d   1     -52.667  25.300  33.885  0.00  0.00     0.153 A 
ATOM      4  N   UNL d   1     -50.504  25.365  34.194  0.00  0.00    -0.163 NA
ATOM      5  C   UNL d   1     -50.968  26.671  33.811  0.00  0.00     0.055 A 
ATOM      6  N   UNL d   1     -52.353  26.890  33.551  0.00  0.00    -0.227 NA
ATOM      7  C   UNL d   1     -53.273  25.803  33.674  0.00  0.00     0.052 A 
ATOM      8  C   UNL d   1     -50.347  26.162  34.027  0.00  0.00     0.104 A 
ATOM      9  C   UNL d   1     -53.121  26.614  33.502  0.00  0.00     0.086 A 
ATOM     10  C   UNL d   1     -54.073  25.690  33.581  0.00  0.00     0.005 A 
ATOM     11  C   UNL d   1     -49.580  26.452  34.072  0.00  0.00     0.023 C 
ATOM     12  C   UNL d   1     -53.832  26.979  33.308  0.00  0.00     0.019 A 
ATOM     13  C   UNL d   1     -54.427  26.397  33.358  0.00  0.00     0.002 A 
ENDROOT
BRANCH   3  14
ATOM     14  N   UNL d   1     -52.833  24.484  34.056  0.00  0.00    -0.274 N 
ATOM     15  C   UNL d   1     -52.666  23.677  33.880  0.00  0.00     0.149 A 
ATOM     16  N   UNL d   1     -53.148  23.195  34.383  0.00  0.00    -0.225 NA
ATOM     17  C   UNL d   1     -52.121  23.403  33.310  0.00  0.00     0.041 C 
ATOM     18  C   UNL d   1     -53.607  23.717  34.864  0.00  0.00     0.120 A 
ATOM     19  C   UNL d   1     -53.418  24.500  34.668  0.00  0.00     0.104 A 
ENDBRANCH   3  14
BRANCH   5  20
ATOM     20  C   UNL d   1     -50.811  27.464  33.645  0.00  0.00     0.004 A 
ATOM     21  C   UNL d   1     -50.033  27.723  33.555  0.00  0.00     0.000 A 
ATOM     22  C   UNL d   1     -49.874  28.510  33.389  0.00  0.00     0.000 A 
ATOM     23  C   UNL d   1     -50.498  29.049  33.311  0.00  0.00     0.000 A 
ATOM     24  C   UNL d   1     -51.269  28.802  33.398  0.00  0.00     0.000 A 
ATOM     25  C   UNL d   1     -51.427  28.001  33.567  0.00  0.00     0.000 A 
ENDBRANCH   5  20
TORSDOF 2
ENDMDL
