MODEL 1
REMARK VINA RESULT:      15.1      0.000      0.000
REMARK  4 active torsions:
REMARK  status: ('A' for Active; 'I' for Inactive)
REMARK    1  A    between atoms: C_5  and  C_1 
REMARK    2  A    between atoms: C_11  and  C_2 
REMARK       I    between atoms: C_12  and  N_3 
REMARK    3  A    between atoms: C_15  and  N_7 
REMARK    4  A    between atoms: C_14  and  C_9 
ROOT
ATOM      1  C   UNL d   1     -42.009-122.056 -51.674  0.00  0.00     0.057 A 
ATOM      2  C   UNL d   1     -41.780-122.226 -52.462  0.00  0.00     0.110 A 
ATOM      3  N   UNL d   1     -41.547-121.506 -52.807  0.00  0.00    -0.165 NA
ATOM      4  N   UNL d   1     -41.640-120.912 -52.222  0.00  0.00    -0.228 N 
ATOM      5  C   UNL d   1     -41.919-121.265 -51.547  0.00  0.00     0.103 A 
ENDROOT
BRANCH   1   6
ATOM      6  C   UNL d   1     -42.285-122.277 -50.941  0.00  0.00     0.091 A 
ATOM      7  N   UNL d   1     -43.089-122.266 -50.705  0.00  0.00    -0.195 N 
ATOM      8  N   UNL d   1     -43.129-122.537 -49.911  0.00  0.00    -0.163 NA
ATOM      9  C   UNL d   1     -43.738-122.041 -51.143  0.00  0.00     0.281 C 
ATOM     10  C   UNL d   1     -42.365-122.706 -49.674  0.00  0.00     0.103 A 
ATOM     11  C   UNL d   1     -41.841-122.553 -50.291  0.00  0.00     0.040 A 
ATOM     12  O   UNL d   1     -43.601-121.787 -51.922  0.00  0.00    -0.265 OA
ATOM     13  C   UNL d   1     -44.507-122.059 -50.834  0.00  0.00     0.068 C 
BRANCH  10  14
ATOM     14  C   UNL d   1     -42.121-122.991 -48.930  0.00  0.00     0.019 A 
ATOM     15  C   UNL d   1     -41.387-122.752 -48.622  0.00  0.00     0.002 A 
ATOM     16  C   UNL d   1     -41.127-123.014 -47.903  0.00  0.00     0.000 A 
ATOM     17  C   UNL d   1     -41.592-123.528 -47.460  0.00  0.00     0.000 A 
ATOM     18  C   UNL d   1     -42.321-123.768 -47.763  0.00  0.00     0.000 A 
ATOM     19  C   UNL d   1     -41.348-123.814 -46.716  0.00  0.00     0.000 C 
ATOM     20  C   UNL d   1     -42.587-123.506 -48.487  0.00  0.00     0.002 A 
ENDBRANCH  10  14
ENDBRANCH   1   6
BRANCH   2  21
ATOM     21  C   UNL d   1     -41.613-122.619 -53.171  0.00  0.00     0.049 A 
ATOM     22  S   UNL d   1     -41.178-123.319 -53.226  0.00  0.00    -0.085 SA
ATOM     23  C   UNL d   1     -41.155-123.506 -54.047  0.00  0.00     0.035 A 
ATOM     24  C   UNL d   1     -41.567-122.929 -54.463  0.00  0.00     0.007 A 
ATOM     25  C   UNL d   1     -41.853-122.374 -53.908  0.00  0.00     0.009 A 
ENDBRANCH   2  21
BRANCH   4  26
ATOM     26  C   UNL d   1     -41.466-120.100 -52.344  0.00  0.00     0.083 A 
ATOM     27  C   UNL d   1     -41.289-119.612 -51.709  0.00  0.00     0.019 A 
ATOM     28  C   UNL d   1     -41.124-118.826 -51.867  0.00  0.00     0.002 A 
ATOM     29  C   UNL d   1     -41.127-118.507 -52.625  0.00  0.00     0.000 A 
ATOM     30  C   UNL d   1     -41.309-119.020 -53.262  0.00  0.00     0.002 A 
ATOM     31  C   UNL d   1     -41.477-119.802 -53.133  0.00  0.00     0.019 A 
ENDBRANCH   4  26
TORSDOF 4
ENDMDL
