MODEL 1
REMARK VINA RESULT:      19.2      0.000      0.000
REMARK  3 active torsions:
REMARK  status: ('A' for Active; 'I' for Inactive)
REMARK    1  A    between atoms: N_7  and  N_1 
REMARK    2  A    between atoms: N_2  and  N_8 
REMARK       I    between atoms: C_3  and  N_7 
REMARK    3  A    between atoms: C_4  and  C_3 
REMARK       I    between atoms: N_8  and  C_4 
ROOT
ATOM      1  C   UNL d   1      45.955 -12.790  44.406  0.00  0.00     0.355 C 
ATOM      2  N   UNL d   1      45.811 -12.226  43.846  0.00  0.00    -0.115 NA
ATOM      3  O   UNL d   1      46.545 -12.682  44.955  0.00  0.00    -0.258 OA
ENDROOT
BRANCH   1   4
ATOM      4  C   UNL d   1      45.500 -13.478  44.417  0.00  0.00     0.355 C 
ATOM      5  N   UNL d   1      45.775 -14.118  44.857  0.00  0.00    -0.115 NA
ATOM      6  O   UNL d   1      45.019 -13.500  44.130  0.00  0.00    -0.258 OA
BRANCH   5   7
ATOM      7  N   UNL d   1      45.336 -14.836  44.891  0.00  0.00    -0.175 N 
ATOM      8  C   UNL d   1      45.724 -15.524  44.883  0.00  0.00     0.170 A 
ATOM      9  S   UNL d   1      45.112 -16.147  44.924  0.00  0.00    -0.051 SA
ATOM     10  S   UNL d   1      46.569 -15.599  44.842  0.00  0.00    -0.050 SA
ATOM     11  C   UNL d   1      44.382 -15.745  44.955  0.00  0.00     0.100 A 
ATOM     12  C   UNL d   1      44.541 -14.933  44.933  0.00  0.00     0.288 A 
ATOM     13  O   UNL d   1      43.974 -14.312  44.951  0.00  0.00    -0.265 OA
ENDBRANCH   5   7
ENDBRANCH   1   4
BRANCH   2  14
ATOM     14  N   UNL d   1      45.210 -12.279  43.244  0.00  0.00    -0.175 N 
ATOM     15  C   UNL d   1      45.289 -12.422  42.446  0.00  0.00     0.170 A 
ATOM     16  S   UNL d   1      44.536 -12.410  42.150  0.00  0.00    -0.051 SA
ATOM     17  S   UNL d   1      46.014 -12.554  42.024  0.00  0.00    -0.050 SA
ATOM     18  C   UNL d   1      44.001 -12.270  42.712  0.00  0.00     0.100 A 
ATOM     19  C   UNL d   1      44.382 -12.182  43.410  0.00  0.00     0.288 A 
ATOM     20  O   UNL d   1      44.213 -12.093  43.847  0.00  0.00    -0.265 OA
ENDBRANCH   2  14
TORSDOF 3
ENDMDL
MODEL 2
REMARK VINA RESULT:      19.6      0.583      3.183
REMARK  3 active torsions:
REMARK  status: ('A' for Active; 'I' for Inactive)
REMARK    1  A    between atoms: N_7  and  N_1 
REMARK    2  A    between atoms: N_2  and  N_8 
REMARK       I    between atoms: C_3  and  N_7 
REMARK    3  A    between atoms: C_4  and  C_3 
REMARK       I    between atoms: N_8  and  C_4 
ROOT
ATOM      1  C   UNL d   1      46.139 -13.152  44.494  0.00  0.00     0.355 C 
ATOM      2  N   UNL d   1      46.022 -13.805  44.955  0.00  0.00    -0.115 NA
ATOM      3  O   UNL d   1      46.639 -12.561  44.741  0.00  0.00    -0.258 OA
ENDROOT
BRANCH   1   4
ATOM      4  C   UNL d   1      45.749 -13.089  43.770  0.00  0.00     0.355 C 
ATOM      5  N   UNL d   1      45.472 -12.348  43.541  0.00  0.00    -0.115 NA
ATOM      6  O   UNL d   1      45.678 -13.544  43.449  0.00  0.00    -0.258 OA
BRANCH   5   7
ATOM      7  N   UNL d   1      45.069 -12.246  42.809  0.00  0.00    -0.175 N 
ATOM      8  C   UNL d   1      45.488 -12.223  42.140  0.00  0.00     0.170 A 
ATOM      9  S   UNL d   1      44.907 -12.114  41.495  0.00  0.00    -0.051 SA
ATOM     10  S   UNL d   1      46.333 -12.295  42.099  0.00  0.00    -0.050 SA
ATOM     11  C   UNL d   1      44.161 -12.081  41.866  0.00  0.00     0.100 A 
ATOM     12  C   UNL d   1      44.282 -12.165  42.681  0.00  0.00     0.288 A 
ATOM     13  O   UNL d   1      43.687 -12.165  43.276  0.00  0.00    -0.265 OA
ENDBRANCH   5   7
ENDBRANCH   1   4
BRANCH   2  14
ATOM     14  N   UNL d   1      45.512 -14.458  44.754  0.00  0.00    -0.175 N 
ATOM     15  C   UNL d   1      45.707 -15.204  44.489  0.00  0.00     0.170 A 
ATOM     16  S   UNL d   1      45.003 -15.587  44.389  0.00  0.00    -0.051 SA
ATOM     17  S   UNL d   1      46.490 -15.503  44.350  0.00  0.00    -0.050 SA
ATOM     18  C   UNL d   1      44.388 -15.129  44.574  0.00  0.00     0.100 A 
ATOM     19  C   UNL d   1      44.665 -14.415  44.807  0.00  0.00     0.288 A 
ATOM     20  O   UNL d   1      44.433 -14.024  44.952  0.00  0.00    -0.265 OA
ENDBRANCH   2  14
TORSDOF 3
ENDMDL
