MODEL 1
REMARK VINA RESULT:      94.9      0.000      0.000
REMARK  3 active torsions:
REMARK  status: ('A' for Active; 'I' for Inactive)
REMARK    1  A    between atoms: C_6  and  C_1 
REMARK    2  A    between atoms: C_2  and  C_8 
REMARK       I    between atoms: N_11  and  C_6 
REMARK    3  A    between atoms: C_12  and  N_11 
ROOT
ATOM      1  C   UNL d   1     -56.425 -99.157 -44.495  0.00  0.00     0.054 A 
ATOM      2  C   UNL d   1     -55.780 -99.636 -44.296  0.00  0.00     0.088 A 
ATOM      3  C   UNL d   1     -56.457 -98.769 -45.225  0.00  0.00     0.005 A 
ATOM      4  C   UNL d   1     -55.154 -99.729 -44.839  0.00  0.00     0.019 A 
ATOM      5  C   UNL d   1     -55.831 -98.863 -45.769  0.00  0.00     0.000 A 
ATOM      6  C   UNL d   1     -55.183 -99.355 -45.546  0.00  0.00     0.002 A 
ENDROOT
BRANCH   2   7
ATOM      7  N   UNL d   1     -55.748-100.024 -43.565  0.00  0.00    -0.207 NA
ATOM      8  C   UNL d   1     -55.383-100.763 -43.491  0.00  0.00     0.286 C 
ATOM      9  O   UNL d   1     -55.051-101.126 -44.121  0.00  0.00    -0.265 OA
BRANCH   8  10
ATOM     10  C   UNL d   1     -55.360-101.141 -42.741  0.00  0.00     0.098 A 
ATOM     11  S   UNL d   1     -54.899-100.903 -42.170  0.00  0.00    -0.081 SA
ATOM     12  C   UNL d   1     -55.033-101.412 -41.519  0.00  0.00     0.030 A 
ATOM     13  C   UNL d   1     -54.732-101.451 -40.787  0.00  0.00     0.006 A 
ATOM     14  C   UNL d   1     -55.603-101.961 -41.749  0.00  0.00     0.017 A 
ATOM     15  C   UNL d   1     -54.993-102.041 -40.263  0.00  0.00     0.001 A 
ATOM     16  C   UNL d   1     -55.554-102.591 -40.472  0.00  0.00     0.000 A 
ATOM     17  C   UNL d   1     -55.868-102.551 -41.237  0.00  0.00     0.001 A 
ATOM     18  C   UNL d   1     -55.810-101.784 -42.533  0.00  0.00     0.069 A 
ATOM     19 CL   UNL d   1     -56.348-102.161 -43.014  0.00  0.00    -0.082 Cl
ENDBRANCH   8  10
ENDBRANCH   2   7
BRANCH   1  20
ATOM     20  C   UNL d   1     -57.051 -99.064 -43.952  0.00  0.00     0.164 A 
ATOM     21  N   UNL d   1     -57.085 -98.966 -43.122  0.00  0.00    -0.225 NA
ATOM     22  C   UNL d   1     -57.871 -98.906 -42.932  0.00  0.00     0.101 A 
ATOM     23  C   UNL d   1     -58.225 -98.804 -42.205  0.00  0.00     0.021 A 
ATOM     24  C   UNL d   1     -58.317 -98.959 -43.577  0.00  0.00     0.101 A 
ATOM     25  C   UNL d   1     -59.045 -98.757 -42.136  0.00  0.00     0.002 A 
ATOM     26  C   UNL d   1     -59.495 -98.810 -42.785  0.00  0.00     0.002 A 
ATOM     27  C   UNL d   1     -59.138 -98.911 -43.508  0.00  0.00     0.021 A 
ATOM     28  N   UNL d   1     -57.832 -99.058 -44.227  0.00  0.00    -0.225 NA
ENDBRANCH   1  20
TORSDOF 3
ENDMDL
