MODEL 1
REMARK VINA RESULT:      -2.7      0.000      0.000
REMARK  7 active torsions:
REMARK  status: ('A' for Active; 'I' for Inactive)
REMARK    1  A    between atoms: C_6  and  C_13 
REMARK       I    between atoms: N_12  and  C_6 
REMARK    2  A    between atoms: O_8  and  C_7 
REMARK    3  A    between atoms: C_13  and  O_8 
REMARK    4  A    between atoms: O_14  and  C_10 
REMARK    5  A    between atoms: C_11  and  C_20 
REMARK    6  A    between atoms: C_15  and  N_12 
REMARK    7  A    between atoms: C_20  and  C_15 
ROOT
ATOM      1  C   UNL d   1      57.324  -0.462  31.013  0.00  0.00     0.304 C 
ATOM      2  O   UNL d   1      56.971  -1.209  31.073  0.00  0.00    -0.263 OA
ATOM      3  N   UNL d   1      57.868  -0.296  30.421  0.00  0.00    -0.205 NA
ENDROOT
BRANCH   1   4
ATOM      4  C   UNL d   1      57.123   0.125  31.560  0.00  0.00     0.185 C 
BRANCH   4   5
ATOM      5  O   UNL d   1      56.595  -0.045  32.168  0.00  0.00    -0.298 OA
BRANCH   5   6
ATOM      6  C   UNL d   1      56.764   0.195  32.931  0.00  0.00     0.122 A 
ATOM      7  C   UNL d   1      56.151   0.328  33.468  0.00  0.00     0.117 A 
ATOM      8  O   UNL d   1      55.325   0.263  33.388  0.00  0.00    -0.330 OA
ATOM      9  C   UNL d   1      56.320   0.571  34.239  0.00  0.00     0.022 A 
ATOM     10  C   UNL d   1      54.986   0.468  34.118  0.00  0.00     0.117 A 
ATOM     11  C   UNL d   1      54.739   0.682  34.861  0.00  0.00     0.035 C 
ATOM     12  C   UNL d   1      54.302   0.305  33.693  0.00  0.00     0.035 C 
ATOM     13  C   UNL d   1      55.601   0.657  34.639  0.00  0.00     0.003 A 
ATOM     14  C   UNL d   1      57.102   0.680  34.471  0.00  0.00     0.002 A 
ATOM     15  C   UNL d   1      57.705   0.549  33.941  0.00  0.00     0.002 A 
ATOM     16  C   UNL d   1      57.535   0.306  33.170  0.00  0.00     0.027 A 
ENDBRANCH   5   6
ENDBRANCH   4   5
ENDBRANCH   1   4
BRANCH   3  17
ATOM     17  C   UNL d   1      58.066  -0.876  29.881  0.00  0.00     0.102 C 
BRANCH  17  18
ATOM     18  C   UNL d   1      58.750  -0.805  29.416  0.00  0.00     0.023 C 
BRANCH  18  19
ATOM     19  C   UNL d   1      59.179  -1.468  29.201  0.00  0.00     0.024 A 
ATOM     20  C   UNL d   1      59.995  -1.415  29.092  0.00  0.00     0.094 A 
ATOM     21  C   UNL d   1      60.417  -2.092  28.875  0.00  0.00     0.024 A 
ATOM     22  C   UNL d   1      60.034  -2.815  28.766  0.00  0.00     0.002 A 
ATOM     23  C   UNL d   1      59.225  -2.872  28.873  0.00  0.00     0.000 A 
ATOM     24  C   UNL d   1      58.791  -2.208  29.089  0.00  0.00     0.002 A 
BRANCH  20  25
ATOM     25  O   UNL d   1      60.374  -0.704  29.198  0.00  0.00    -0.328 OA
ATOM     26  C   UNL d   1      61.104  -0.578  28.851  0.00  0.00     0.181 C 
ENDBRANCH  20  25
ENDBRANCH  18  19
ENDBRANCH  17  18
ENDBRANCH   3  17
TORSDOF 7
ENDMDL
MODEL 2
REMARK VINA RESULT:      -1.7      0.915      6.068
REMARK  7 active torsions:
REMARK  status: ('A' for Active; 'I' for Inactive)
REMARK    1  A    between atoms: C_6  and  C_13 
REMARK       I    between atoms: N_12  and  C_6 
REMARK    2  A    between atoms: O_8  and  C_7 
REMARK    3  A    between atoms: C_13  and  O_8 
REMARK    4  A    between atoms: O_14  and  C_10 
REMARK    5  A    between atoms: C_11  and  C_20 
REMARK    6  A    between atoms: C_15  and  N_12 
REMARK    7  A    between atoms: C_20  and  C_15 
ROOT
ATOM      1  C   UNL d   1      57.594  -0.509  30.574  0.00  0.00     0.304 C 
ATOM      2  O   UNL d   1      57.729   0.296  30.433  0.00  0.00    -0.263 OA
ATOM      3  N   UNL d   1      57.356  -0.776  31.312  0.00  0.00    -0.205 NA
ENDROOT
BRANCH   1   4
ATOM      4  C   UNL d   1      57.701  -1.051  29.959  0.00  0.00     0.185 C 
BRANCH   4   5
ATOM      5  O   UNL d   1      58.462  -1.233  29.702  0.00  0.00    -0.298 OA
BRANCH   5   6
ATOM      6  C   UNL d   1      58.597  -1.927  29.291  0.00  0.00     0.122 A 
ATOM      7  C   UNL d   1      59.346  -2.273  29.297  0.00  0.00     0.117 A 
ATOM      8  O   UNL d   1      60.055  -2.045  29.667  0.00  0.00    -0.330 OA
ATOM      9  C   UNL d   1      59.482  -2.974  28.882  0.00  0.00     0.022 A 
ATOM     10  C   UNL d   1      60.631  -2.612  29.476  0.00  0.00     0.117 A 
ATOM     11  C   UNL d   1      61.130  -3.207  29.242  0.00  0.00     0.035 C 
ATOM     12  C   UNL d   1      61.085  -2.111  29.944  0.00  0.00     0.035 C 
ATOM     13  C   UNL d   1      60.276  -3.182  28.993  0.00  0.00     0.003 A 
ATOM     14  C   UNL d   1      58.869  -3.326  28.461  0.00  0.00     0.002 A 
ATOM     15  C   UNL d   1      58.132  -2.984  28.455  0.00  0.00     0.002 A 
ATOM     16  C   UNL d   1      57.996  -2.283  28.871  0.00  0.00     0.027 A 
ENDBRANCH   5   6
ENDBRANCH   4   5
ENDBRANCH   1   4
BRANCH   3  17
ATOM     17  C   UNL d   1      57.250  -0.240  31.921  0.00  0.00     0.102 C 
BRANCH  17  18
ATOM     18  C   UNL d   1      56.596  -0.301  32.428  0.00  0.00     0.023 C 
BRANCH  18  19
ATOM     19  C   UNL d   1      56.619   0.025  33.179  0.00  0.00     0.024 A 
ATOM     20  C   UNL d   1      55.917   0.198  33.576  0.00  0.00     0.094 A 
ATOM     21  C   UNL d   1      55.954   0.526  34.334  0.00  0.00     0.024 A 
ATOM     22  C   UNL d   1      56.679   0.682  34.694  0.00  0.00     0.002 A 
ATOM     23  C   UNL d   1      57.377   0.513  34.305  0.00  0.00     0.000 A 
ATOM     24  C   UNL d   1      57.358   0.186  33.551  0.00  0.00     0.002 A 
BRANCH  20  25
ATOM     25  O   UNL d   1      55.201   0.045  33.223  0.00  0.00    -0.328 OA
ATOM     26  C   UNL d   1      54.507   0.243  33.608  0.00  0.00     0.181 C 
ENDBRANCH  20  25
ENDBRANCH  18  19
ENDBRANCH  17  18
ENDBRANCH   3  17
TORSDOF 7
ENDMDL
MODEL 3
REMARK VINA RESULT:      -1.0      1.013      1.821
REMARK  7 active torsions:
REMARK  status: ('A' for Active; 'I' for Inactive)
REMARK    1  A    between atoms: C_6  and  C_13 
REMARK       I    between atoms: N_12  and  C_6 
REMARK    2  A    between atoms: O_8  and  C_7 
REMARK    3  A    between atoms: C_13  and  O_8 
REMARK    4  A    between atoms: O_14  and  C_10 
REMARK    5  A    between atoms: C_11  and  C_20 
REMARK    6  A    between atoms: C_15  and  N_12 
REMARK    7  A    between atoms: C_20  and  C_15 
ROOT
ATOM      1  C   UNL d   1      57.416   0.108  31.525  0.00  0.00     0.304 C 
ATOM      2  O   UNL d   1      58.141   0.447  31.735  0.00  0.00    -0.263 OA
ATOM      3  N   UNL d   1      57.373  -0.490  30.964  0.00  0.00    -0.205 NA
ENDROOT
BRANCH   1   4
ATOM      4  C   UNL d   1      56.723   0.379  31.887  0.00  0.00     0.185 C 
BRANCH   4   5
ATOM      5  O   UNL d   1      56.734   0.597  32.680  0.00  0.00    -0.298 OA
BRANCH   5   6
ATOM      6  C   UNL d   1      56.036   0.625  33.104  0.00  0.00     0.122 A 
ATOM      7  C   UNL d   1      56.053   0.639  33.929  0.00  0.00     0.117 A 
ATOM      8  O   UNL d   1      56.687   0.630  34.467  0.00  0.00    -0.330 OA
ATOM      9  C   UNL d   1      55.347   0.667  34.358  0.00  0.00     0.022 A 
ATOM     10  C   UNL d   1      56.366   0.652  35.233  0.00  0.00     0.117 A 
ATOM     11  C   UNL d   1      55.972   0.676  35.941  0.00  0.00     0.035 C 
ATOM     12  C   UNL d   1      57.165   0.632  35.423  0.00  0.00     0.035 C 
ATOM     13  C   UNL d   1      55.542   0.676  35.162  0.00  0.00     0.003 A 
ATOM     14  C   UNL d   1      54.627   0.682  33.959  0.00  0.00     0.002 A 
ATOM     15  C   UNL d   1      54.612   0.668  33.147  0.00  0.00     0.002 A 
ATOM     16  C   UNL d   1      55.318   0.640  32.719  0.00  0.00     0.027 A 
ENDBRANCH   5   6
ENDBRANCH   4   5
ENDBRANCH   1   4
BRANCH   3  17
ATOM     17  C   UNL d   1      58.058  -0.757  30.606  0.00  0.00     0.102 C 
BRANCH  17  18
ATOM     18  C   UNL d   1      58.110  -0.807  29.780  0.00  0.00     0.023 C 
BRANCH  18  19
ATOM     19  C   UNL d   1      58.839  -0.865  29.411  0.00  0.00     0.024 A 
ATOM     20  C   UNL d   1      59.080  -1.583  29.083  0.00  0.00     0.094 A 
ATOM     21  C   UNL d   1      59.819  -1.629  28.713  0.00  0.00     0.024 A 
ATOM     22  C   UNL d   1      60.313  -0.970  28.670  0.00  0.00     0.002 A 
ATOM     23  C   UNL d   1      60.079  -0.257  28.994  0.00  0.00     0.000 A 
ATOM     24  C   UNL d   1      59.348  -0.195  29.365  0.00  0.00     0.002 A 
BRANCH  20  25
ATOM     25  O   UNL d   1      58.594  -2.233  29.124  0.00  0.00    -0.328 OA
ATOM     26  C   UNL d   1      58.752  -2.888  28.660  0.00  0.00     0.181 C 
ENDBRANCH  20  25
ENDBRANCH  18  19
ENDBRANCH  17  18
ENDBRANCH   3  17
TORSDOF 7
ENDMDL
MODEL 4
REMARK VINA RESULT:      -0.0      1.418      5.951
REMARK  7 active torsions:
REMARK  status: ('A' for Active; 'I' for Inactive)
REMARK    1  A    between atoms: C_6  and  C_13 
REMARK       I    between atoms: N_12  and  C_6 
REMARK    2  A    between atoms: O_8  and  C_7 
REMARK    3  A    between atoms: C_13  and  O_8 
REMARK    4  A    between atoms: O_14  and  C_10 
REMARK    5  A    between atoms: C_11  and  C_20 
REMARK    6  A    between atoms: C_15  and  N_12 
REMARK    7  A    between atoms: C_20  and  C_15 
ROOT
ATOM      1  C   UNL d   1      56.566   0.134  31.632  0.00  0.00     0.304 C 
ATOM      2  O   UNL d   1      56.024   0.665  31.301  0.00  0.00    -0.263 OA
ATOM      3  N   UNL d   1      56.652   0.065  32.445  0.00  0.00    -0.205 NA
ENDROOT
BRANCH   1   4
ATOM      4  C   UNL d   1      57.028  -0.336  31.132  0.00  0.00     0.185 C 
BRANCH   4   5
ATOM      5  O   UNL d   1      57.839  -0.203  31.081  0.00  0.00    -0.298 OA
BRANCH   5   6
ATOM      6  C   UNL d   1      58.218  -0.273  30.359  0.00  0.00     0.122 A 
ATOM      7  C   UNL d   1      59.005  -0.037  30.280  0.00  0.00     0.117 A 
ATOM      8  O   UNL d   1      59.541   0.285  30.829  0.00  0.00    -0.330 OA
ATOM      9  C   UNL d   1      59.387  -0.108  29.552  0.00  0.00     0.022 A 
ATOM     10  C   UNL d   1      60.259   0.413  30.432  0.00  0.00     0.117 A 
ATOM     11  C   UNL d   1      60.920   0.505  29.971  0.00  0.00     0.035 C 
ATOM     12  C   UNL d   1      60.469   0.682  31.179  0.00  0.00     0.035 C 
ATOM     13  C   UNL d   1      60.161   0.171  29.647  0.00  0.00     0.003 A 
ATOM     14  C   UNL d   1      58.982  -0.414  28.905  0.00  0.00     0.002 A 
ATOM     15  C   UNL d   1      58.207  -0.645  28.984  0.00  0.00     0.002 A 
ATOM     16  C   UNL d   1      57.824  -0.575  29.713  0.00  0.00     0.027 A 
ENDBRANCH   5   6
ENDBRANCH   4   5
ENDBRANCH   1   4
BRANCH   3  17
ATOM     17  C   UNL d   1      56.194   0.529  32.940  0.00  0.00     0.102 C 
BRANCH  17  18
ATOM     18  C   UNL d   1      56.299   0.501  33.762  0.00  0.00     0.023 C 
BRANCH  18  19
ATOM     19  C   UNL d   1      55.656   0.551  34.266  0.00  0.00     0.024 A 
ATOM     20  C   UNL d   1      55.774   0.609  35.081  0.00  0.00     0.094 A 
ATOM     21  C   UNL d   1      55.116   0.660  35.580  0.00  0.00     0.024 A 
ATOM     22  C   UNL d   1      54.350   0.653  35.274  0.00  0.00     0.002 A 
ATOM     23  C   UNL d   1      54.229   0.595  34.468  0.00  0.00     0.000 A 
ATOM     24  C   UNL d   1      54.872   0.545  33.958  0.00  0.00     0.002 A 
BRANCH  20  25
ATOM     25  O   UNL d   1      56.528   0.616  35.384  0.00  0.00    -0.328 OA
ATOM     26  C   UNL d   1      56.640   0.655  36.193  0.00  0.00     0.181 C 
ENDBRANCH  20  25
ENDBRANCH  18  19
ENDBRANCH  17  18
ENDBRANCH   3  17
TORSDOF 7
ENDMDL
