MODEL 1
REMARK VINA RESULT:      -8.3      0.000      0.000
REMARK  6 active torsions:
REMARK  status: ('A' for Active; 'I' for Inactive)
REMARK    1  A    between atoms: C_9  and  C_1 
REMARK    2  A    between atoms: N_4  and  C_2 
REMARK       I    between atoms: C_5  and  N_4 
REMARK    3  A    between atoms: C_7  and  C_5 
REMARK    4  A    between atoms: O_13  and  C_9 
REMARK    5  A    between atoms: O_16  and  C_11 
REMARK    6  A    between atoms: C_19  and  O_13 
ROOT
ATOM      1  C   UNL d   1      52.445  32.147  52.853  0.00  0.00     0.181 A 
ATOM      2  C   UNL d   1      53.156  31.961  53.241  0.00  0.00     0.115 A 
ATOM      3  O   UNL d   1      52.041  31.433  52.733  0.00  0.00    -0.300 OA
ATOM      4  C   UNL d   1      53.182  31.151  53.353  0.00  0.00     0.043 A 
ATOM      5  C   UNL d   1      52.492  30.821  53.039  0.00  0.00     0.102 A 
ATOM      6  C   UNL d   1      53.747  30.664  53.704  0.00  0.00     0.004 A 
ATOM      7  C   UNL d   1      52.371  30.011  53.077  0.00  0.00     0.025 A 
ATOM      8  C   UNL d   1      53.624  29.845  53.741  0.00  0.00     0.000 A 
ATOM      9  C   UNL d   1      52.930  29.523  53.424  0.00  0.00     0.002 A 
ENDROOT
BRANCH   2  10
ATOM     10  N   UNL d   1      53.738  32.508  53.473  0.00  0.00    -0.206 NA
ATOM     11  C   UNL d   1      53.838  32.686  54.271  0.00  0.00     0.281 C 
ATOM     12  O   UNL d   1      53.365  32.324  54.840  0.00  0.00    -0.265 OA
BRANCH  11  13
ATOM     13  C   UNL d   1      54.413  33.226  54.499  0.00  0.00     0.080 A 
ATOM     14  C   UNL d   1      54.211  33.871  54.991  0.00  0.00     0.099 A 
ATOM     15  C   UNL d   1      54.792  34.403  55.211  0.00  0.00     0.024 A 
ATOM     16  C   UNL d   1      55.574  34.301  54.947  0.00  0.00     0.002 A 
ATOM     17  C   UNL d   1      55.762  33.667  54.466  0.00  0.00     0.000 A 
ATOM     18  C   UNL d   1      55.186  33.129  54.240  0.00  0.00     0.007 A 
BRANCH  14  19
ATOM     19  O   UNL d   1      53.436  33.958  55.243  0.00  0.00    -0.328 OA
ATOM     20  C   UNL d   1      53.205  34.684  55.559  0.00  0.00     0.181 C 
ENDBRANCH  14  19
ENDBRANCH  11  13
ENDBRANCH   2  10
BRANCH   1  21
ATOM     21  C   UNL d   1      52.190  32.900  52.629  0.00  0.00     0.325 C 
ATOM     22  O   UNL d   1      52.627  33.335  52.077  0.00  0.00    -0.257 OA
BRANCH  21  23
ATOM     23  O   UNL d   1      51.508  33.211  52.956  0.00  0.00    -0.269 OA
BRANCH  23  24
ATOM     24  C   UNL d   1      51.146  33.873  52.607  0.00  0.00     0.126 C 
ATOM     25  C   UNL d   1      50.481  34.214  52.969  0.00  0.00     0.029 C 
ENDBRANCH  23  24
ENDBRANCH  21  23
ENDBRANCH   1  21
TORSDOF 6
ENDMDL
MODEL 2
REMARK VINA RESULT:      -7.8      0.887      3.165
REMARK  6 active torsions:
REMARK  status: ('A' for Active; 'I' for Inactive)
REMARK    1  A    between atoms: C_9  and  C_1 
REMARK    2  A    between atoms: N_4  and  C_2 
REMARK       I    between atoms: C_5  and  N_4 
REMARK    3  A    between atoms: C_7  and  C_5 
REMARK    4  A    between atoms: O_13  and  C_9 
REMARK    5  A    between atoms: O_16  and  C_11 
REMARK    6  A    between atoms: C_19  and  O_13 
ROOT
ATOM      1  C   UNL d   1      53.738  31.960  54.318  0.00  0.00     0.181 A 
ATOM      2  C   UNL d   1      53.027  31.869  53.896  0.00  0.00     0.115 A 
ATOM      3  O   UNL d   1      54.163  31.254  54.230  0.00  0.00    -0.300 OA
ATOM      4  C   UNL d   1      53.023  31.123  53.561  0.00  0.00     0.043 A 
ATOM      5  C   UNL d   1      53.726  30.739  53.766  0.00  0.00     0.102 A 
ATOM      6  C   UNL d   1      52.467  30.736  53.090  0.00  0.00     0.004 A 
ATOM      7  C   UNL d   1      53.869  29.977  53.502  0.00  0.00     0.025 A 
ATOM      8  C   UNL d   1      52.613  29.965  52.824  0.00  0.00     0.000 A 
ATOM      9  C   UNL d   1      53.320  29.589  53.034  0.00  0.00     0.002 A 
ENDROOT
BRANCH   2  10
ATOM     10  N   UNL d   1      52.427  32.441  53.830  0.00  0.00    -0.206 NA
ATOM     11  C   UNL d   1      52.296  32.816  53.108  0.00  0.00     0.281 C 
ATOM     12  O   UNL d   1      52.757  32.626  52.452  0.00  0.00    -0.265 OA
BRANCH  11  13
ATOM     13  C   UNL d   1      51.703  33.381  53.044  0.00  0.00     0.080 A 
ATOM     14  C   UNL d   1      51.886  34.152  52.780  0.00  0.00     0.099 A 
ATOM     15  C   UNL d   1      51.288  34.706  52.720  0.00  0.00     0.024 A 
ATOM     16  C   UNL d   1      50.507  34.501  52.921  0.00  0.00     0.002 A 
ATOM     17  C   UNL d   1      50.338  33.744  53.179  0.00  0.00     0.000 A 
ATOM     18  C   UNL d   1      50.932  33.183  53.242  0.00  0.00     0.007 A 
BRANCH  14  19
ATOM     19  O   UNL d   1      52.660  34.338  52.585  0.00  0.00    -0.328 OA
ATOM     20  C   UNL d   1      52.864  35.133  52.504  0.00  0.00     0.181 C 
ENDBRANCH  14  19
ENDBRANCH  11  13
ENDBRANCH   2  10
BRANCH   1  21
ATOM     21  C   UNL d   1      53.974  32.627  54.742  0.00  0.00     0.325 C 
ATOM     22  O   UNL d   1      53.524  32.885  55.388  0.00  0.00    -0.257 OA
BRANCH  21  23
ATOM     23  O   UNL d   1      54.652  33.030  54.522  0.00  0.00    -0.269 OA
BRANCH  23  24
ATOM     24  C   UNL d   1      55.008  33.562  55.052  0.00  0.00     0.126 C 
ATOM     25  C   UNL d   1      55.635  34.041  54.792  0.00  0.00     0.029 C 
ENDBRANCH  23  24
ENDBRANCH  21  23
ENDBRANCH   1  21
TORSDOF 6
ENDMDL
MODEL 3
REMARK VINA RESULT:      -7.6      1.006      3.813
REMARK  6 active torsions:
REMARK  status: ('A' for Active; 'I' for Inactive)
REMARK    1  A    between atoms: C_9  and  C_1 
REMARK    2  A    between atoms: N_4  and  C_2 
REMARK       I    between atoms: C_5  and  N_4 
REMARK    3  A    between atoms: C_7  and  C_5 
REMARK    4  A    between atoms: O_13  and  C_9 
REMARK    5  A    between atoms: O_16  and  C_11 
REMARK    6  A    between atoms: C_19  and  O_13 
ROOT
ATOM      1  C   UNL d   1      53.556  32.203  53.642  0.00  0.00     0.181 A 
ATOM      2  C   UNL d   1      53.169  32.883  53.924  0.00  0.00     0.115 A 
ATOM      3  O   UNL d   1      54.334  32.232  53.927  0.00  0.00    -0.300 OA
ATOM      4  C   UNL d   1      53.703  33.313  54.371  0.00  0.00     0.043 A 
ATOM      5  C   UNL d   1      54.426  32.912  54.374  0.00  0.00     0.102 A 
ATOM      6  C   UNL d   1      53.627  34.025  54.780  0.00  0.00     0.004 A 
ATOM      7  C   UNL d   1      55.065  33.222  54.783  0.00  0.00     0.025 A 
ATOM      8  C   UNL d   1      54.274  34.337  55.193  0.00  0.00     0.000 A 
ATOM      9  C   UNL d   1      54.994  33.929  55.191  0.00  0.00     0.002 A 
ENDROOT
BRANCH   2  10
ATOM     10  N   UNL d   1      52.376  33.085  53.775  0.00  0.00    -0.206 NA
ATOM     11  C   UNL d   1      52.202  33.716  53.275  0.00  0.00     0.281 C 
ATOM     12  O   UNL d   1      52.809  34.146  52.921  0.00  0.00    -0.265 OA
BRANCH  11  13
ATOM     13  C   UNL d   1      51.419  33.915  53.128  0.00  0.00     0.080 A 
ATOM     14  C   UNL d   1      51.192  34.199  52.376  0.00  0.00     0.099 A 
ATOM     15  C   UNL d   1      50.409  34.394  52.241  0.00  0.00     0.024 A 
ATOM     16  C   UNL d   1      49.848  34.309  52.849  0.00  0.00     0.002 A 
ATOM     17  C   UNL d   1      50.079  34.030  53.582  0.00  0.00     0.000 A 
ATOM     18  C   UNL d   1      50.861  33.833  53.725  0.00  0.00     0.007 A 
BRANCH  14  19
ATOM     19  O   UNL d   1      51.757  34.276  51.787  0.00  0.00    -0.328 OA
ATOM     20  C   UNL d   1      51.508  34.480  51.028  0.00  0.00     0.181 C 
ENDBRANCH  14  19
ENDBRANCH  11  13
ENDBRANCH   2  10
BRANCH   1  21
ATOM     21  C   UNL d   1      53.227  31.613  53.168  0.00  0.00     0.325 C 
ATOM     22  O   UNL d   1      53.235  31.694  52.344  0.00  0.00    -0.257 OA
BRANCH  21  23
ATOM     23  O   UNL d   1      52.895  30.951  53.516  0.00  0.00    -0.269 OA
BRANCH  23  24
ATOM     24  C   UNL d   1      52.832  30.243  53.084  0.00  0.00     0.126 C 
ATOM     25  C   UNL d   1      52.686  29.531  53.485  0.00  0.00     0.029 C 
ENDBRANCH  23  24
ENDBRANCH  21  23
ENDBRANCH   1  21
TORSDOF 6
ENDMDL
MODEL 4
REMARK VINA RESULT:      -6.9      1.070      3.876
REMARK  6 active torsions:
REMARK  status: ('A' for Active; 'I' for Inactive)
REMARK    1  A    between atoms: C_9  and  C_1 
REMARK    2  A    between atoms: N_4  and  C_2 
REMARK       I    between atoms: C_5  and  N_4 
REMARK    3  A    between atoms: C_7  and  C_5 
REMARK    4  A    between atoms: O_13  and  C_9 
REMARK    5  A    between atoms: O_16  and  C_11 
REMARK    6  A    between atoms: C_19  and  O_13 
ROOT
ATOM      1  C   UNL d   1      53.395  33.575  53.601  0.00  0.00     0.181 A 
ATOM      2  C   UNL d   1      52.794  33.002  53.657  0.00  0.00     0.115 A 
ATOM      3  O   UNL d   1      53.050  34.256  53.279  0.00  0.00    -0.300 OA
ATOM      4  C   UNL d   1      52.101  33.332  53.374  0.00  0.00     0.043 A 
ATOM      5  C   UNL d   1      52.256  34.109  53.139  0.00  0.00     0.102 A 
ATOM      6  C   UNL d   1      51.339  33.024  53.298  0.00  0.00     0.004 A 
ATOM      7  C   UNL d   1      51.654  34.572  52.832  0.00  0.00     0.025 A 
ATOM      8  C   UNL d   1      50.732  33.494  52.987  0.00  0.00     0.000 A 
ATOM      9  C   UNL d   1      50.896  34.271  52.754  0.00  0.00     0.002 A 
ENDROOT
BRANCH   2  10
ATOM     10  N   UNL d   1      52.888  32.230  53.950  0.00  0.00    -0.206 NA
ATOM     11  C   UNL d   1      52.971  31.600  53.426  0.00  0.00     0.281 C 
ATOM     12  O   UNL d   1      52.960  31.732  52.613  0.00  0.00    -0.265 OA
BRANCH  11  13
ATOM     13  C   UNL d   1      53.063  30.837  53.717  0.00  0.00     0.080 A 
ATOM     14  C   UNL d   1      53.049  30.185  53.195  0.00  0.00     0.099 A 
ATOM     15  C   UNL d   1      53.142  29.430  53.496  0.00  0.00     0.024 A 
ATOM     16  C   UNL d   1      53.250  29.317  54.313  0.00  0.00     0.002 A 
ATOM     17  C   UNL d   1      53.263  29.962  54.816  0.00  0.00     0.000 A 
ATOM     18  C   UNL d   1      53.170  30.721  54.522  0.00  0.00     0.007 A 
BRANCH  14  19
ATOM     19  O   UNL d   1      52.942  30.313  52.393  0.00  0.00    -0.328 OA
ATOM     20  C   UNL d   1      52.924  29.660  51.890  0.00  0.00     0.181 C 
ENDBRANCH  14  19
ENDBRANCH  11  13
ENDBRANCH   2  10
BRANCH   1  21
ATOM     21  C   UNL d   1      54.184  33.481  53.824  0.00  0.00     0.325 C 
ATOM     22  O   UNL d   1      54.749  33.262  53.259  0.00  0.00    -0.257 OA
BRANCH  21  23
ATOM     23  O   UNL d   1      54.404  33.605  54.602  0.00  0.00    -0.269 OA
BRANCH  23  24
ATOM     24  C   UNL d   1      55.204  33.726  54.793  0.00  0.00     0.126 C 
ATOM     25  C   UNL d   1      55.412  33.942  55.567  0.00  0.00     0.029 C 
ENDBRANCH  23  24
ENDBRANCH  21  23
ENDBRANCH   1  21
TORSDOF 6
ENDMDL
MODEL 5
REMARK VINA RESULT:      -6.8      0.903      3.436
REMARK  6 active torsions:
REMARK  status: ('A' for Active; 'I' for Inactive)
REMARK    1  A    between atoms: C_9  and  C_1 
REMARK    2  A    between atoms: N_4  and  C_2 
REMARK       I    between atoms: C_5  and  N_4 
REMARK    3  A    between atoms: C_7  and  C_5 
REMARK    4  A    between atoms: O_13  and  C_9 
REMARK    5  A    between atoms: O_16  and  C_11 
REMARK    6  A    between atoms: C_19  and  O_13 
ROOT
ATOM      1  C   UNL d   1      52.706  33.660  53.913  0.00  0.00     0.181 A 
ATOM      2  C   UNL d   1      53.308  33.087  53.866  0.00  0.00     0.115 A 
ATOM      3  O   UNL d   1      53.002  34.283  54.373  0.00  0.00    -0.300 OA
ATOM      4  C   UNL d   1      53.953  33.359  54.290  0.00  0.00     0.043 A 
ATOM      5  C   UNL d   1      53.766  34.100  54.605  0.00  0.00     0.102 A 
ATOM      6  C   UNL d   1      54.694  33.028  54.432  0.00  0.00     0.004 A 
ATOM      7  C   UNL d   1      54.317  34.504  55.058  0.00  0.00     0.025 A 
ATOM      8  C   UNL d   1      55.250  33.437  54.890  0.00  0.00     0.000 A 
ATOM      9  C   UNL d   1      55.055  34.179  55.202  0.00  0.00     0.002 A 
ENDROOT
BRANCH   2  10
ATOM     10  N   UNL d   1      53.257  32.364  53.458  0.00  0.00    -0.206 NA
ATOM     11  C   UNL d   1      53.204  31.659  53.880  0.00  0.00     0.281 C 
ATOM     12  O   UNL d   1      53.201  31.666  54.704  0.00  0.00    -0.265 OA
BRANCH  11  13
ATOM     13  C   UNL d   1      53.153  30.945  53.476  0.00  0.00     0.080 A 
ATOM     14  C   UNL d   1      53.169  30.223  53.896  0.00  0.00     0.099 A 
ATOM     15  C   UNL d   1      53.118  29.519  53.483  0.00  0.00     0.024 A 
ATOM     16  C   UNL d   1      53.052  29.526  52.654  0.00  0.00     0.002 A 
ATOM     17  C   UNL d   1      53.037  30.237  52.252  0.00  0.00     0.000 A 
ATOM     18  C   UNL d   1      53.087  30.947  52.658  0.00  0.00     0.007 A 
BRANCH  14  19
ATOM     19  O   UNL d   1      53.235  30.234  54.713  0.00  0.00    -0.328 OA
ATOM     20  C   UNL d   1      53.232  29.515  55.117  0.00  0.00     0.181 C 
ENDBRANCH  14  19
ENDBRANCH  11  13
ENDBRANCH   2  10
BRANCH   1  21
ATOM     21  C   UNL d   1      51.958  33.614  53.567  0.00  0.00     0.325 C 
ATOM     22  O   UNL d   1      51.324  33.297  53.995  0.00  0.00    -0.257 OA
BRANCH  21  23
ATOM     23  O   UNL d   1      51.848  33.883  52.802  0.00  0.00    -0.269 OA
BRANCH  23  24
ATOM     24  C   UNL d   1      51.083  34.072  52.535  0.00  0.00     0.126 C 
ATOM     25  C   UNL d   1      50.966  34.273  51.738  0.00  0.00     0.029 C 
ENDBRANCH  23  24
ENDBRANCH  21  23
ENDBRANCH   1  21
TORSDOF 6
ENDMDL
MODEL 6
REMARK VINA RESULT:      -6.8      0.993      2.872
REMARK  6 active torsions:
REMARK  status: ('A' for Active; 'I' for Inactive)
REMARK    1  A    between atoms: C_9  and  C_1 
REMARK    2  A    between atoms: N_4  and  C_2 
REMARK       I    between atoms: C_5  and  N_4 
REMARK    3  A    between atoms: C_7  and  C_5 
REMARK    4  A    between atoms: O_13  and  C_9 
REMARK    5  A    between atoms: O_16  and  C_11 
REMARK    6  A    between atoms: C_19  and  O_13 
ROOT
ATOM      1  C   UNL d   1      52.156  32.184  52.866  0.00  0.00     0.181 A 
ATOM      2  C   UNL d   1      52.267  32.831  53.376  0.00  0.00     0.115 A 
ATOM      3  O   UNL d   1      51.488  32.352  52.404  0.00  0.00    -0.300 OA
ATOM      4  C   UNL d   1      51.679  33.379  53.226  0.00  0.00     0.043 A 
ATOM      5  C   UNL d   1      51.194  33.085  52.624  0.00  0.00     0.102 A 
ATOM      6  C   UNL d   1      51.517  34.115  53.560  0.00  0.00     0.004 A 
ATOM      7  C   UNL d   1      50.555  33.525  52.361  0.00  0.00     0.025 A 
ATOM      8  C   UNL d   1      50.870  34.559  53.293  0.00  0.00     0.000 A 
ATOM      9  C   UNL d   1      50.390  34.256  52.690  0.00  0.00     0.002 A 
ENDROOT
BRANCH   2  10
ATOM     10  N   UNL d   1      52.874  32.903  53.940  0.00  0.00    -0.206 NA
ATOM     11  C   UNL d   1      53.495  33.428  53.808  0.00  0.00     0.281 C 
ATOM     12  O   UNL d   1      53.517  33.882  53.121  0.00  0.00    -0.265 OA
BRANCH  11  13
ATOM     13  C   UNL d   1      54.094  33.499  54.366  0.00  0.00     0.080 A 
ATOM     14  C   UNL d   1      54.894  33.445  54.131  0.00  0.00     0.099 A 
ATOM     15  C   UNL d   1      55.482  33.517  54.695  0.00  0.00     0.024 A 
ATOM     16  C   UNL d   1      55.282  33.642  55.493  0.00  0.00     0.002 A 
ATOM     17  C   UNL d   1      54.496  33.693  55.713  0.00  0.00     0.000 A 
ATOM     18  C   UNL d   1      53.901  33.622  55.155  0.00  0.00     0.007 A 
BRANCH  14  19
ATOM     19  O   UNL d   1      55.074  33.321  53.341  0.00  0.00    -0.328 OA
ATOM     20  C   UNL d   1      55.866  33.233  53.129  0.00  0.00     0.181 C 
ENDBRANCH  14  19
ENDBRANCH  11  13
ENDBRANCH   2  10
BRANCH   1  21
ATOM     21  C   UNL d   1      52.622  31.504  52.827  0.00  0.00     0.325 C 
ATOM     22  O   UNL d   1      53.134  31.391  52.186  0.00  0.00    -0.257 OA
BRANCH  21  23
ATOM     23  O   UNL d   1      52.576  30.945  53.423  0.00  0.00    -0.269 OA
BRANCH  23  24
ATOM     24  C   UNL d   1      52.877  30.180  53.299  0.00  0.00     0.126 C 
ATOM     25  C   UNL d   1      52.952  29.660  53.942  0.00  0.00     0.029 C 
ENDBRANCH  23  24
ENDBRANCH  21  23
ENDBRANCH   1  21
TORSDOF 6
ENDMDL
MODEL 7
REMARK VINA RESULT:      -6.2      1.612      3.745
REMARK  6 active torsions:
REMARK  status: ('A' for Active; 'I' for Inactive)
REMARK    1  A    between atoms: C_9  and  C_1 
REMARK    2  A    between atoms: N_4  and  C_2 
REMARK       I    between atoms: C_5  and  N_4 
REMARK    3  A    between atoms: C_7  and  C_5 
REMARK    4  A    between atoms: O_13  and  C_9 
REMARK    5  A    between atoms: O_16  and  C_11 
REMARK    6  A    between atoms: C_19  and  O_13 
ROOT
ATOM      1  C   UNL d   1      52.982  33.827  53.449  0.00  0.00     0.181 A 
ATOM      2  C   UNL d   1      52.441  33.403  52.980  0.00  0.00     0.115 A 
ATOM      3  O   UNL d   1      53.476  33.269  53.812  0.00  0.00    -0.300 OA
ATOM      4  C   UNL d   1      52.607  32.605  53.058  0.00  0.00     0.043 A 
ATOM      5  C   UNL d   1      53.248  32.519  53.573  0.00  0.00     0.102 A 
ATOM      6  C   UNL d   1      52.255  31.937  52.726  0.00  0.00     0.004 A 
ATOM      7  C   UNL d   1      53.532  31.772  53.752  0.00  0.00     0.025 A 
ATOM      8  C   UNL d   1      52.544  31.182  52.908  0.00  0.00     0.000 A 
ATOM      9  C   UNL d   1      53.186  31.106  53.424  0.00  0.00     0.002 A 
ENDROOT
BRANCH   2  10
ATOM     10  N   UNL d   1      51.839  33.737  52.514  0.00  0.00    -0.206 NA
ATOM     11  C   UNL d   1      51.058  33.712  52.775  0.00  0.00     0.281 C 
ATOM     12  O   UNL d   1      50.871  33.358  53.495  0.00  0.00    -0.265 OA
BRANCH  11  13
ATOM     13  C   UNL d   1      50.464  34.043  52.314  0.00  0.00     0.080 A 
ATOM     14  C   UNL d   1      49.879  34.524  52.666  0.00  0.00     0.099 A 
ATOM     15  C   UNL d   1      49.292  34.848  52.197  0.00  0.00     0.024 A 
ATOM     16  C   UNL d   1      49.281  34.697  51.379  0.00  0.00     0.002 A 
ATOM     17  C   UNL d   1      49.858  34.225  51.043  0.00  0.00     0.000 A 
ATOM     18  C   UNL d   1      50.449  33.897  51.506  0.00  0.00     0.007 A 
BRANCH  14  19
ATOM     19  O   UNL d   1      49.904  34.663  53.473  0.00  0.00    -0.328 OA
ATOM     20  C   UNL d   1      49.398  35.232  53.789  0.00  0.00     0.181 C 
ENDBRANCH  14  19
ENDBRANCH  11  13
ENDBRANCH   2  10
BRANCH   1  21
ATOM     21  C   UNL d   1      53.018  34.647  53.535  0.00  0.00     0.325 C 
ATOM     22  O   UNL d   1      53.189  35.123  52.880  0.00  0.00    -0.257 OA
BRANCH  21  23
ATOM     23  O   UNL d   1      52.884  34.984  54.268  0.00  0.00    -0.269 OA
BRANCH  23  24
ATOM     24  C   UNL d   1      53.142  35.760  54.421  0.00  0.00     0.126 C 
ATOM     25  C   UNL d   1      52.893  36.145  55.114  0.00  0.00     0.029 C 
ENDBRANCH  23  24
ENDBRANCH  21  23
ENDBRANCH   1  21
TORSDOF 6
ENDMDL
