MODEL 1
REMARK VINA RESULT:      59.2      0.000      0.000
REMARK  6 active torsions:
REMARK  status: ('A' for Active; 'I' for Inactive)
REMARK    1  A    between atoms: S_2  and  C_1 
REMARK    2  A    between atoms: C_7  and  S_2 
REMARK    3  A    between atoms: N_10  and  C_6 
REMARK    4  A    between atoms: C_18  and  N_10 
REMARK    5  A    between atoms: N_14  and  C_19 
REMARK    6  A    between atoms: C_19  and  C_18 
ROOT
ATOM      1  C   UNL d   1     -55.009-100.970 -42.217  0.00  0.00     0.187 A 
ATOM      2  N   UNL d   1     -55.039-101.730 -41.996  0.00  0.00    -0.208 NA
ATOM      3  C   UNL d   1     -54.807-100.536 -41.581  0.00  0.00     0.118 A 
ATOM      4  S   UNL d   1     -54.712-101.033 -40.967  0.00  0.00    -0.035 SA
ATOM      5  C   UNL d   1     -54.856-101.774 -41.223  0.00  0.00     0.196 A 
ATOM      6 CL   UNL d   1     -54.712 -99.720 -41.562  0.00  0.00    -0.073 Cl
ENDROOT
BRANCH   1   7
ATOM      7  S   UNL d   1     -55.160-100.678 -42.968  0.00  0.00     0.228 S 
ATOM      8  O   UNL d   1     -55.088 -99.762 -42.717  0.00  0.00    -0.216 OA
ATOM      9  O   UNL d   1     -55.240-101.564 -43.261  0.00  0.00    -0.216 OA
BRANCH   7  10
ATOM     10  C   UNL d   1     -55.312-100.403 -43.726  0.00  0.00     0.089 A 
ATOM     11  C   UNL d   1     -54.712-100.396 -44.291  0.00  0.00     0.011 A 
ATOM     12  C   UNL d   1     -54.860-100.121 -45.051  0.00  0.00     0.001 A 
ATOM     13  C   UNL d   1     -55.615 -99.852 -45.248  0.00  0.00     0.000 A 
ATOM     14  C   UNL d   1     -56.222 -99.857 -44.684  0.00  0.00     0.001 A 
ATOM     15  C   UNL d   1     -55.766 -99.575 -46.012  0.00  0.00     0.000 C 
ATOM     16  C   UNL d   1     -56.062-100.136 -43.921  0.00  0.00     0.011 A 
ENDBRANCH   7  10
ENDBRANCH   1   7
BRANCH   5  17
ATOM     17  N   UNL d   1     -54.821-102.459 -40.767  0.00  0.00    -0.218 NA
BRANCH  17  18
ATOM     18  C   UNL d   1     -54.827-102.408 -39.957  0.00  0.00     0.120 C 
BRANCH  18  19
ATOM     19  C   UNL d   1     -55.550-102.362 -39.546  0.00  0.00     0.101 C 
BRANCH  19  20
ATOM     20  N   UNL d   1     -55.595-102.606 -38.760  0.00  0.00    -0.299 N 
ATOM     21  C   UNL d   1     -54.933-102.580 -38.279  0.00  0.00     0.100 C 
ATOM     22  C   UNL d   1     -56.310-102.879 -38.455  0.00  0.00     0.100 C 
ENDBRANCH  19  20
ENDBRANCH  18  19
ENDBRANCH  17  18
ENDBRANCH   5  17
TORSDOF 6
ENDMDL
MODEL 2
REMARK VINA RESULT:      60.4      2.061      2.943
REMARK  6 active torsions:
REMARK  status: ('A' for Active; 'I' for Inactive)
REMARK    1  A    between atoms: S_2  and  C_1 
REMARK    2  A    between atoms: C_7  and  S_2 
REMARK    3  A    between atoms: N_10  and  C_6 
REMARK    4  A    between atoms: C_18  and  N_10 
REMARK    5  A    between atoms: N_14  and  C_19 
REMARK    6  A    between atoms: C_19  and  C_18 
ROOT
ATOM      1  C   UNL d   1     -56.059 -99.407 -43.702  0.00  0.00     0.187 A 
ATOM      2  N   UNL d   1     -55.906 -99.718 -42.989  0.00  0.00    -0.208 NA
ATOM      3  C   UNL d   1     -55.364 -99.242 -44.053  0.00  0.00     0.118 A 
ATOM      4  S   UNL d   1     -54.782 -99.453 -43.553  0.00  0.00    -0.035 SA
ATOM      5  C   UNL d   1     -55.117 -99.748 -42.892  0.00  0.00     0.196 A 
ATOM      6 CL   UNL d   1     -55.264 -98.913 -44.799  0.00  0.00    -0.073 Cl
ENDROOT
BRANCH   1   7
ATOM      7  S   UNL d   1     -56.801 -99.277 -44.024  0.00  0.00     0.228 S 
ATOM      8  O   UNL d   1     -57.242 -99.186 -43.184  0.00  0.00    -0.216 OA
ATOM      9  O   UNL d   1     -56.412 -99.359 -44.872  0.00  0.00    -0.216 OA
BRANCH   7  10
ATOM     10  C   UNL d   1     -57.537 -99.149 -44.363  0.00  0.00     0.089 A 
ATOM     11  C   UNL d   1     -57.592 -98.892 -45.145  0.00  0.00     0.011 A 
ATOM     12  C   UNL d   1     -58.327 -98.761 -45.489  0.00  0.00     0.001 A 
ATOM     13  C   UNL d   1     -59.013 -98.890 -45.047  0.00  0.00     0.000 A 
ATOM     14  C   UNL d   1     -58.963 -99.148 -44.261  0.00  0.00     0.001 A 
ATOM     15  C   UNL d   1     -59.753 -98.760 -45.391  0.00  0.00     0.000 C 
ATOM     16  C   UNL d   1     -58.217 -99.276 -43.925  0.00  0.00     0.011 A 
ENDBRANCH   7  10
ENDBRANCH   1   7
BRANCH   5  17
ATOM     17  N   UNL d   1     -54.716-100.032 -42.232  0.00  0.00    -0.218 NA
BRANCH  17  18
ATOM     18  C   UNL d   1     -55.033-100.636 -41.792  0.00  0.00     0.120 C 
BRANCH  18  19
ATOM     19  C   UNL d   1     -54.836-101.426 -41.963  0.00  0.00     0.101 C 
BRANCH  19  20
ATOM     20  N   UNL d   1     -55.182-102.041 -41.535  0.00  0.00    -0.299 N 
ATOM     21  C   UNL d   1     -54.715-102.592 -41.151  0.00  0.00     0.100 C 
ATOM     22  C   UNL d   1     -56.003-102.101 -41.493  0.00  0.00     0.100 C 
ENDBRANCH  19  20
ENDBRANCH  18  19
ENDBRANCH  17  18
ENDBRANCH   5  17
TORSDOF 6
ENDMDL
