MODEL 1
REMARK VINA RESULT:      31.1      0.000      0.000
REMARK  5 active torsions:
REMARK  status: ('A' for Active; 'I' for Inactive)
REMARK       I    between atoms: N_2  and  C_1 
REMARK    1  A    between atoms: C_3  and  C_1 
REMARK    2  A    between atoms: C_5  and  N_2 
REMARK    3  A    between atoms: C_6  and  C_3 
REMARK    4  A    between atoms: C_7  and  C_3 
REMARK    5  A    between atoms: C_9  and  C_5 
ROOT
ATOM      1  C   UNL d   1      45.970 -18.323  43.166  0.00  0.00     0.058 C 
ENDROOT
BRANCH   1   2
ATOM      2  C   UNL d   1      46.095 -17.320  43.345  0.00  0.00     0.275 C 
ATOM      3  N   UNL d   1      45.975 -16.629  43.665  0.00  0.00    -0.231 NA
ATOM      4  O   UNL d   1      46.645 -17.414  42.794  0.00  0.00    -0.266 OA
BRANCH   3   5
ATOM      5  C   UNL d   1      45.414 -16.530  44.228  0.00  0.00     0.146 C 
ATOM      6  C   UNL d   1      44.862 -16.472  43.673  0.00  0.00     0.033 C 
ATOM      7  C   UNL d   1      45.984 -16.590  44.782  0.00  0.00     0.033 C 
BRANCH   5   8
ATOM      8  C   UNL d   1      44.863 -16.432  44.803  0.00  0.00     0.229 C 
ATOM      9  O   UNL d   1      44.579 -15.696  44.945  0.00  0.00    -0.286 OA
ENDBRANCH   5   8
ENDBRANCH   3   5
ENDBRANCH   1   2
BRANCH   1  10
ATOM     10  C   UNL d   1      45.819 -18.571  42.409  0.00  0.00     0.005 A 
ATOM     11  C   UNL d   1      45.081 -18.837  42.201  0.00  0.00     0.000 A 
ATOM     12  C   UNL d   1      44.935 -19.088  41.427  0.00  0.00     0.000 A 
ATOM     13  C   UNL d   1      45.536 -19.070  40.863  0.00  0.00     0.000 A 
ATOM     14  C   UNL d   1      46.291 -18.796  41.079  0.00  0.00     0.000 A 
ATOM     15  C   UNL d   1      46.437 -18.547  41.848  0.00  0.00     0.000 A 
ENDBRANCH   1  10
BRANCH   1  16
ATOM     16  C   UNL d   1      45.992 -18.968  43.659  0.00  0.00     0.005 A 
ATOM     17  C   UNL d   1      46.622 -19.502  43.627  0.00  0.00     0.000 A 
ATOM     18  C   UNL d   1      46.645 -20.165  44.133  0.00  0.00     0.000 A 
ATOM     19  C   UNL d   1      46.027 -20.291  44.677  0.00  0.00     0.000 A 
ATOM     20  C   UNL d   1      45.389 -19.749  44.708  0.00  0.00     0.000 A 
ATOM     21  C   UNL d   1      45.380 -19.094  44.198  0.00  0.00     0.000 A 
ENDBRANCH   1  16
TORSDOF 5
ENDMDL
MODEL 2
REMARK VINA RESULT:      32.7      2.948      4.712
REMARK  5 active torsions:
REMARK  status: ('A' for Active; 'I' for Inactive)
REMARK       I    between atoms: N_2  and  C_1 
REMARK    1  A    between atoms: C_3  and  C_1 
REMARK    2  A    between atoms: C_5  and  N_2 
REMARK    3  A    between atoms: C_6  and  C_3 
REMARK    4  A    between atoms: C_7  and  C_3 
REMARK    5  A    between atoms: C_9  and  C_5 
ROOT
ATOM      1  C   UNL d   1      45.316 -14.296  44.388  0.00  0.00     0.058 C 
ENDROOT
BRANCH   1   2
ATOM      2  C   UNL d   1      45.753 -13.373  44.285  0.00  0.00     0.275 C 
ATOM      3  N   UNL d   1      45.895 -12.676  43.986  0.00  0.00    -0.231 NA
ATOM      4  O   UNL d   1      46.148 -13.624  44.914  0.00  0.00    -0.266 OA
BRANCH   3   5
ATOM      5  C   UNL d   1      45.492 -12.417  43.343  0.00  0.00     0.146 C 
ATOM      6  C   UNL d   1      44.951 -12.091  43.808  0.00  0.00     0.033 C 
ATOM      7  C   UNL d   1      46.048 -12.753  42.882  0.00  0.00     0.033 C 
BRANCH   5   8
ATOM      8  C   UNL d   1      45.100 -12.165  42.691  0.00  0.00     0.229 C 
ATOM      9  O   UNL d   1      45.358 -12.401  41.969  0.00  0.00    -0.286 OA
ENDBRANCH   5   8
ENDBRANCH   3   5
ENDBRANCH   1   2
BRANCH   1  10
ATOM     10  C   UNL d   1      44.528 -14.339  44.575  0.00  0.00     0.005 A 
ATOM     11  C   UNL d   1      44.168 -15.058  44.685  0.00  0.00     0.000 A 
ATOM     12  C   UNL d   1      43.365 -15.094  44.875  0.00  0.00     0.000 A 
ATOM     13  C   UNL d   1      42.924 -14.401  44.955  0.00  0.00     0.000 A 
ATOM     14  C   UNL d   1      43.296 -13.666  44.841  0.00  0.00     0.000 A 
ATOM     15  C   UNL d   1      44.095 -13.630  44.652  0.00  0.00     0.000 A 
ENDBRANCH   1  10
BRANCH   1  16
ATOM     16  C   UNL d   1      45.615 -15.047  44.317  0.00  0.00     0.005 A 
ATOM     17  C   UNL d   1      45.966 -15.297  43.612  0.00  0.00     0.000 A 
ATOM     18  C   UNL d   1      46.274 -16.068  43.538  0.00  0.00     0.000 A 
ATOM     19  C   UNL d   1      46.227 -16.595  44.181  0.00  0.00     0.000 A 
ATOM     20  C   UNL d   1      45.870 -16.341  44.896  0.00  0.00     0.000 A 
ATOM     21  C   UNL d   1      45.569 -15.570  44.954  0.00  0.00     0.000 A 
ENDBRANCH   1  16
TORSDOF 5
ENDMDL
MODEL 3
REMARK VINA RESULT:      32.7      1.472      2.735
REMARK  5 active torsions:
REMARK  status: ('A' for Active; 'I' for Inactive)
REMARK       I    between atoms: N_2  and  C_1 
REMARK    1  A    between atoms: C_3  and  C_1 
REMARK    2  A    between atoms: C_5  and  N_2 
REMARK    3  A    between atoms: C_6  and  C_3 
REMARK    4  A    between atoms: C_7  and  C_3 
REMARK    5  A    between atoms: C_9  and  C_5 
ROOT
ATOM      1  C   UNL d   1      46.173 -18.694  42.815  0.00  0.00     0.058 C 
ENDROOT
BRANCH   1   2
ATOM      2  C   UNL d   1      46.250 -19.686  43.069  0.00  0.00     0.275 C 
ATOM      3  N   UNL d   1      46.156 -20.329  43.484  0.00  0.00    -0.231 NA
ATOM      4  O   UNL d   1      46.645 -19.703  42.392  0.00  0.00    -0.266 OA
BRANCH   3   5
ATOM      5  C   UNL d   1      45.753 -20.314  44.177  0.00  0.00     0.146 C 
ATOM      6  C   UNL d   1      46.429 -20.299  44.574  0.00  0.00     0.033 C 
ATOM      7  C   UNL d   1      45.074 -20.330  43.761  0.00  0.00     0.033 C 
BRANCH   5   8
ATOM      8  C   UNL d   1      45.336 -20.299  44.861  0.00  0.00     0.229 C 
ATOM      9  O   UNL d   1      44.725 -19.784  44.931  0.00  0.00    -0.286 OA
ENDBRANCH   5   8
ENDBRANCH   3   5
ENDBRANCH   1   2
BRANCH   1  10
ATOM     10  C   UNL d   1      46.174 -18.488  42.031  0.00  0.00     0.005 A 
ATOM     11  C   UNL d   1      46.573 -17.829  41.777  0.00  0.00     0.000 A 
ATOM     12  C   UNL d   1      46.569 -17.625  40.977  0.00  0.00     0.000 A 
ATOM     13  C   UNL d   1      46.160 -18.089  40.431  0.00  0.00     0.000 A 
ATOM     14  C   UNL d   1      45.752 -18.765  40.694  0.00  0.00     0.000 A 
ATOM     15  C   UNL d   1      45.756 -18.967  41.490  0.00  0.00     0.000 A 
ENDBRANCH   1  10
BRANCH   1  16
ATOM     16  C   UNL d   1      46.107 -18.024  43.267  0.00  0.00     0.005 A 
ATOM     17  C   UNL d   1      46.601 -17.905  43.921  0.00  0.00     0.000 A 
ATOM     18  C   UNL d   1      46.533 -17.216  44.386  0.00  0.00     0.000 A 
ATOM     19  C   UNL d   1      45.964 -16.640  44.192  0.00  0.00     0.000 A 
ATOM     20  C   UNL d   1      45.465 -16.761  43.529  0.00  0.00     0.000 A 
ATOM     21  C   UNL d   1      45.543 -17.452  43.076  0.00  0.00     0.000 A 
ENDBRANCH   1  16
TORSDOF 5
ENDMDL
MODEL 4
REMARK VINA RESULT:      33.0      2.683      5.247
REMARK  5 active torsions:
REMARK  status: ('A' for Active; 'I' for Inactive)
REMARK       I    between atoms: N_2  and  C_1 
REMARK    1  A    between atoms: C_3  and  C_1 
REMARK    2  A    between atoms: C_5  and  N_2 
REMARK    3  A    between atoms: C_6  and  C_3 
REMARK    4  A    between atoms: C_7  and  C_3 
REMARK    5  A    between atoms: C_9  and  C_5 
ROOT
ATOM      1  C   UNL d   1      45.216 -14.066  44.207  0.00  0.00     0.058 C 
ENDROOT
BRANCH   1   2
ATOM      2  C   UNL d   1      45.949 -14.705  44.536  0.00  0.00     0.275 C 
ATOM      3  N   UNL d   1      46.338 -15.365  44.624  0.00  0.00    -0.231 NA
ATOM      4  O   UNL d   1      46.199 -14.047  44.881  0.00  0.00    -0.266 OA
BRANCH   3   5
ATOM      5  C   UNL d   1      46.084 -16.039  44.272  0.00  0.00     0.146 C 
ATOM      6  C   UNL d   1      45.787 -16.288  44.954  0.00  0.00     0.033 C 
ATOM      7  C   UNL d   1      46.390 -15.775  43.586  0.00  0.00     0.033 C 
BRANCH   5   8
ATOM      8  C   UNL d   1      45.837 -16.708  43.906  0.00  0.00     0.229 C 
ATOM      9  O   UNL d   1      46.371 -17.288  43.757  0.00  0.00    -0.286 OA
ENDBRANCH   5   8
ENDBRANCH   3   5
ENDBRANCH   1   2
BRANCH   1  10
ATOM     10  C   UNL d   1      44.452 -14.185  44.452  0.00  0.00     0.005 A 
ATOM     11  C   UNL d   1      44.130 -14.930  44.450  0.00  0.00     0.000 A 
ATOM     12  C   UNL d   1      43.351 -15.046  44.700  0.00  0.00     0.000 A 
ATOM     13  C   UNL d   1      42.896 -14.406  44.953  0.00  0.00     0.000 A 
ATOM     14  C   UNL d   1      43.229 -13.643  44.954  0.00  0.00     0.000 A 
ATOM     15  C   UNL d   1      44.003 -13.529  44.705  0.00  0.00     0.000 A 
ENDBRANCH   1  10
BRANCH   1  16
ATOM     16  C   UNL d   1      45.242 -13.418  43.719  0.00  0.00     0.005 A 
ATOM     17  C   UNL d   1      44.827 -13.412  43.004  0.00  0.00     0.000 A 
ATOM     18  C   UNL d   1      44.853 -12.747  42.502  0.00  0.00     0.000 A 
ATOM     19  C   UNL d   1      45.301 -12.080  42.721  0.00  0.00     0.000 A 
ATOM     20  C   UNL d   1      45.721 -12.087  43.447  0.00  0.00     0.000 A 
ATOM     21  C   UNL d   1      45.686 -12.757  43.936  0.00  0.00     0.000 A 
ENDBRANCH   1  16
TORSDOF 5
ENDMDL
