MODEL 1
REMARK VINA RESULT:      -4.6      0.000      0.000
REMARK  3 active torsions:
REMARK  status: ('A' for Active; 'I' for Inactive)
REMARK    1  A    between atoms: N_4  and  C_8 
REMARK    2  A    between atoms: N_12  and  C_6 
REMARK       I    between atoms: C_11  and  N_12 
REMARK    3  A    between atoms: C_14  and  C_11 
ROOT
ATOM      1  C   UNL d   1      58.156   0.030  30.855  0.00  0.00     0.279 C 
ATOM      2  N   UNL d   1      57.589  -0.368  31.243  0.00  0.00    -0.208 NA
ATOM      3  O   UNL d   1      58.559   0.682  31.221  0.00  0.00    -0.265 OA
ENDROOT
BRANCH   1   4
ATOM      4  C   UNL d   1      58.366  -0.181  30.087  0.00  0.00     0.059 A 
ATOM      5  C   UNL d   1      58.826  -0.857  29.942  0.00  0.00     0.022 A 
ATOM      6  C   UNL d   1      59.030  -1.057  29.170  0.00  0.00     0.070 A 
ATOM      7  C   UNL d   1      58.818  -0.645  28.532  0.00  0.00     0.018 A 
ATOM      8  C   UNL d   1      58.366   0.027  28.631  0.00  0.00     0.002 A 
ATOM      9  C   UNL d   1      58.121   0.291  29.389  0.00  0.00     0.005 A 
BRANCH   6  10
ATOM     10  N   UNL d   1      59.509  -1.767  29.044  0.00  0.00    -0.242 N 
ATOM     11  C   UNL d   1      60.323  -1.700  28.922  0.00  0.00     0.267 A 
ATOM     12  C   UNL d   1      60.611  -2.465  28.821  0.00  0.00     0.066 A 
ATOM     13  O   UNL d   1      60.774  -0.940  28.907  0.00  0.00    -0.267 OA
ATOM     14  C   UNL d   1      60.009  -2.987  28.877  0.00  0.00     0.066 A 
ATOM     15  C   UNL d   1      59.304  -2.556  29.019  0.00  0.00     0.267 A 
ATOM     16  O   UNL d   1      58.510  -2.854  29.121  0.00  0.00    -0.267 OA
ENDBRANCH   6  10
ENDBRANCH   1   4
BRANCH   2  17
ATOM     17  C   UNL d   1      57.370  -0.150  32.038  0.00  0.00     0.089 A 
ATOM     18  C   UNL d   1      56.759  -0.523  32.443  0.00  0.00     0.080 A 
ATOM     19  C   UNL d   1      56.237  -1.153  32.214  0.00  0.00     0.283 A 
ATOM     20  C   UNL d   1      56.535  -0.300  33.257  0.00  0.00     0.064 A 
ATOM     21  N   UNL d   1      55.726  -1.305  32.850  0.00  0.00    -0.169 NA
ATOM     22  O   UNL d   1      56.229  -1.569  31.458  0.00  0.00    -0.265 OA
ATOM     23  C   UNL d   1      55.908  -0.782  33.490  0.00  0.00     0.282 A 
ATOM     24  O   UNL d   1      55.525  -0.740  34.255  0.00  0.00    -0.265 OA
ATOM     25  C   UNL d   1      56.956   0.301  33.615  0.00  0.00     0.005 A 
ATOM     26  C   UNL d   1      57.560   0.680  33.234  0.00  0.00     0.002 A 
ATOM     27  C   UNL d   1      57.791   0.468  32.427  0.00  0.00     0.019 A 
ENDBRANCH   2  17
TORSDOF 3
ENDMDL
MODEL 2
REMARK VINA RESULT:      -2.8      1.074      4.726
REMARK  3 active torsions:
REMARK  status: ('A' for Active; 'I' for Inactive)
REMARK    1  A    between atoms: N_4  and  C_8 
REMARK    2  A    between atoms: N_12  and  C_6 
REMARK       I    between atoms: C_11  and  N_12 
REMARK    3  A    between atoms: C_14  and  C_11 
ROOT
ATOM      1  C   UNL d   1      58.916  -0.654  30.030  0.00  0.00     0.279 C 
ATOM      2  N   UNL d   1      58.892  -1.407  29.779  0.00  0.00    -0.208 NA
ATOM      3  O   UNL d   1      59.638  -0.207  29.997  0.00  0.00    -0.265 OA
ENDROOT
BRANCH   1   4
ATOM      4  C   UNL d   1      58.242  -0.290  30.330  0.00  0.00     0.059 A 
ATOM      5  C   UNL d   1      57.929  -0.513  31.066  0.00  0.00     0.022 A 
ATOM      6  C   UNL d   1      57.254  -0.141  31.356  0.00  0.00     0.070 A 
ATOM      7  C   UNL d   1      56.865   0.432  30.978  0.00  0.00     0.018 A 
ATOM      8  C   UNL d   1      57.140   0.681  30.252  0.00  0.00     0.002 A 
ATOM      9  C   UNL d   1      57.822   0.347  29.896  0.00  0.00     0.005 A 
BRANCH   6  10
ATOM     10  N   UNL d   1      56.946  -0.391  32.125  0.00  0.00    -0.242 N 
ATOM     11  C   UNL d   1      56.469  -1.062  32.181  0.00  0.00     0.267 A 
ATOM     12  C   UNL d   1      56.272  -1.147  32.977  0.00  0.00     0.066 A 
ATOM     13  O   UNL d   1      56.231  -1.575  31.501  0.00  0.00    -0.267 OA
ATOM     14  C   UNL d   1      56.607  -0.558  33.399  0.00  0.00     0.066 A 
ATOM     15  C   UNL d   1      57.038  -0.071  32.870  0.00  0.00     0.267 A 
ATOM     16  O   UNL d   1      57.495   0.629  33.043  0.00  0.00    -0.267 OA
ENDBRANCH   6  10
ENDBRANCH   1   4
BRANCH   2  17
ATOM     17  C   UNL d   1      59.590  -1.785  29.468  0.00  0.00     0.089 A 
ATOM     18  C   UNL d   1      59.600  -2.580  29.252  0.00  0.00     0.080 A 
ATOM     19  C   UNL d   1      58.995  -3.174  29.274  0.00  0.00     0.283 A 
ATOM     20  C   UNL d   1      60.315  -2.966  28.934  0.00  0.00     0.064 A 
ATOM     21  N   UNL d   1      59.319  -3.881  28.987  0.00  0.00    -0.169 NA
ATOM     22  O   UNL d   1      58.181  -3.074  29.545  0.00  0.00    -0.265 OA
ATOM     23  C   UNL d   1      60.130  -3.755  28.778  0.00  0.00     0.282 A 
ATOM     24  O   UNL d   1      60.683  -4.326  28.459  0.00  0.00    -0.265 OA
ATOM     25  C   UNL d   1      60.989  -2.513  28.853  0.00  0.00     0.005 A 
ATOM     26  C   UNL d   1      61.000  -1.731  29.060  0.00  0.00     0.002 A 
ATOM     27  C   UNL d   1      60.297  -1.336  29.376  0.00  0.00     0.019 A 
ENDBRANCH   2  17
TORSDOF 3
ENDMDL
