MODEL 1
REMARK VINA RESULT:      45.1      0.000      0.000
REMARK  5 active torsions:
REMARK  status: ('A' for Active; 'I' for Inactive)
REMARK    1  A    between atoms: C_9  and  N_2 
REMARK    2  A    between atoms: C_7  and  O_10 
REMARK    3  A    between atoms: C_11  and  C_9 
REMARK    4  A    between atoms: O_10  and  C_14 
REMARK    5  A    between atoms: C_14  and  C_11 
ROOT
ATOM      1  C   UNL d   1     -50.159  27.163  33.316  0.00  0.00     0.086 C 
ENDROOT
BRANCH   1   2
ATOM      2  N   UNL d   1     -50.764  26.606  33.313  0.00  0.00    -0.268 N 
ATOM      3  C   UNL d   1     -51.571  26.773  33.311  0.00  0.00     0.296 A 
ATOM      4  S   UNL d   1     -51.979  26.046  33.308  0.00  0.00    -0.025 SA
ATOM      5  O   UNL d   1     -51.921  27.518  33.313  0.00  0.00    -0.259 OA
ATOM      6  C   UNL d   1     -51.413  25.445  33.308  0.00  0.00     0.050 A 
ATOM      7  C   UNL d   1     -51.487  24.612  33.306  0.00  0.00     0.008 A 
ATOM      8  C   UNL d   1     -50.668  25.784  33.311  0.00  0.00     0.073 A 
ATOM      9  C   UNL d   1     -50.811  24.143  33.306  0.00  0.00     0.001 A 
ATOM     10  C   UNL d   1     -50.062  24.495  33.309  0.00  0.00     0.002 A 
ATOM     11  C   UNL d   1     -49.987  25.317  33.311  0.00  0.00     0.018 A 
ENDBRANCH   1   2
BRANCH   1  12
ATOM     12  C   UNL d   1     -49.750  27.333  34.017  0.00  0.00     0.046 C 
BRANCH  12  13
ATOM     13  C   UNL d   1     -48.939  27.479  34.006  0.00  0.00     0.124 C 
BRANCH  13  14
ATOM     14  O   UNL d   1     -48.634  28.131  34.393  0.00  0.00    -0.305 OA
BRANCH  14  15
ATOM     15  C   UNL d   1     -48.325  28.792  34.783  0.00  0.00     0.100 A 
ATOM     16  C   UNL d   1     -48.108  28.740  35.575  0.00  0.00     0.023 A 
ATOM     17  C   UNL d   1     -48.200  28.025  35.978  0.00  0.00     0.002 C 
ATOM     18  C   UNL d   1     -47.803  29.395  35.959  0.00  0.00     0.002 A 
ATOM     19  C   UNL d   1     -47.713  30.107  35.553  0.00  0.00     0.000 A 
ATOM     20  C   UNL d   1     -47.932  30.156  34.758  0.00  0.00     0.002 A 
ATOM     21  C   UNL d   1     -48.240  29.488  34.375  0.00  0.00     0.025 A 
ENDBRANCH  14  15
ENDBRANCH  13  14
ENDBRANCH  12  13
ENDBRANCH   1  12
TORSDOF 5
ENDMDL
