MODEL 1
REMARK VINA RESULT:      -8.7      0.000      0.000
REMARK  6 active torsions:
REMARK  status: ('A' for Active; 'I' for Inactive)
REMARK    1  A    between atoms: O_10  and  C_1 
REMARK    2  A    between atoms: O_9  and  C_6 
REMARK    3  A    between atoms: O_12  and  C_8 
REMARK    4  A    between atoms: C_13  and  O_9 
REMARK    5  A    between atoms: C_19  and  O_10 
REMARK    6  A    between atoms: C_14  and  O_12 
ROOT
ATOM      1  C   UNL d   1      53.435  31.862  53.501  0.00  0.00     0.161 A 
ATOM      2  C   UNL d   1      52.518  33.239  53.560  0.00  0.00     0.128 A 
ATOM      3  C   UNL d   1      52.356  32.639  52.990  0.00  0.00     0.066 A 
ATOM      4  C   UNL d   1      52.819  31.959  52.970  0.00  0.00     0.222 A 
ATOM      5  O   UNL d   1      53.139  33.146  54.098  0.00  0.00    -0.303 OA
ATOM      6  C   UNL d   1      52.058  33.924  53.587  0.00  0.00     0.149 A 
ATOM      7  C   UNL d   1      53.597  32.462  54.071  0.00  0.00     0.126 A 
ATOM      8  C   UNL d   1      51.442  34.013  53.051  0.00  0.00     0.128 A 
ATOM      9  C   UNL d   1      51.738  32.737  52.458  0.00  0.00     0.007 A 
ATOM     10  O   UNL d   1      52.661  31.373  52.414  0.00  0.00    -0.284 OA
ATOM     11  C   UNL d   1      51.281  33.413  52.481  0.00  0.00     0.027 A 
ATOM     12  C   UNL d   1      54.230  32.360  54.615  0.00  0.00     0.029 C 
ENDROOT
BRANCH   1  13
ATOM     13  O   UNL d   1      53.910  31.173  53.487  0.00  0.00    -0.302 OA
BRANCH  13  14
ATOM     14  C   UNL d   1      53.616  30.476  53.810  0.00  0.00     0.100 A 
ATOM     15  C   UNL d   1      53.392  29.857  53.316  0.00  0.00     0.025 A 
ATOM     16  C   UNL d   1      53.097  29.156  53.641  0.00  0.00     0.002 A 
ATOM     17  C   UNL d   1      53.028  29.077  54.460  0.00  0.00     0.000 A 
ATOM     18  C   UNL d   1      53.253  29.699  54.953  0.00  0.00     0.002 A 
ATOM     19  C   UNL d   1      53.548  30.400  54.627  0.00  0.00     0.025 A 
ENDBRANCH  13  14
ENDBRANCH   1  13
BRANCH   6  20
ATOM     20  O   UNL d   1      52.216  34.507  54.141  0.00  0.00    -0.269 OA
BRANCH  20  21
ATOM     21  C   UNL d   1      52.733  35.122  53.958  0.00  0.00     0.300 C 
ATOM     22  O   UNL d   1      53.015  35.206  53.188  0.00  0.00    -0.259 OA
ATOM     23  C   UNL d   1      52.969  35.654  54.546  0.00  0.00     0.074 C 
ENDBRANCH  20  21
ENDBRANCH   6  20
BRANCH   8  24
ATOM     24  O   UNL d   1      50.967  34.709  53.070  0.00  0.00    -0.271 OA
BRANCH  24  25
ATOM     25  C   UNL d   1      50.209  34.703  52.741  0.00  0.00     0.300 C 
ATOM     26  O   UNL d   1      50.126  34.593  51.932  0.00  0.00    -0.259 OA
ATOM     27  C   UNL d   1      49.547  34.806  53.219  0.00  0.00     0.074 C 
ENDBRANCH  24  25
ENDBRANCH   8  24
TORSDOF 6
ENDMDL
MODEL 2
REMARK VINA RESULT:      -8.2      0.870      4.226
REMARK  6 active torsions:
REMARK  status: ('A' for Active; 'I' for Inactive)
REMARK    1  A    between atoms: O_10  and  C_1 
REMARK    2  A    between atoms: O_9  and  C_6 
REMARK    3  A    between atoms: O_12  and  C_8 
REMARK    4  A    between atoms: C_13  and  O_9 
REMARK    5  A    between atoms: C_19  and  O_10 
REMARK    6  A    between atoms: C_14  and  O_12 
ROOT
ATOM      1  C   UNL d   1      52.030  34.024  52.798  0.00  0.00     0.161 A 
ATOM      2  C   UNL d   1      52.896  32.889  53.634  0.00  0.00     0.128 A 
ATOM      3  C   UNL d   1      52.485  32.681  52.928  0.00  0.00     0.066 A 
ATOM      4  C   UNL d   1      52.057  33.253  52.520  0.00  0.00     0.222 A 
ATOM      5  O   UNL d   1      52.872  33.665  53.918  0.00  0.00    -0.303 OA
ATOM      6  C   UNL d   1      53.328  32.319  54.048  0.00  0.00     0.149 A 
ATOM      7  C   UNL d   1      52.441  34.232  53.504  0.00  0.00     0.126 A 
ATOM      8  C   UNL d   1      53.350  31.549  53.763  0.00  0.00     0.128 A 
ATOM      9  C   UNL d   1      52.513  31.908  52.651  0.00  0.00     0.007 A 
ATOM     10  O   UNL d   1      51.655  33.051  51.831  0.00  0.00    -0.284 OA
ATOM     11  C   UNL d   1      52.938  31.342  53.058  0.00  0.00     0.027 A 
ATOM     12  C   UNL d   1      52.412  35.023  53.786  0.00  0.00     0.029 C 
ENDROOT
BRANCH   1  13
ATOM     13  O   UNL d   1      51.597  34.612  52.389  0.00  0.00    -0.302 OA
BRANCH  13  14
ATOM     14  C   UNL d   1      50.777  34.633  52.463  0.00  0.00     0.100 A 
ATOM     15  C   UNL d   1      50.436  34.834  53.185  0.00  0.00     0.025 A 
ATOM     16  C   UNL d   1      49.613  34.855  53.260  0.00  0.00     0.002 A 
ATOM     17  C   UNL d   1      49.134  34.675  52.613  0.00  0.00     0.000 A 
ATOM     18  C   UNL d   1      49.479  34.473  51.891  0.00  0.00     0.002 A 
ATOM     19  C   UNL d   1      50.302  34.452  51.816  0.00  0.00     0.025 A 
ENDBRANCH  13  14
ENDBRANCH   1  13
BRANCH   6  20
ATOM     20  O   UNL d   1      53.728  32.521  54.735  0.00  0.00    -0.269 OA
BRANCH  20  21
ATOM     21  C   UNL d   1      54.479  32.857  54.691  0.00  0.00     0.300 C 
ATOM     22  O   UNL d   1      54.938  32.751  54.014  0.00  0.00    -0.259 OA
ATOM     23  C   UNL d   1      54.773  33.299  55.325  0.00  0.00     0.074 C 
ENDBRANCH  20  21
ENDBRANCH   6  20
BRANCH   8  24
ATOM     24  O   UNL d   1      53.788  30.961  54.180  0.00  0.00    -0.271 OA
BRANCH  24  25
ATOM     25  C   UNL d   1      53.676  30.160  54.005  0.00  0.00     0.300 C 
ATOM     26  O   UNL d   1      54.036  29.843  53.340  0.00  0.00    -0.259 OA
ATOM     27  C   UNL d   1      53.210  29.690  54.493  0.00  0.00     0.074 C 
ENDBRANCH  24  25
ENDBRANCH   8  24
TORSDOF 6
ENDMDL
MODEL 3
REMARK VINA RESULT:      -8.1      0.908      2.185
REMARK  6 active torsions:
REMARK  status: ('A' for Active; 'I' for Inactive)
REMARK    1  A    between atoms: O_10  and  C_1 
REMARK    2  A    between atoms: O_9  and  C_6 
REMARK    3  A    between atoms: O_12  and  C_8 
REMARK    4  A    between atoms: C_13  and  O_9 
REMARK    5  A    between atoms: C_19  and  O_10 
REMARK    6  A    between atoms: C_14  and  O_12 
ROOT
ATOM      1  C   UNL d   1      53.562  31.406  53.340  0.00  0.00     0.161 A 
ATOM      2  C   UNL d   1      52.917  32.929  53.386  0.00  0.00     0.128 A 
ATOM      3  C   UNL d   1      53.481  32.684  53.962  0.00  0.00     0.066 A 
ATOM      4  C   UNL d   1      53.795  31.925  53.930  0.00  0.00     0.222 A 
ATOM      5  O   UNL d   1      52.678  32.409  52.788  0.00  0.00    -0.303 OA
ATOM      6  C   UNL d   1      52.597  33.690  53.412  0.00  0.00     0.149 A 
ATOM      7  C   UNL d   1      52.998  31.651  52.763  0.00  0.00     0.126 A 
ATOM      8  C   UNL d   1      52.836  34.204  54.006  0.00  0.00     0.128 A 
ATOM      9  C   UNL d   1      53.714  33.206  54.554  0.00  0.00     0.007 A 
ATOM     10  O   UNL d   1      54.346  31.686  54.493  0.00  0.00    -0.284 OA
ATOM     11  C   UNL d   1      53.400  33.959  54.583  0.00  0.00     0.027 A 
ATOM     12  C   UNL d   1      52.760  31.117  52.159  0.00  0.00     0.029 C 
ENDROOT
BRANCH   1  13
ATOM     13  O   UNL d   1      53.877  30.632  53.301  0.00  0.00    -0.302 OA
BRANCH  13  14
ATOM     14  C   UNL d   1      53.503  30.024  53.710  0.00  0.00     0.100 A 
ATOM     15  C   UNL d   1      53.841  29.722  54.397  0.00  0.00     0.025 A 
ATOM     16  C   UNL d   1      53.465  29.111  54.808  0.00  0.00     0.002 A 
ATOM     17  C   UNL d   1      52.751  28.804  54.530  0.00  0.00     0.000 A 
ATOM     18  C   UNL d   1      52.414  29.108  53.840  0.00  0.00     0.002 A 
ATOM     19  C   UNL d   1      52.791  29.719  53.430  0.00  0.00     0.025 A 
ENDBRANCH  13  14
ENDBRANCH   1  13
BRANCH   6  20
ATOM     20  O   UNL d   1      52.048  33.928  52.851  0.00  0.00    -0.269 OA
BRANCH  20  21
ATOM     21  C   UNL d   1      51.242  33.879  53.015  0.00  0.00     0.300 C 
ATOM     22  O   UNL d   1      50.982  33.459  53.675  0.00  0.00    -0.259 OA
ATOM     23  C   UNL d   1      50.695  34.249  52.518  0.00  0.00     0.074 C 
ENDBRANCH  20  21
ENDBRANCH   6  20
BRANCH   8  24
ATOM     24  O   UNL d   1      52.515  34.983  54.041  0.00  0.00    -0.271 OA
BRANCH  24  25
ATOM     25  C   UNL d   1      52.947  35.594  54.394  0.00  0.00     0.300 C 
ATOM     26  O   UNL d   1      53.588  35.912  53.994  0.00  0.00    -0.259 OA
ATOM     27  C   UNL d   1      52.734  35.877  55.137  0.00  0.00     0.074 C 
ENDBRANCH  24  25
ENDBRANCH   8  24
TORSDOF 6
ENDMDL
MODEL 4
REMARK VINA RESULT:      -7.1      1.446      2.162
REMARK  6 active torsions:
REMARK  status: ('A' for Active; 'I' for Inactive)
REMARK    1  A    between atoms: O_10  and  C_1 
REMARK    2  A    between atoms: O_9  and  C_6 
REMARK    3  A    between atoms: O_12  and  C_8 
REMARK    4  A    between atoms: C_13  and  O_9 
REMARK    5  A    between atoms: C_19  and  O_10 
REMARK    6  A    between atoms: C_14  and  O_12 
ROOT
ATOM      1  C   UNL d   1      53.287  31.727  53.047  0.00  0.00     0.161 A 
ATOM      2  C   UNL d   1      53.697  33.129  53.826  0.00  0.00     0.128 A 
ATOM      3  C   UNL d   1      52.896  32.974  53.613  0.00  0.00     0.066 A 
ATOM      4  C   UNL d   1      52.704  32.274  53.227  0.00  0.00     0.222 A 
ATOM      5  O   UNL d   1      54.289  32.581  53.647  0.00  0.00    -0.303 OA
ATOM      6  C   UNL d   1      53.897  33.830  54.214  0.00  0.00     0.149 A 
ATOM      7  C   UNL d   1      54.088  31.882  53.260  0.00  0.00     0.126 A 
ATOM      8  C   UNL d   1      53.306  34.372  54.390  0.00  0.00     0.128 A 
ATOM      9  C   UNL d   1      52.311  33.523  53.794  0.00  0.00     0.007 A 
ATOM     10  O   UNL d   1      51.922  32.122  53.019  0.00  0.00    -0.284 OA
ATOM     11  C   UNL d   1      52.505  34.217  54.178  0.00  0.00     0.027 A 
ATOM     12  C   UNL d   1      54.685  31.320  53.075  0.00  0.00     0.029 C 
ENDROOT
BRANCH   1  13
ATOM     13  O   UNL d   1      53.100  31.013  52.654  0.00  0.00    -0.302 OA
BRANCH  13  14
ATOM     14  C   UNL d   1      52.926  30.343  53.099  0.00  0.00     0.100 A 
ATOM     15  C   UNL d   1      52.166  30.027  53.084  0.00  0.00     0.025 A 
ATOM     16  C   UNL d   1      51.991  29.353  53.531  0.00  0.00     0.002 A 
ATOM     17  C   UNL d   1      52.577  28.998  53.991  0.00  0.00     0.000 A 
ATOM     18  C   UNL d   1      53.338  29.317  54.004  0.00  0.00     0.002 A 
ATOM     19  C   UNL d   1      53.513  29.991  53.557  0.00  0.00     0.025 A 
ENDBRANCH  13  14
ENDBRANCH   1  13
BRANCH   6  20
ATOM     20  O   UNL d   1      54.676  33.981  54.421  0.00  0.00    -0.269 OA
BRANCH  20  21
ATOM     21  C   UNL d   1      54.953  33.774  55.168  0.00  0.00     0.300 C 
ATOM     22  O   UNL d   1      54.473  33.337  55.677  0.00  0.00    -0.259 OA
ATOM     23  C   UNL d   1      55.710  34.003  55.409  0.00  0.00     0.074 C 
ENDBRANCH  20  21
ENDBRANCH   6  20
BRANCH   8  24
ATOM     24  O   UNL d   1      53.501  35.091  54.786  0.00  0.00    -0.271 OA
BRANCH  24  25
ATOM     25  C   UNL d   1      53.072  35.780  54.629  0.00  0.00     0.300 C 
ATOM     26  O   UNL d   1      53.376  36.328  54.100  0.00  0.00    -0.259 OA
ATOM     27  C   UNL d   1      52.349  35.913  55.000  0.00  0.00     0.074 C 
ENDBRANCH  24  25
ENDBRANCH   8  24
TORSDOF 6
ENDMDL
MODEL 5
REMARK VINA RESULT:      -6.3      1.274      4.476
REMARK  6 active torsions:
REMARK  status: ('A' for Active; 'I' for Inactive)
REMARK    1  A    between atoms: O_10  and  C_1 
REMARK    2  A    between atoms: O_9  and  C_6 
REMARK    3  A    between atoms: O_12  and  C_8 
REMARK    4  A    between atoms: C_13  and  O_9 
REMARK    5  A    between atoms: C_19  and  O_10 
REMARK    6  A    between atoms: C_14  and  O_12 
ROOT
ATOM      1  C   UNL d   1      51.130  34.019  53.441  0.00  0.00     0.161 A 
ATOM      2  C   UNL d   1      52.575  33.362  53.907  0.00  0.00     0.128 A 
ATOM      3  C   UNL d   1      52.483  34.198  53.845  0.00  0.00     0.066 A 
ATOM      4  C   UNL d   1      51.760  34.513  53.612  0.00  0.00     0.222 A 
ATOM      5  O   UNL d   1      51.942  32.859  53.735  0.00  0.00    -0.303 OA
ATOM      6  C   UNL d   1      53.298  33.038  54.140  0.00  0.00     0.149 A 
ATOM      7  C   UNL d   1      51.222  33.183  53.502  0.00  0.00     0.126 A 
ATOM      8  C   UNL d   1      53.925  33.540  54.311  0.00  0.00     0.128 A 
ATOM      9  C   UNL d   1      53.116  34.693  54.018  0.00  0.00     0.007 A 
ATOM     10  O   UNL d   1      51.670  35.329  53.552  0.00  0.00    -0.284 OA
ATOM     11  C   UNL d   1      53.833  34.376  54.249  0.00  0.00     0.027 A 
ATOM     12  C   UNL d   1      50.573  32.678  53.325  0.00  0.00     0.029 C 
ENDROOT
BRANCH   1  13
ATOM     13  O   UNL d   1      50.391  34.332  53.203  0.00  0.00    -0.302 OA
BRANCH  13  14
ATOM     14  C   UNL d   1      50.212  34.377  52.401  0.00  0.00     0.100 A 
ATOM     15  C   UNL d   1      49.433  34.492  52.161  0.00  0.00     0.025 A 
ATOM     16  C   UNL d   1      49.253  34.537  51.355  0.00  0.00     0.002 A 
ATOM     17  C   UNL d   1      49.853  34.465  50.792  0.00  0.00     0.000 A 
ATOM     18  C   UNL d   1      50.632  34.349  51.036  0.00  0.00     0.002 A 
ATOM     19  C   UNL d   1      50.812  34.305  51.842  0.00  0.00     0.025 A 
ENDBRANCH  13  14
ENDBRANCH   1  13
BRANCH   6  20
ATOM     20  O   UNL d   1      53.388  32.225  54.200  0.00  0.00    -0.269 OA
BRANCH  20  21
ATOM     21  C   UNL d   1      53.654  31.790  53.553  0.00  0.00     0.300 C 
ATOM     22  O   UNL d   1      53.943  32.181  52.886  0.00  0.00    -0.259 OA
ATOM     23  C   UNL d   1      53.632  30.964  53.572  0.00  0.00     0.074 C 
ENDBRANCH  20  21
ENDBRANCH   6  20
BRANCH   8  24
ATOM     24  O   UNL d   1      54.667  33.219  54.550  0.00  0.00    -0.271 OA
BRANCH  24  25
ATOM     25  C   UNL d   1      55.177  33.663  55.025  0.00  0.00     0.300 C 
ATOM     26  O   UNL d   1      55.017  33.732  55.827  0.00  0.00    -0.259 OA
ATOM     27  C   UNL d   1      55.836  34.031  54.697  0.00  0.00     0.074 C 
ENDBRANCH  24  25
ENDBRANCH   8  24
TORSDOF 6
ENDMDL
