MODEL 1
REMARK VINA RESULT:      -2.4      0.000      0.000
REMARK  5 active torsions:
REMARK  status: ('A' for Active; 'I' for Inactive)
REMARK    1  A    between atoms: S_8  and  C_2 
REMARK    2  A    between atoms: C_4  and  C_3 
REMARK    3  A    between atoms: C_18  and  S_8 
REMARK    4  A    between atoms: C_9  and  C_18 
REMARK       I    between atoms: N_11  and  C_9 
REMARK    5  A    between atoms: C_13  and  N_11 
ROOT
ATOM      1  C   UNL d   1      59.493  -1.505  29.429  0.00  0.00     0.096 A 
ATOM      2  C   UNL d   1      59.238  -0.695  29.510  0.00  0.00     0.120 A 
ATOM      3  C   UNL d   1      60.303  -1.675  29.325  0.00  0.00     0.085 A 
ATOM      4  N   UNL d   1      59.808  -0.099  29.483  0.00  0.00    -0.238 NA
ATOM      5  C   UNL d   1      58.958  -2.118  29.451  0.00  0.00     0.103 C 
ATOM      6  N   UNL d   1      58.421  -2.732  29.474  0.00  0.00    -0.191 NA
ATOM      7  C   UNL d   1      60.866  -1.060  29.300  0.00  0.00     0.024 A 
ATOM      8  C   UNL d   1      60.611  -0.250  29.381  0.00  0.00     0.082 A 
ATOM      9  C   UNL d   1      61.133   0.359  29.360  0.00  0.00     0.021 C 
ENDROOT
BRANCH   2  10
ATOM     10  S   UNL d   1      58.434  -0.544  29.613  0.00  0.00    -0.062 SA
BRANCH  10  11
ATOM     11  C   UNL d   1      58.161  -0.152  30.279  0.00  0.00     0.099 C 
BRANCH  11  12
ATOM     12  C   UNL d   1      57.478   0.314  30.226  0.00  0.00     0.281 C 
ATOM     13  N   UNL d   1      57.028   0.438  30.889  0.00  0.00    -0.238 NA
ATOM     14  O   UNL d   1      57.260   0.649  29.495  0.00  0.00    -0.265 OA
BRANCH  13  15
ATOM     15  C   UNL d   1      57.247   0.106  31.606  0.00  0.00     0.088 C 
ATOM     16  C   UNL d   1      57.476  -0.230  32.340  0.00  0.00     0.025 C 
ATOM     17  C   UNL d   1      56.680  -0.470  31.511  0.00  0.00     0.025 C 
ATOM     18  C   UNL d   1      57.805   0.682  31.687  0.00  0.00     0.025 C 
ENDBRANCH  13  15
ENDBRANCH  11  12
ENDBRANCH  10  11
ENDBRANCH   2  10
BRANCH   3  19
ATOM     19  C   UNL d   1      60.547  -2.452  29.247  0.00  0.00     0.419 C 
ATOM     20  F   UNL d   1      60.790  -3.224  29.170  0.00  0.00    -0.166 F 
ATOM     21  F   UNL d   1      60.785  -2.457  30.037  0.00  0.00    -0.166 F 
ATOM     22  F   UNL d   1      60.309  -2.448  28.455  0.00  0.00    -0.166 F 
ENDBRANCH   3  19
TORSDOF 5
ENDMDL
MODEL 2
REMARK VINA RESULT:      -1.8      2.217      3.808
REMARK  5 active torsions:
REMARK  status: ('A' for Active; 'I' for Inactive)
REMARK    1  A    between atoms: S_8  and  C_2 
REMARK    2  A    between atoms: C_4  and  C_3 
REMARK    3  A    between atoms: C_18  and  S_8 
REMARK    4  A    between atoms: C_9  and  C_18 
REMARK       I    between atoms: N_11  and  C_9 
REMARK    5  A    between atoms: C_13  and  N_11 
ROOT
ATOM      1  C   UNL d   1      58.041  -0.775  30.249  0.00  0.00     0.096 A 
ATOM      2  C   UNL d   1      58.517  -1.106  29.623  0.00  0.00     0.120 A 
ATOM      3  C   UNL d   1      58.052   0.048  30.385  0.00  0.00     0.085 A 
ATOM      4  N   UNL d   1      58.978  -0.595  29.168  0.00  0.00    -0.238 NA
ATOM      5  C   UNL d   1      57.575  -1.249  30.717  0.00  0.00     0.103 C 
ATOM      6  N   UNL d   1      57.107  -1.725  31.187  0.00  0.00    -0.191 NA
ATOM      7  C   UNL d   1      58.524   0.550  29.915  0.00  0.00     0.024 A 
ATOM      8  C   UNL d   1      59.000   0.219  29.289  0.00  0.00     0.082 A 
ATOM      9  C   UNL d   1      59.462   0.681  28.823  0.00  0.00     0.021 C 
ENDROOT
BRANCH   2  10
ATOM     10  S   UNL d   1      58.495  -1.921  29.501  0.00  0.00    -0.062 SA
BRANCH  10  11
ATOM     11  C   UNL d   1      59.144  -2.318  29.196  0.00  0.00     0.099 C 
BRANCH  11  12
ATOM     12  C   UNL d   1      59.031  -3.035  28.797  0.00  0.00     0.281 C 
ATOM     13  N   UNL d   1      59.650  -3.554  28.724  0.00  0.00    -0.238 NA
ATOM     14  O   UNL d   1      58.285  -3.217  28.474  0.00  0.00    -0.265 OA
BRANCH  13  15
ATOM     15  C   UNL d   1      60.383  -3.369  29.045  0.00  0.00     0.088 C 
ATOM     16  C   UNL d   1      61.133  -3.175  29.368  0.00  0.00     0.025 C 
ATOM     17  C   UNL d   1      60.317  -4.000  29.555  0.00  0.00     0.025 C 
ATOM     18  C   UNL d   1      60.434  -2.748  28.533  0.00  0.00     0.025 C 
ENDBRANCH  13  15
ENDBRANCH  11  12
ENDBRANCH  10  11
ENDBRANCH   2  10
BRANCH   3  19
ATOM     19  C   UNL d   1      57.595   0.366  30.986  0.00  0.00     0.419 C 
ATOM     20  F   UNL d   1      57.142   0.682  31.582  0.00  0.00    -0.166 F 
ATOM     21  F   UNL d   1      58.220   0.264  31.515  0.00  0.00    -0.166 F 
ATOM     22  F   UNL d   1      56.969   0.469  30.455  0.00  0.00    -0.166 F 
ENDBRANCH   3  19
TORSDOF 5
ENDMDL
MODEL 3
REMARK VINA RESULT:      -0.3      1.535      1.974
REMARK  5 active torsions:
REMARK  status: ('A' for Active; 'I' for Inactive)
REMARK    1  A    between atoms: S_8  and  C_2 
REMARK    2  A    between atoms: C_4  and  C_3 
REMARK    3  A    between atoms: C_18  and  S_8 
REMARK    4  A    between atoms: C_9  and  C_18 
REMARK       I    between atoms: N_11  and  C_9 
REMARK    5  A    between atoms: C_13  and  N_11 
ROOT
ATOM      1  C   UNL d   1      59.068   0.206  29.953  0.00  0.00     0.096 A 
ATOM      2  C   UNL d   1      58.745   0.527  30.675  0.00  0.00     0.120 A 
ATOM      3  C   UNL d   1      59.885   0.047  29.901  0.00  0.00     0.085 A 
ATOM      4  N   UNL d   1      59.258   0.671  31.305  0.00  0.00    -0.238 NA
ATOM      5  C   UNL d   1      58.590   0.051  29.313  0.00  0.00     0.103 C 
ATOM      6  N   UNL d   1      58.112  -0.103  28.670  0.00  0.00    -0.191 NA
ATOM      7  C   UNL d   1      60.390   0.199  30.547  0.00  0.00     0.024 A 
ATOM      8  C   UNL d   1      60.067   0.520  31.268  0.00  0.00     0.082 A 
ATOM      9  C   UNL d   1      60.532   0.674  31.905  0.00  0.00     0.021 C 
ENDROOT
BRANCH   2  10
ATOM     10  S   UNL d   1      57.935   0.678  30.711  0.00  0.00    -0.062 SA
BRANCH  10  11
ATOM     11  C   UNL d   1      57.500   0.478  31.376  0.00  0.00     0.099 C 
BRANCH  11  12
ATOM     12  C   UNL d   1      56.680   0.378  31.310  0.00  0.00     0.281 C 
ATOM     13  N   UNL d   1      56.273   0.010  31.908  0.00  0.00    -0.238 NA
ATOM     14  O   UNL d   1      56.281   0.656  30.634  0.00  0.00    -0.265 OA
BRANCH  13  15
ATOM     15  C   UNL d   1      56.672  -0.262  32.572  0.00  0.00     0.088 C 
ATOM     16  C   UNL d   1      57.080  -0.545  33.248  0.00  0.00     0.025 C 
ATOM     17  C   UNL d   1      56.561   0.460  32.931  0.00  0.00     0.025 C 
ATOM     18  C   UNL d   1      56.774  -0.971  32.203  0.00  0.00     0.025 C 
ENDBRANCH  13  15
ENDBRANCH  11  12
ENDBRANCH  10  11
ENDBRANCH   2  10
BRANCH   3  19
ATOM     19  C   UNL d   1      60.194  -0.261  29.208  0.00  0.00     0.419 C 
ATOM     20  F   UNL d   1      60.501  -0.566  28.520  0.00  0.00    -0.166 F 
ATOM     21  F   UNL d   1      60.187  -1.016  29.540  0.00  0.00    -0.166 F 
ATOM     22  F   UNL d   1      60.202   0.496  28.875  0.00  0.00    -0.166 F 
ENDBRANCH   3  19
TORSDOF 5
ENDMDL
