MODEL 1
REMARK VINA RESULT:      -3.2      0.000      0.000
REMARK  3 active torsions:
REMARK  status: ('A' for Active; 'I' for Inactive)
REMARK    1  A    between atoms: C_12  and  C_4 
REMARK    2  A    between atoms: S_8  and  C_12 
REMARK    3  A    between atoms: C_11  and  S_8 
ROOT
ATOM      1  N   UNL d   1      32.900  21.669 -21.846  0.00  0.00    -0.289 N 
ATOM      2  C   UNL d   1      32.546  21.282 -21.183  0.00  0.00     0.148 A 
ATOM      3  N   UNL d   1      32.641  20.452 -21.287  0.00  0.00    -0.226 NA
ATOM      4  C   UNL d   1      33.043  20.360 -21.998  0.00  0.00     0.107 A 
ATOM      5  C   UNL d   1      33.200  21.061 -22.333  0.00  0.00     0.101 A 
ATOM      6  C   UNL d   1      32.885  22.479 -21.883  0.00  0.00     0.066 A 
ATOM      7  C   UNL d   1      32.190  21.723 -20.582  0.00  0.00     0.037 A 
ATOM      8  C   UNL d   1      32.185  22.551 -20.638  0.00  0.00     0.005 A 
ATOM      9  C   UNL d   1      32.525  22.921 -21.274  0.00  0.00     0.018 A 
ATOM     10  C   UNL d   1      33.238  22.864 -22.543  0.00  0.00     0.019 C 
ENDROOT
BRANCH   4  11
ATOM     11  C   UNL d   1      33.241  19.595 -22.292  0.00  0.00     0.056 C 
BRANCH  11  12
ATOM     12  S   UNL d   1      32.927  19.382 -23.021  0.00  0.00    -0.083 SA
BRANCH  12  13
ATOM     13  C   UNL d   1      33.001  18.582 -23.289  0.00  0.00     0.049 A 
ATOM     14  C   UNL d   1      32.924  18.408 -24.088  0.00  0.00     0.109 A 
ATOM     15  N   UNL d   1      32.766  19.041 -24.654  0.00  0.00    -0.148 N 
ATOM     16  C   UNL d   1      32.996  17.630 -24.348  0.00  0.00     0.021 A 
ATOM     17  C   UNL d   1      33.146  17.034 -23.808  0.00  0.00     0.002 A 
ATOM     18  C   UNL d   1      33.221  17.191 -23.047  0.00  0.00     0.001 A 
ATOM     19  C   UNL d   1      33.152  17.980 -22.746  0.00  0.00     0.008 A 
ENDBRANCH  12  13
ENDBRANCH  11  12
ENDBRANCH   4  11
TORSDOF 3
ENDMDL
MODEL 2
REMARK VINA RESULT:      -2.9      1.061      1.719
REMARK  3 active torsions:
REMARK  status: ('A' for Active; 'I' for Inactive)
REMARK    1  A    between atoms: C_12  and  C_4 
REMARK    2  A    between atoms: S_8  and  C_12 
REMARK    3  A    between atoms: C_11  and  S_8 
ROOT
ATOM      1  N   UNL d   1      33.213  20.468 -22.002  0.00  0.00    -0.289 N 
ATOM      2  C   UNL d   1      33.228  20.686 -22.820  0.00  0.00     0.148 A 
ATOM      3  N   UNL d   1      33.231  19.977 -23.274  0.00  0.00    -0.226 NA
ATOM      4  C   UNL d   1      33.217  19.361 -22.730  0.00  0.00     0.107 A 
ATOM      5  C   UNL d   1      33.206  19.634 -21.986  0.00  0.00     0.101 A 
ATOM      6  C   UNL d   1      33.208  21.055 -21.441  0.00  0.00     0.066 A 
ATOM      7  C   UNL d   1      33.238  21.481 -23.042  0.00  0.00     0.037 A 
ATOM      8  C   UNL d   1      33.233  22.065 -22.453  0.00  0.00     0.005 A 
ATOM      9  C   UNL d   1      33.218  21.856 -21.669  0.00  0.00     0.018 A 
ATOM     10  C   UNL d   1      33.193  20.838 -20.627  0.00  0.00     0.019 C 
ENDROOT
BRANCH   4  11
ATOM     11  C   UNL d   1      33.215  18.557 -22.981  0.00  0.00     0.056 C 
BRANCH  11  12
ATOM     12  S   UNL d   1      32.530  18.280 -23.344  0.00  0.00    -0.083 SA
BRANCH  12  13
ATOM     13  C   UNL d   1      32.468  17.460 -23.546  0.00  0.00     0.049 A 
ATOM     14  C   UNL d   1      31.849  17.200 -24.017  0.00  0.00     0.109 A 
ATOM     15  N   UNL d   1      31.260  17.763 -24.307  0.00  0.00    -0.148 N 
ATOM     16  C   UNL d   1      31.788  16.402 -24.214  0.00  0.00     0.021 A 
ATOM     17  C   UNL d   1      32.348  15.873 -23.938  0.00  0.00     0.002 A 
ATOM     18  C   UNL d   1      32.940  16.113 -23.490  0.00  0.00     0.001 A 
ATOM     19  C   UNL d   1      33.032  16.925 -23.269  0.00  0.00     0.008 A 
ENDBRANCH  12  13
ENDBRANCH  11  12
ENDBRANCH   4  11
TORSDOF 3
ENDMDL
MODEL 3
REMARK VINA RESULT:      -2.8      1.155      4.413
REMARK  3 active torsions:
REMARK  status: ('A' for Active; 'I' for Inactive)
REMARK    1  A    between atoms: C_12  and  C_4 
REMARK    2  A    between atoms: S_8  and  C_12 
REMARK    3  A    between atoms: C_11  and  S_8 
ROOT
ATOM      1  N   UNL d   1      33.149  19.788 -23.256  0.00  0.00    -0.289 N 
ATOM      2  C   UNL d   1      33.065  19.304 -22.567  0.00  0.00     0.148 A 
ATOM      3  N   UNL d   1      33.092  19.808 -21.894  0.00  0.00    -0.226 NA
ATOM      4  C   UNL d   1      33.190  20.570 -22.187  0.00  0.00     0.107 A 
ATOM      5  C   UNL d   1      33.224  20.571 -22.978  0.00  0.00     0.101 A 
ATOM      6  C   UNL d   1      33.142  19.435 -23.987  0.00  0.00     0.066 A 
ATOM      7  C   UNL d   1      32.977  18.486 -22.638  0.00  0.00     0.037 A 
ATOM      8  C   UNL d   1      32.972  18.144 -23.394  0.00  0.00     0.005 A 
ATOM      9  C   UNL d   1      33.053  18.609 -24.054  0.00  0.00     0.018 A 
ATOM     10  C   UNL d   1      33.225  19.917 -24.672  0.00  0.00     0.019 C 
ENDROOT
BRANCH   4  11
ATOM     11  C   UNL d   1      33.241  21.233 -21.670  0.00  0.00     0.056 C 
BRANCH  11  12
ATOM     12  S   UNL d   1      32.558  21.679 -21.565  0.00  0.00    -0.083 SA
BRANCH  12  13
ATOM     13  C   UNL d   1      32.541  22.283 -20.971  0.00  0.00     0.049 A 
ATOM     14  C   UNL d   1      32.246  23.027 -21.151  0.00  0.00     0.109 A 
ATOM     15  N   UNL d   1      31.952  23.194 -21.947  0.00  0.00    -0.148 N 
ATOM     16  C   UNL d   1      32.230  23.615 -20.574  0.00  0.00     0.021 A 
ATOM     17  C   UNL d   1      32.510  23.452 -19.822  0.00  0.00     0.002 A 
ATOM     18  C   UNL d   1      32.792  22.746 -19.643  0.00  0.00     0.001 A 
ATOM     19  C   UNL d   1      32.823  22.120 -20.213  0.00  0.00     0.008 A 
ENDBRANCH  12  13
ENDBRANCH  11  12
ENDBRANCH   4  11
TORSDOF 3
ENDMDL
MODEL 4
REMARK VINA RESULT:      -2.4      1.069      4.506
REMARK  3 active torsions:
REMARK  status: ('A' for Active; 'I' for Inactive)
REMARK    1  A    between atoms: C_12  and  C_4 
REMARK    2  A    between atoms: S_8  and  C_12 
REMARK    3  A    between atoms: C_11  and  S_8 
ROOT
ATOM      1  N   UNL d   1      32.245  17.750 -23.881  0.00  0.00    -0.289 N 
ATOM      2  C   UNL d   1      32.914  17.332 -23.576  0.00  0.00     0.148 A 
ATOM      3  N   UNL d   1      33.241  17.791 -22.951  0.00  0.00    -0.226 NA
ATOM      4  C   UNL d   1      32.769  18.462 -22.895  0.00  0.00     0.107 A 
ATOM      5  C   UNL d   1      32.187  18.450 -23.431  0.00  0.00     0.101 A 
ATOM      6  C   UNL d   1      31.825  17.425 -24.495  0.00  0.00     0.066 A 
ATOM      7  C   UNL d   1      33.135  16.605 -23.898  0.00  0.00     0.037 A 
ATOM      8  C   UNL d   1      32.693  16.289 -24.525  0.00  0.00     0.005 A 
ATOM      9  C   UNL d   1      32.052  16.690 -24.817  0.00  0.00     0.018 A 
ATOM     10  C   UNL d   1      31.159  17.841 -24.798  0.00  0.00     0.019 C 
ENDROOT
BRANCH   4  11
ATOM     11  C   UNL d   1      32.928  19.060 -22.322  0.00  0.00     0.056 C 
BRANCH  11  12
ATOM     12  S   UNL d   1      32.866  19.841 -22.570  0.00  0.00    -0.083 SA
BRANCH  12  13
ATOM     13  C   UNL d   1      32.932  20.466 -22.001  0.00  0.00     0.049 A 
ATOM     14  C   UNL d   1      33.116  21.227 -22.248  0.00  0.00     0.109 A 
ATOM     15  N   UNL d   1      33.241  21.390 -23.087  0.00  0.00    -0.148 N 
ATOM     16  C   UNL d   1      33.180  21.834 -21.695  0.00  0.00     0.021 A 
ATOM     17  C   UNL d   1      33.061  21.674 -20.901  0.00  0.00     0.002 A 
ATOM     18  C   UNL d   1      32.886  20.953 -20.659  0.00  0.00     0.001 A 
ATOM     19  C   UNL d   1      32.812  20.306 -21.201  0.00  0.00     0.008 A 
ENDBRANCH  12  13
ENDBRANCH  11  12
ENDBRANCH   4  11
TORSDOF 3
ENDMDL
MODEL 5
REMARK VINA RESULT:      -2.2      3.173      5.477
REMARK  3 active torsions:
REMARK  status: ('A' for Active; 'I' for Inactive)
REMARK    1  A    between atoms: C_12  and  C_4 
REMARK    2  A    between atoms: S_8  and  C_12 
REMARK    3  A    between atoms: C_11  and  S_8 
ROOT
ATOM      1  N   UNL d   1      29.638  16.114 -23.641  0.00  0.00    -0.289 N 
ATOM      2  C   UNL d   1      29.312  16.347 -24.386  0.00  0.00     0.148 A 
ATOM      3  N   UNL d   1      29.909  16.763 -24.810  0.00  0.00    -0.226 NA
ATOM      4  C   UNL d   1      30.568  16.771 -24.318  0.00  0.00     0.107 A 
ATOM      5  C   UNL d   1      30.423  16.397 -23.636  0.00  0.00     0.101 A 
ATOM      6  C   UNL d   1      29.172  15.700 -23.121  0.00  0.00     0.066 A 
ATOM      7  C   UNL d   1      28.533  16.155 -24.580  0.00  0.00     0.037 A 
ATOM      8  C   UNL d   1      28.073  15.732 -24.035  0.00  0.00     0.005 A 
ATOM      9  C   UNL d   1      28.386  15.509 -23.321  0.00  0.00     0.018 A 
ATOM     10  C   UNL d   1      29.497  15.468 -22.380  0.00  0.00     0.019 C 
ENDROOT
BRANCH   4  11
ATOM     11  C   UNL d   1      31.286  17.144 -24.557  0.00  0.00     0.056 C 
BRANCH  11  12
ATOM     12  S   UNL d   1      31.734  17.504 -23.969  0.00  0.00    -0.083 SA
BRANCH  12  13
ATOM     13  C   UNL d   1      32.239  18.154 -24.169  0.00  0.00     0.049 A 
ATOM     14  C   UNL d   1      32.750  18.464 -23.606  0.00  0.00     0.109 A 
ATOM     15  N   UNL d   1      32.771  18.127 -22.810  0.00  0.00    -0.148 N 
ATOM     16  C   UNL d   1      33.241  19.096 -23.800  0.00  0.00     0.021 A 
ATOM     17  C   UNL d   1      33.216  19.411 -24.555  0.00  0.00     0.002 A 
ATOM     18  C   UNL d   1      32.733  19.121 -25.095  0.00  0.00     0.001 A 
ATOM     19  C   UNL d   1      32.215  18.473 -24.929  0.00  0.00     0.008 A 
ENDBRANCH  12  13
ENDBRANCH  11  12
ENDBRANCH   4  11
TORSDOF 3
ENDMDL
MODEL 6
REMARK VINA RESULT:      -1.6      3.033      4.413
REMARK  3 active torsions:
REMARK  status: ('A' for Active; 'I' for Inactive)
REMARK    1  A    between atoms: C_12  and  C_4 
REMARK    2  A    between atoms: S_8  and  C_12 
REMARK    3  A    between atoms: C_11  and  S_8 
ROOT
ATOM      1  N   UNL d   1      32.334  18.376 -24.241  0.00  0.00    -0.289 N 
ATOM      2  C   UNL d   1      32.321  18.001 -23.483  0.00  0.00     0.148 A 
ATOM      3  N   UNL d   1      31.809  17.335 -23.535  0.00  0.00    -0.226 NA
ATOM      4  C   UNL d   1      31.531  17.325 -24.309  0.00  0.00     0.107 A 
ATOM      5  C   UNL d   1      31.830  17.926 -24.730  0.00  0.00     0.101 A 
ATOM      6  C   UNL d   1      32.791  19.040 -24.342  0.00  0.00     0.066 A 
ATOM      7  C   UNL d   1      32.765  18.305 -22.857  0.00  0.00     0.037 A 
ATOM      8  C   UNL d   1      33.225  18.984 -22.981  0.00  0.00     0.005 A 
ATOM      9  C   UNL d   1      33.238  19.344 -23.708  0.00  0.00     0.018 A 
ATOM     10  C   UNL d   1      32.804  19.413 -25.097  0.00  0.00     0.019 C 
ENDROOT
BRANCH   4  11
ATOM     11  C   UNL d   1      30.997  16.729 -24.573  0.00  0.00     0.056 C 
BRANCH  11  12
ATOM     12  S   UNL d   1      30.608  16.292 -23.994  0.00  0.00    -0.083 SA
BRANCH  12  13
ATOM     13  C   UNL d   1      29.807  16.050 -24.123  0.00  0.00     0.049 A 
ATOM     14  C   UNL d   1      29.386  15.688 -23.518  0.00  0.00     0.109 A 
ATOM     15  N   UNL d   1      29.762  15.555 -22.751  0.00  0.00    -0.148 N 
ATOM     16  C   UNL d   1      28.607  15.453 -23.642  0.00  0.00     0.021 A 
ATOM     17  C   UNL d   1      28.256  15.581 -24.370  0.00  0.00     0.002 A 
ATOM     18  C   UNL d   1      28.650  15.925 -24.950  0.00  0.00     0.001 A 
ATOM     19  C   UNL d   1      29.452  16.179 -24.856  0.00  0.00     0.008 A 
ENDBRANCH  12  13
ENDBRANCH  11  12
ENDBRANCH   4  11
TORSDOF 3
ENDMDL
