MODEL 1
REMARK VINA RESULT:       3.0      0.000      0.000
REMARK  1 active torsions:
REMARK  status: ('A' for Active; 'I' for Inactive)
REMARK    1  A    between atoms: C_5  and  C_2 
ROOT
ATOM      1  N   UNL d   1     -54.898-101.597 -36.959  0.00  0.00    -0.217 NA
ATOM      2  C   UNL d   1     -55.114-102.282 -37.335  0.00  0.00     0.113 A 
ATOM      3  C   UNL d   1     -54.900-101.742 -36.143  0.00  0.00     0.215 A 
ATOM      4  S   UNL d   1     -55.126-102.543 -36.035  0.00  0.00    -0.045 SA
ATOM      5  C   UNL d   1     -55.257-102.874 -36.767  0.00  0.00     0.060 A 
ATOM      6  N   UNL d   1     -54.711-101.187 -35.543  0.00  0.00    -0.120 N 
ENDROOT
BRANCH   2   7
ATOM      7  C   UNL d   1     -55.192-102.411 -38.168  0.00  0.00     0.118 A 
ATOM      8  O   UNL d   1     -54.712-102.102 -38.782  0.00  0.00    -0.304 OA
ATOM      9  C   UNL d   1     -55.017-102.394 -39.506  0.00  0.00     0.123 A 
ATOM     10  C   UNL d   1     -55.668-102.869 -39.330  0.00  0.00     0.029 A 
ATOM     11  C   UNL d   1     -55.773-102.880 -38.519  0.00  0.00     0.028 A 
ENDBRANCH   2   7
TORSDOF 1
ENDMDL
MODEL 2
REMARK VINA RESULT:       4.5      1.586      2.768
REMARK  1 active torsions:
REMARK  status: ('A' for Active; 'I' for Inactive)
REMARK    1  A    between atoms: C_5  and  C_2 
ROOT
ATOM      1  N   UNL d   1     -54.862-101.578 -38.067  0.00  0.00    -0.217 NA
ATOM      2  C   UNL d   1     -54.815-102.114 -37.460  0.00  0.00     0.113 A 
ATOM      3  C   UNL d   1     -54.801-101.995 -38.781  0.00  0.00     0.215 A 
ATOM      4  S   UNL d   1     -54.716-102.807 -38.587  0.00  0.00    -0.045 SA
ATOM      5  C   UNL d   1     -54.724-102.879 -37.776  0.00  0.00     0.060 A 
ATOM      6  N   UNL d   1     -54.823-101.661 -39.550  0.00  0.00    -0.120 N 
ENDROOT
BRANCH   2   7
ATOM      7  C   UNL d   1     -54.849-101.957 -36.629  0.00  0.00     0.118 A 
ATOM      8  O   UNL d   1     -54.718-101.226 -36.239  0.00  0.00    -0.304 OA
ATOM      9  C   UNL d   1     -54.816-101.362 -35.418  0.00  0.00     0.123 A 
ATOM     10  C   UNL d   1     -55.003-102.159 -35.317  0.00  0.00     0.029 A 
ATOM     11  C   UNL d   1     -55.023-102.520 -36.051  0.00  0.00     0.028 A 
ENDBRANCH   2   7
TORSDOF 1
ENDMDL
