MODEL 1
REMARK VINA RESULT:       5.2      0.000      0.000
REMARK  4 active torsions:
REMARK  status: ('A' for Active; 'I' for Inactive)
REMARK    1  A    between atoms: C_6  and  N_1 
REMARK    2  A    between atoms: C_7  and  C_6 
REMARK    3  A    between atoms: C_14  and  C_7 
REMARK    4  A    between atoms: N_10  and  C_14 
ROOT
ATOM      1  N   UNL d   1     -41.442-122.425 -53.136  0.00  0.00    -0.303 N 
ATOM      2  C   UNL d   1     -41.679-122.793 -53.837  0.00  0.00     0.064 A 
ATOM      3  C   UNL d   1     -41.970-122.208 -54.352  0.00  0.00     0.018 A 
ATOM      4  C   UNL d   1     -41.585-121.614 -53.214  0.00  0.00     0.064 A 
ATOM      5  C   UNL d   1     -41.910-121.480 -53.963  0.00  0.00     0.018 A 
ATOM      6  C   UNL d   1     -41.670-123.584 -54.080  0.00  0.00     0.018 A 
ATOM      7  C   UNL d   1     -42.247-122.417 -55.099  0.00  0.00     0.002 A 
ATOM      8  C   UNL d   1     -41.461-120.980 -52.700  0.00  0.00     0.018 A 
ATOM      9  C   UNL d   1     -42.110-120.714 -54.195  0.00  0.00     0.002 A 
ATOM     10  C   UNL d   1     -42.238-123.204 -55.340  0.00  0.00     0.000 A 
ATOM     11  C   UNL d   1     -41.951-123.791 -54.835  0.00  0.00     0.002 A 
ATOM     12  C   UNL d   1     -41.661-120.219 -52.933  0.00  0.00     0.002 A 
ATOM     13  C   UNL d   1     -41.986-120.085 -53.682  0.00  0.00     0.000 A 
ENDROOT
BRANCH   1  14
ATOM     14  C   UNL d   1     -41.123-122.803 -52.483  0.00  0.00     0.124 C 
BRANCH  14  15
ATOM     15  C   UNL d   1     -41.597-123.014 -51.848  0.00  0.00     0.232 C 
ATOM     16  O   UNL d   1     -42.402-123.146 -51.953  0.00  0.00    -0.283 OA
BRANCH  15  17
ATOM     17  C   UNL d   1     -41.260-123.094 -51.099  0.00  0.00     0.142 C 
BRANCH  17  18
ATOM     18  N   UNL d   1     -41.744-123.179 -50.434  0.00  0.00    -0.237 NA
ATOM     19  C   UNL d   1     -41.526-123.709 -49.842  0.00  0.00     0.120 C 
ENDBRANCH  17  18
ENDBRANCH  15  17
ENDBRANCH  14  15
ENDBRANCH   1  14
TORSDOF 4
ENDMDL
MODEL 2
REMARK VINA RESULT:       5.8      1.287      2.982
REMARK  4 active torsions:
REMARK  status: ('A' for Active; 'I' for Inactive)
REMARK    1  A    between atoms: C_6  and  N_1 
REMARK    2  A    between atoms: C_7  and  C_6 
REMARK    3  A    between atoms: C_14  and  C_7 
REMARK    4  A    between atoms: N_10  and  C_14 
ROOT
ATOM      1  N   UNL d   1     -41.747-121.797 -52.320  0.00  0.00    -0.303 N 
ATOM      2  C   UNL d   1     -41.644-122.090 -53.086  0.00  0.00     0.064 A 
ATOM      3  C   UNL d   1     -41.417-122.888 -53.030  0.00  0.00     0.018 A 
ATOM      4  C   UNL d   1     -41.586-122.410 -51.789  0.00  0.00     0.064 A 
ATOM      5  C   UNL d   1     -41.383-123.082 -52.226  0.00  0.00     0.018 A 
ATOM      6  C   UNL d   1     -41.725-121.739 -53.831  0.00  0.00     0.018 A 
ATOM      7  C   UNL d   1     -41.275-123.326 -53.713  0.00  0.00     0.002 A 
ATOM      8  C   UNL d   1     -41.598-122.443 -50.965  0.00  0.00     0.018 A 
ATOM      9  C   UNL d   1     -41.192-123.785 -51.837  0.00  0.00     0.002 A 
ATOM     10  C   UNL d   1     -41.355-122.976 -54.455  0.00  0.00     0.000 A 
ATOM     11  C   UNL d   1     -41.580-122.184 -54.519  0.00  0.00     0.002 A 
ATOM     12  C   UNL d   1     -41.408-123.143 -50.580  0.00  0.00     0.002 A 
ATOM     13  C   UNL d   1     -41.205-123.815 -51.017  0.00  0.00     0.000 A 
ENDROOT
BRANCH   1  14
ATOM     14  C   UNL d   1     -41.971-121.033 -52.128  0.00  0.00     0.124 C 
BRANCH  14  15
ATOM     15  C   UNL d   1     -41.414-120.485 -51.875  0.00  0.00     0.232 C 
ATOM     16  O   UNL d   1     -41.146-120.491 -51.097  0.00  0.00    -0.283 OA
BRANCH  15  17
ATOM     17  C   UNL d   1     -41.124-119.926 -52.407  0.00  0.00     0.142 C 
BRANCH  17  18
ATOM     18  N   UNL d   1     -41.302-119.125 -52.305  0.00  0.00    -0.237 NA
ATOM     19  C   UNL d   1     -41.311-118.626 -52.961  0.00  0.00     0.120 C 
ENDBRANCH  17  18
ENDBRANCH  15  17
ENDBRANCH  14  15
ENDBRANCH   1  14
TORSDOF 4
ENDMDL
MODEL 3
REMARK VINA RESULT:       6.6      2.089      3.694
REMARK  4 active torsions:
REMARK  status: ('A' for Active; 'I' for Inactive)
REMARK    1  A    between atoms: C_6  and  N_1 
REMARK    2  A    between atoms: C_7  and  C_6 
REMARK    3  A    between atoms: C_14  and  C_7 
REMARK    4  A    between atoms: N_10  and  C_14 
ROOT
ATOM      1  N   UNL d   1     -42.057-122.449 -49.980  0.00  0.00    -0.303 N 
ATOM      2  C   UNL d   1     -42.874-122.339 -49.913  0.00  0.00     0.064 A 
ATOM      3  C   UNL d   1     -43.190-122.267 -50.678  0.00  0.00     0.018 A 
ATOM      4  C   UNL d   1     -41.866-122.445 -50.785  0.00  0.00     0.064 A 
ATOM      5  C   UNL d   1     -42.564-122.332 -51.215  0.00  0.00     0.018 A 
ATOM      6  C   UNL d   1     -43.376-122.295 -49.256  0.00  0.00     0.018 A 
ATOM      7  C   UNL d   1     -43.999-122.151 -50.782  0.00  0.00     0.002 A 
ATOM      8  C   UNL d   1     -41.147-122.529 -51.181  0.00  0.00     0.018 A 
ATOM      9  C   UNL d   1     -42.539-122.304 -52.039  0.00  0.00     0.002 A 
ATOM     10  C   UNL d   1     -44.499-122.107 -50.128  0.00  0.00     0.000 A 
ATOM     11  C   UNL d   1     -44.193-122.178 -49.365  0.00  0.00     0.002 A 
ATOM     12  C   UNL d   1     -41.125-122.500 -52.001  0.00  0.00     0.002 A 
ATOM     13  C   UNL d   1     -41.823-122.388 -52.431  0.00  0.00     0.000 A 
ENDROOT
BRANCH   1  14
ATOM     14  C   UNL d   1     -41.536-122.544 -49.356  0.00  0.00     0.124 C 
BRANCH  14  15
ATOM     15  C   UNL d   1     -41.589-123.198 -48.862  0.00  0.00     0.232 C 
ATOM     16  O   UNL d   1     -42.100-123.817 -49.041  0.00  0.00    -0.283 OA
BRANCH  15  17
ATOM     17  C   UNL d   1     -41.124-123.230 -48.181  0.00  0.00     0.142 C 
BRANCH  17  18
ATOM     18  N   UNL d   1     -41.458-123.463 -47.462  0.00  0.00    -0.237 NA
ATOM     19  C   UNL d   1     -41.266-123.050 -46.775  0.00  0.00     0.120 C 
ENDBRANCH  17  18
ENDBRANCH  15  17
ENDBRANCH  14  15
ENDBRANCH   1  14
TORSDOF 4
ENDMDL
