MODEL 1
REMARK VINA RESULT:      -8.4      0.000      0.000
REMARK  3 active torsions:
REMARK  status: ('A' for Active; 'I' for Inactive)
REMARK    1  A    between atoms: N_2  and  C_1 
REMARK    2  A    between atoms: N_3  and  C_1 
REMARK       I    between atoms: C_4  and  N_3 
REMARK    3  A    between atoms: C_5  and  C_4 
ROOT
ATOM      1  C   UNL d   1      53.835  32.032  53.957  0.00  0.00     0.209 C 
ATOM      2  S   UNL d   1      53.593  32.325  54.701  0.00  0.00    -0.038 SA
ENDROOT
BRANCH   1   3
ATOM      3  N   UNL d   1      53.331  31.523  53.534  0.00  0.00    -0.282 N 
ATOM      4  C   UNL d   1      53.260  30.713  53.656  0.00  0.00     0.066 A 
ATOM      5  C   UNL d   1      52.701  30.430  53.117  0.00  0.00     0.018 A 
ATOM      6  C   UNL d   1      53.625  30.193  54.181  0.00  0.00     0.018 A 
ATOM      7  C   UNL d   1      52.506  29.626  53.103  0.00  0.00     0.002 A 
ATOM      8  C   UNL d   1      52.433  31.067  52.668  0.00  0.00     0.021 A 
ATOM      9  C   UNL d   1      52.876  29.104  53.634  0.00  0.00     0.000 A 
ATOM     10  C   UNL d   1      53.435  29.387  54.172  0.00  0.00     0.002 A 
ATOM     11  C   UNL d   1      52.825  31.743  52.929  0.00  0.00     0.082 A 
ENDBRANCH   1   3
BRANCH   1  12
ATOM     12  N   UNL d   1      54.562  32.245  53.646  0.00  0.00    -0.178 NA
ATOM     13  C   UNL d   1      54.828  33.026  53.724  0.00  0.00     0.304 C 
ATOM     14  O   UNL d   1      55.563  33.240  53.410  0.00  0.00    -0.263 OA
BRANCH  13  15
ATOM     15  C   UNL d   1      54.372  33.593  54.111  0.00  0.00     0.158 A 
ATOM     16  O   UNL d   1      53.739  34.048  53.868  0.00  0.00    -0.296 OA
ATOM     17  C   UNL d   1      53.506  34.526  54.507  0.00  0.00     0.134 A 
ATOM     18 BR   UNL d   1      52.884  35.086  54.536  0.00  0.00    -0.022 Br
ATOM     19  C   UNL d   1      54.005  34.354  55.139  0.00  0.00     0.034 A 
ATOM     20  C   UNL d   1      54.538  33.779  54.892  0.00  0.00     0.032 A 
ENDBRANCH  13  15
ENDBRANCH   1  12
TORSDOF 3
ENDMDL
MODEL 2
REMARK VINA RESULT:      -8.3      2.318      3.196
REMARK  3 active torsions:
REMARK  status: ('A' for Active; 'I' for Inactive)
REMARK    1  A    between atoms: N_2  and  C_1 
REMARK    2  A    between atoms: N_3  and  C_1 
REMARK       I    between atoms: C_4  and  N_3 
REMARK    3  A    between atoms: C_5  and  C_4 
ROOT
ATOM      1  C   UNL d   1      52.678  33.243  53.604  0.00  0.00     0.209 C 
ATOM      2  S   UNL d   1      52.845  33.611  54.336  0.00  0.00    -0.038 SA
ENDROOT
BRANCH   1   3
ATOM      3  N   UNL d   1      52.306  33.680  53.002  0.00  0.00    -0.282 N 
ATOM      4  C   UNL d   1      51.496  33.796  52.929  0.00  0.00     0.066 A 
ATOM      5  C   UNL d   1      51.372  34.259  52.257  0.00  0.00     0.018 A 
ATOM      6  C   UNL d   1      50.852  33.545  53.379  0.00  0.00     0.018 A 
ATOM      7  C   UNL d   1      50.604  34.473  52.034  0.00  0.00     0.002 A 
ATOM      8  C   UNL d   1      52.107  34.425  51.921  0.00  0.00     0.021 A 
ATOM      9  C   UNL d   1      49.957  34.219  52.490  0.00  0.00     0.000 A 
ATOM     10  C   UNL d   1      50.081  33.755  53.162  0.00  0.00     0.002 A 
ATOM     11  C   UNL d   1      52.683  34.064  52.386  0.00  0.00     0.082 A 
ENDBRANCH   1   3
BRANCH   1  12
ATOM     12  N   UNL d   1      52.880  32.458  53.481  0.00  0.00    -0.178 NA
ATOM     13  C   UNL d   1      53.567  32.152  53.828  0.00  0.00     0.304 C 
ATOM     14  O   UNL d   1      53.770  31.361  53.704  0.00  0.00    -0.263 OA
BRANCH  13  15
ATOM     15  C   UNL d   1      54.053  32.626  54.297  0.00  0.00     0.158 A 
ATOM     16  O   UNL d   1      54.626  33.177  54.113  0.00  0.00    -0.296 OA
ATOM     17  C   UNL d   1      54.931  33.478  54.826  0.00  0.00     0.134 A 
ATOM     18 BR   UNL d   1      55.528  34.056  54.931  0.00  0.00    -0.022 Br
ATOM     19  C   UNL d   1      54.534  33.104  55.442  0.00  0.00     0.034 A 
ATOM     20  C   UNL d   1      53.994  32.579  55.113  0.00  0.00     0.032 A 
ENDBRANCH  13  15
ENDBRANCH   1  12
TORSDOF 3
ENDMDL
MODEL 3
REMARK VINA RESULT:      -8.1      1.394      2.134
REMARK  3 active torsions:
REMARK  status: ('A' for Active; 'I' for Inactive)
REMARK    1  A    between atoms: N_2  and  C_1 
REMARK    2  A    between atoms: N_3  and  C_1 
REMARK       I    between atoms: C_4  and  N_3 
REMARK    3  A    between atoms: C_5  and  C_4 
ROOT
ATOM      1  C   UNL d   1      52.766  32.566  53.209  0.00  0.00     0.209 C 
ATOM      2  S   UNL d   1      53.237  33.143  52.829  0.00  0.00    -0.038 SA
ENDROOT
BRANCH   1   3
ATOM      3  N   UNL d   1      53.133  31.937  53.610  0.00  0.00    -0.282 N 
ATOM      4  C   UNL d   1      53.066  31.142  53.412  0.00  0.00     0.066 A 
ATOM      5  C   UNL d   1      53.519  30.713  53.954  0.00  0.00     0.018 A 
ATOM      6  C   UNL d   1      52.657  30.747  52.816  0.00  0.00     0.018 A 
ATOM      7  C   UNL d   1      53.563  29.889  53.900  0.00  0.00     0.002 A 
ATOM      8  C   UNL d   1      53.861  31.247  54.480  0.00  0.00     0.021 A 
ATOM      9  C   UNL d   1      53.149  29.493  53.297  0.00  0.00     0.000 A 
ATOM     10  C   UNL d   1      52.696  29.922  52.755  0.00  0.00     0.002 A 
ATOM     11  C   UNL d   1      53.620  32.005  54.264  0.00  0.00     0.082 A 
ENDBRANCH   1   3
BRANCH   1  12
ATOM     12  N   UNL d   1      51.949  32.621  53.186  0.00  0.00    -0.178 NA
ATOM     13  C   UNL d   1      51.583  33.351  53.328  0.00  0.00     0.304 C 
ATOM     14  O   UNL d   1      50.758  33.405  53.305  0.00  0.00    -0.263 OA
BRANCH  13  15
ATOM     15  C   UNL d   1      52.029  34.024  53.492  0.00  0.00     0.158 A 
ATOM     16  O   UNL d   1      52.368  34.305  54.180  0.00  0.00    -0.296 OA
ATOM     17  C   UNL d   1      52.755  35.020  54.001  0.00  0.00     0.134 A 
ATOM     18 BR   UNL d   1      53.184  35.520  54.519  0.00  0.00    -0.022 Br
ATOM     19  C   UNL d   1      52.645  35.167  53.200  0.00  0.00     0.034 A 
ATOM     20  C   UNL d   1      52.197  34.552  52.888  0.00  0.00     0.032 A 
ENDBRANCH  13  15
ENDBRANCH   1  12
TORSDOF 3
ENDMDL
MODEL 4
REMARK VINA RESULT:      -7.8      1.947      4.067
REMARK  3 active torsions:
REMARK  status: ('A' for Active; 'I' for Inactive)
REMARK    1  A    between atoms: N_2  and  C_1 
REMARK    2  A    between atoms: N_3  and  C_1 
REMARK       I    between atoms: C_4  and  N_3 
REMARK    3  A    between atoms: C_5  and  C_4 
ROOT
ATOM      1  C   UNL d   1      53.385  32.407  53.525  0.00  0.00     0.209 C 
ATOM      2  S   UNL d   1      53.983  31.890  53.252  0.00  0.00    -0.038 SA
ENDROOT
BRANCH   1   3
ATOM      3  N   UNL d   1      53.562  32.962  54.118  0.00  0.00    -0.282 N 
ATOM      4  C   UNL d   1      53.371  33.761  54.095  0.00  0.00     0.066 A 
ATOM      5  C   UNL d   1      53.651  34.102  54.794  0.00  0.00     0.018 A 
ATOM      6  C   UNL d   1      52.983  34.227  53.538  0.00  0.00     0.018 A 
ATOM      7  C   UNL d   1      53.542  34.910  54.936  0.00  0.00     0.002 A 
ATOM      8  C   UNL d   1      54.011  33.510  55.241  0.00  0.00     0.021 A 
ATOM      9  C   UNL d   1      53.149  35.377  54.371  0.00  0.00     0.000 A 
ATOM     10  C   UNL d   1      52.870  35.036  53.673  0.00  0.00     0.002 A 
ATOM     11  C   UNL d   1      53.955  32.805  54.819  0.00  0.00     0.082 A 
ENDBRANCH   1   3
BRANCH   1  12
ATOM     12  N   UNL d   1      52.629  32.366  53.210  0.00  0.00    -0.178 NA
ATOM     13  C   UNL d   1      52.274  31.627  53.091  0.00  0.00     0.304 C 
ATOM     14  O   UNL d   1      51.512  31.586  52.773  0.00  0.00    -0.263 OA
BRANCH  13  15
ATOM     15  C   UNL d   1      52.670  30.930  53.285  0.00  0.00     0.158 A 
ATOM     16  O   UNL d   1      52.778  30.538  53.993  0.00  0.00    -0.296 OA
ATOM     17  C   UNL d   1      53.230  29.856  53.842  0.00  0.00     0.134 A 
ATOM     18 BR   UNL d   1      53.488  29.274  54.387  0.00  0.00    -0.022 Br
ATOM     19  C   UNL d   1      53.393  29.841  53.036  0.00  0.00     0.034 A 
ATOM     20  C   UNL d   1      53.046  30.503  52.695  0.00  0.00     0.032 A 
ENDBRANCH  13  15
ENDBRANCH   1  12
TORSDOF 3
ENDMDL
MODEL 5
REMARK VINA RESULT:      -7.2      2.724      3.878
REMARK  3 active torsions:
REMARK  status: ('A' for Active; 'I' for Inactive)
REMARK    1  A    between atoms: N_2  and  C_1 
REMARK    2  A    between atoms: N_3  and  C_1 
REMARK       I    between atoms: C_4  and  N_3 
REMARK    3  A    between atoms: C_5  and  C_4 
ROOT
ATOM      1  C   UNL d   1      52.370  33.830  53.422  0.00  0.00     0.209 C 
ATOM      2  S   UNL d   1      52.173  34.369  52.814  0.00  0.00    -0.038 SA
ENDROOT
BRANCH   1   3
ATOM      3  N   UNL d   1      52.871  34.074  54.039  0.00  0.00    -0.282 N 
ATOM      4  C   UNL d   1      53.615  33.763  54.200  0.00  0.00     0.066 A 
ATOM      5  C   UNL d   1      53.914  34.165  54.857  0.00  0.00     0.018 A 
ATOM      6  C   UNL d   1      54.063  33.171  53.843  0.00  0.00     0.018 A 
ATOM      7  C   UNL d   1      54.662  33.975  55.156  0.00  0.00     0.002 A 
ATOM      8  C   UNL d   1      53.352  34.720  55.095  0.00  0.00     0.021 A 
ATOM      9  C   UNL d   1      55.111  33.377  54.793  0.00  0.00     0.000 A 
ATOM     10  C   UNL d   1      54.812  32.975  54.137  0.00  0.00     0.002 A 
ATOM     11  C   UNL d   1      52.708  34.661  54.586  0.00  0.00     0.082 A 
ENDBRANCH   1   3
BRANCH   1  12
ATOM     12  N   UNL d   1      52.072  33.066  53.409  0.00  0.00    -0.178 NA
ATOM     13  C   UNL d   1      51.286  32.938  53.181  0.00  0.00     0.304 C 
ATOM     14  O   UNL d   1      50.986  32.167  53.169  0.00  0.00    -0.263 OA
BRANCH  13  15
ATOM     15  C   UNL d   1      50.797  33.566  52.968  0.00  0.00     0.158 A 
ATOM     16  O   UNL d   1      50.322  34.067  53.405  0.00  0.00    -0.296 OA
ATOM     17  C   UNL d   1      49.958  34.598  52.879  0.00  0.00     0.134 A 
ATOM     18 BR   UNL d   1      49.422  35.217  53.056  0.00  0.00    -0.022 Br
ATOM     19  C   UNL d   1      50.218  34.414  52.121  0.00  0.00     0.034 A 
ATOM     20  C   UNL d   1      50.735  33.777  52.178  0.00  0.00     0.032 A 
ENDBRANCH  13  15
ENDBRANCH   1  12
TORSDOF 3
ENDMDL
