MODEL 1
REMARK VINA RESULT:      -4.1      0.000      0.000
REMARK  9 active torsions:
REMARK  status: ('A' for Active; 'I' for Inactive)
REMARK    1  A    between atoms: C_9  and  N_1 
REMARK    2  A    between atoms: S_8  and  C_2 
REMARK    3  A    between atoms: C_7  and  C_12 
REMARK       I    between atoms: N_13  and  C_7 
REMARK    4  A    between atoms: C_26  and  S_8 
REMARK    5  A    between atoms: C_27  and  N_13 
REMARK    6  A    between atoms: C_15  and  C_27 
REMARK    7  A    between atoms: C_16  and  C_26 
REMARK    8  A    between atoms: O_31  and  C_16 
REMARK    9  A    between atoms: C_33  and  O_31 
ROOT
ATOM      1  N   UNL d   1     -45.201  11.970  22.874  0.00  0.00    -0.254 N 
ATOM      2  C   UNL d   1     -44.881  12.534  22.380  0.00  0.00     0.182 A 
ATOM      3  C   UNL d   1     -45.949  12.076  23.196  0.00  0.00     0.268 A 
ATOM      4  N   UNL d   1     -45.314  13.207  22.206  0.00  0.00    -0.222 NA
ATOM      5  C   UNL d   1     -46.381  12.745  23.024  0.00  0.00     0.074 A 
ATOM      6  C   UNL d   1     -46.063  13.323  22.522  0.00  0.00     0.088 A 
ATOM      7  C   UNL d   1     -46.496  14.006  22.342  0.00  0.00     0.024 A 
ATOM      8  C   UNL d   1     -47.134  12.862  23.341  0.00  0.00     0.006 A 
ATOM      9  C   UNL d   1     -47.247  14.112  22.665  0.00  0.00     0.059 A 
ATOM     10  O   UNL d   1     -46.267  11.498  23.698  0.00  0.00    -0.267 OA
ATOM     11  C   UNL d   1     -47.566  13.535  23.168  0.00  0.00     0.005 A 
ENDROOT
BRANCH   9  12
ATOM     12  C   UNL d   1     -47.685  14.797  22.488  0.00  0.00     0.279 C 
ATOM     13  N   UNL d   1     -48.436  14.716  22.195  0.00  0.00    -0.204 NA
ATOM     14  O   UNL d   1     -47.343  15.532  22.615  0.00  0.00    -0.265 OA
BRANCH  13  15
ATOM     15  C   UNL d   1     -48.762  13.972  22.074  0.00  0.00     0.127 C 
BRANCH  15  16
ATOM     16  C   UNL d   1     -49.546  13.899  21.831  0.00  0.00     0.119 A 
ATOM     17  O   UNL d   1     -50.210  14.340  21.972  0.00  0.00    -0.304 OA
ATOM     18  C   UNL d   1     -50.851  14.007  21.584  0.00  0.00     0.123 A 
ATOM     19  C   UNL d   1     -50.559  13.336  21.195  0.00  0.00     0.029 A 
ATOM     20  C   UNL d   1     -49.766  13.266  21.341  0.00  0.00     0.028 A 
ENDBRANCH  15  16
ENDBRANCH  13  15
ENDBRANCH   9  12
BRANCH   2  21
ATOM     21  S   UNL d   1     -44.129  12.428  22.057  0.00  0.00    -0.044 SA
BRANCH  21  22
ATOM     22  C   UNL d   1     -43.682  13.076  21.834  0.00  0.00     0.107 C 
BRANCH  22  23
ATOM     23  C   UNL d   1     -43.106  12.988  21.249  0.00  0.00     0.307 C 
ATOM     24  O   UNL d   1     -43.287  12.619  20.529  0.00  0.00    -0.258 OA
BRANCH  23  25
ATOM     25  O   UNL d   1     -42.342  13.276  21.390  0.00  0.00    -0.271 OA
BRANCH  25  26
ATOM     26  C   UNL d   1     -42.091  13.953  20.990  0.00  0.00     0.126 C 
ATOM     27  C   UNL d   1     -41.302  14.028  20.811  0.00  0.00     0.029 C 
ENDBRANCH  25  26
ENDBRANCH  23  25
ENDBRANCH  22  23
ENDBRANCH  21  22
ENDBRANCH   2  21
BRANCH   1  28
ATOM     28  C   UNL d   1     -44.768  11.290  23.051  0.00  0.00     0.069 A 
ATOM     29  C   UNL d   1     -45.109  10.546  22.953  0.00  0.00     0.020 A 
ATOM     30  C   UNL d   1     -44.688   9.873  23.126  0.00  0.00     0.031 A 
ATOM     31  C   UNL d   1     -43.914   9.938  23.401  0.00  0.00     0.140 A 
ATOM     32  C   UNL d   1     -43.572  10.682  23.499  0.00  0.00     0.031 A 
ATOM     33  F   UNL d   1     -43.482   9.246  23.578  0.00  0.00    -0.204 F 
ATOM     34  C   UNL d   1     -43.995  11.357  23.326  0.00  0.00     0.020 A 
ENDBRANCH   1  28
TORSDOF 9
ENDMDL
MODEL 2
REMARK VINA RESULT:      -4.1      2.205      5.684
REMARK  9 active torsions:
REMARK  status: ('A' for Active; 'I' for Inactive)
REMARK    1  A    between atoms: C_9  and  N_1 
REMARK    2  A    between atoms: S_8  and  C_2 
REMARK    3  A    between atoms: C_7  and  C_12 
REMARK       I    between atoms: N_13  and  C_7 
REMARK    4  A    between atoms: C_26  and  S_8 
REMARK    5  A    between atoms: C_27  and  N_13 
REMARK    6  A    between atoms: C_15  and  C_27 
REMARK    7  A    between atoms: C_16  and  C_26 
REMARK    8  A    between atoms: O_31  and  C_16 
REMARK    9  A    between atoms: C_33  and  O_31 
ROOT
ATOM      1  N   UNL d   1     -47.373  14.126  22.530  0.00  0.00    -0.254 N 
ATOM      2  C   UNL d   1     -47.478  13.356  22.283  0.00  0.00     0.182 A 
ATOM      3  C   UNL d   1     -46.621  14.454  22.563  0.00  0.00     0.268 A 
ATOM      4  N   UNL d   1     -46.824  12.912  22.069  0.00  0.00    -0.222 NA
ATOM      5  C   UNL d   1     -45.970  14.013  22.350  0.00  0.00     0.074 A 
ATOM      6  C   UNL d   1     -46.067  13.229  22.098  0.00  0.00     0.088 A 
ATOM      7  C   UNL d   1     -45.410  12.774  21.880  0.00  0.00     0.024 A 
ATOM      8  C   UNL d   1     -45.209  14.331  22.380  0.00  0.00     0.006 A 
ATOM      9  C   UNL d   1     -44.654  13.103  21.914  0.00  0.00     0.059 A 
ATOM     10  O   UNL d   1     -46.523  15.237  22.815  0.00  0.00    -0.267 OA
ATOM     11  C   UNL d   1     -44.556  13.887  22.165  0.00  0.00     0.005 A 
ENDROOT
BRANCH   9  12
ATOM     12  C   UNL d   1     -43.992  12.650  21.695  0.00  0.00     0.279 C 
ATOM     13  N   UNL d   1     -43.859  11.944  22.071  0.00  0.00    -0.204 NA
ATOM     14  O   UNL d   1     -43.494  12.932  21.107  0.00  0.00    -0.265 OA
BRANCH  13  15
ATOM     15  C   UNL d   1     -44.369  11.679  22.658  0.00  0.00     0.127 C 
BRANCH  15  16
ATOM     16  C   UNL d   1     -44.210  10.976  23.056  0.00  0.00     0.119 A 
ATOM     17  O   UNL d   1     -43.522  10.602  23.260  0.00  0.00    -0.304 OA
ATOM     18  C   UNL d   1     -43.692   9.906  23.658  0.00  0.00     0.123 A 
ATOM     19  C   UNL d   1     -44.519   9.860  23.694  0.00  0.00     0.029 A 
ATOM     20  C   UNL d   1     -44.839  10.508  23.329  0.00  0.00     0.028 A 
ENDBRANCH  15  16
ENDBRANCH  13  15
ENDBRANCH   9  12
BRANCH   2  21
ATOM     21  S   UNL d   1     -48.234  13.027  22.249  0.00  0.00    -0.044 SA
BRANCH  21  22
ATOM     22  C   UNL d   1     -48.360  12.325  21.849  0.00  0.00     0.107 C 
BRANCH  22  23
ATOM     23  C   UNL d   1     -49.028  11.873  22.024  0.00  0.00     0.307 C 
ATOM     24  O   UNL d   1     -49.062  11.420  22.717  0.00  0.00    -0.258 OA
BRANCH  23  25
ATOM     25  O   UNL d   1     -49.667  11.877  21.496  0.00  0.00    -0.271 OA
BRANCH  25  26
ATOM     26  C   UNL d   1     -50.313  12.364  21.658  0.00  0.00     0.126 C 
ATOM     27  C   UNL d   1     -50.969  12.036  22.008  0.00  0.00     0.029 C 
ENDBRANCH  25  26
ENDBRANCH  23  25
ENDBRANCH  22  23
ENDBRANCH  21  22
ENDBRANCH   2  21
BRANCH   1  28
ATOM     28  C   UNL d   1     -48.030  14.577  22.747  0.00  0.00     0.069 A 
ATOM     29  C   UNL d   1     -48.392  14.454  23.478  0.00  0.00     0.020 A 
ATOM     30  C   UNL d   1     -49.038  14.895  23.697  0.00  0.00     0.031 A 
ATOM     31  C   UNL d   1     -49.332  15.468  23.183  0.00  0.00     0.140 A 
ATOM     32  C   UNL d   1     -48.971  15.591  22.452  0.00  0.00     0.031 A 
ATOM     33  F   UNL d   1     -49.997  15.920  23.409  0.00  0.00    -0.204 F 
ATOM     34  C   UNL d   1     -48.322  15.149  22.232  0.00  0.00     0.020 A 
ENDBRANCH   1  28
TORSDOF 9
ENDMDL
