MODEL 1
REMARK VINA RESULT:      48.2      0.000      0.000
REMARK  6 active torsions:
REMARK  status: ('A' for Active; 'I' for Inactive)
REMARK    1  A    between atoms: N_4  and  C_1 
REMARK    2  A    between atoms: C_10  and  C_3 
REMARK       I    between atoms: C_9  and  N_4 
REMARK       I    between atoms: N_7  and  C_8 
REMARK    3  A    between atoms: C_8  and  C_15 
REMARK    4  A    between atoms: C_16  and  C_9 
REMARK    5  A    between atoms: S_14  and  C_16 
REMARK    6  A    between atoms: C_15  and  S_14 
ROOT
ATOM      1  N   UNL d   1     -55.030-100.901 -43.347  0.00  0.00    -0.182 NA
ATOM      2  C   UNL d   1     -55.154-101.162 -44.105  0.00  0.00     0.288 C 
ATOM      3  O   UNL d   1     -55.235-101.967 -44.263  0.00  0.00    -0.265 OA
ENDROOT
BRANCH   2   4
ATOM      4  C   UNL d   1     -55.199-100.617 -44.725  0.00  0.00     0.098 C 
BRANCH   4   5
ATOM      5  S   UNL d   1     -55.098 -99.791 -44.476  0.00  0.00    -0.076 SA
BRANCH   5   6
ATOM      6  C   UNL d   1     -55.691 -99.196 -44.695  0.00  0.00     0.097 C 
BRANCH   6   7
ATOM      7  C   UNL d   1     -56.345 -99.020 -44.155  0.00  0.00     0.272 C 
ATOM      8  N   UNL d   1     -57.161 -98.991 -44.448  0.00  0.00    -0.267 N 
ATOM      9  C   UNL d   1     -57.322 -99.139 -45.288  0.00  0.00     0.110 A 
ATOM     10  C   UNL d   1     -57.809 -98.814 -43.899  0.00  0.00     0.110 A 
ATOM     11  C   UNL d   1     -58.134 -99.111 -45.583  0.00  0.00     0.142 A 
ATOM     12  O   UNL d   1     -58.786 -98.936 -45.043  0.00  0.00    -0.300 OA
ATOM     13  C   UNL d   1     -58.629 -98.787 -44.203  0.00  0.00     0.142 A 
ATOM     14  O   UNL d   1     -56.183 -98.872 -43.316  0.00  0.00    -0.266 OA
ENDBRANCH   6   7
ENDBRANCH   5   6
ENDBRANCH   4   5
ENDBRANCH   2   4
BRANCH   1  15
ATOM     15  C   UNL d   1     -54.984-101.443 -42.726  0.00  0.00     0.197 A 
ATOM     16  N   UNL d   1     -55.028-101.256 -41.923  0.00  0.00    -0.221 NA
ATOM     17  C   UNL d   1     -54.959-101.958 -41.495  0.00  0.00     0.090 A 
ATOM     18  C   UNL d   1     -54.872-102.573 -42.038  0.00  0.00     0.058 A 
ATOM     19  S   UNL d   1     -54.888-102.257 -42.788  0.00  0.00    -0.046 SA
BRANCH  17  20
ATOM     20  C   UNL d   1     -54.973-102.026 -40.684  0.00  0.00     0.018 A 
ATOM     21  C   UNL d   1     -54.714-102.706 -40.328  0.00  0.00     0.002 A 
ATOM     22  C   UNL d   1     -54.728-102.775 -39.507  0.00  0.00     0.000 A 
ATOM     23  C   UNL d   1     -55.006-102.154 -39.049  0.00  0.00     0.000 A 
ATOM     24  C   UNL d   1     -55.271-101.461 -39.409  0.00  0.00     0.000 A 
ATOM     25  C   UNL d   1     -55.253-101.402 -40.229  0.00  0.00     0.002 A 
ENDBRANCH  17  20
ENDBRANCH   1  15
TORSDOF 6
ENDMDL
MODEL 2
REMARK VINA RESULT:      49.7      2.550      5.726
REMARK  6 active torsions:
REMARK  status: ('A' for Active; 'I' for Inactive)
REMARK    1  A    between atoms: N_4  and  C_1 
REMARK    2  A    between atoms: C_10  and  C_3 
REMARK       I    between atoms: C_9  and  N_4 
REMARK       I    between atoms: N_7  and  C_8 
REMARK    3  A    between atoms: C_8  and  C_15 
REMARK    4  A    between atoms: C_16  and  C_9 
REMARK    5  A    between atoms: S_14  and  C_16 
REMARK    6  A    between atoms: C_15  and  S_14 
ROOT
ATOM      1  N   UNL d   1     -55.135-102.645 -41.961  0.00  0.00    -0.182 NA
ATOM      2  C   UNL d   1     -54.906-102.354 -41.239  0.00  0.00     0.288 C 
ATOM      3  O   UNL d   1     -54.729-101.554 -41.147  0.00  0.00    -0.265 OA
ENDROOT
BRANCH   2   4
ATOM      4  C   UNL d   1     -54.851-102.863 -40.589  0.00  0.00     0.098 C 
BRANCH   4   5
ATOM      5  S   UNL d   1     -54.936-102.466 -39.822  0.00  0.00    -0.076 SA
BRANCH   5   6
ATOM      6  C   UNL d   1     -55.321-102.877 -39.161  0.00  0.00     0.097 C 
BRANCH   6   7
ATOM      7  C   UNL d   1     -55.868-102.446 -38.647  0.00  0.00     0.272 C 
ATOM      8  N   UNL d   1     -55.668-102.302 -37.815  0.00  0.00    -0.267 N 
ATOM      9  C   UNL d   1     -54.915-102.594 -37.497  0.00  0.00     0.110 A 
ATOM     10  C   UNL d   1     -56.223-101.869 -37.307  0.00  0.00     0.110 A 
ATOM     11  C   UNL d   1     -54.712-102.453 -36.669  0.00  0.00     0.142 A 
ATOM     12  O   UNL d   1     -55.259-102.022 -36.156  0.00  0.00    -0.300 OA
ATOM     13  C   UNL d   1     -56.013-101.730 -36.470  0.00  0.00     0.142 A 
ATOM     14  O   UNL d   1     -56.621-102.155 -38.964  0.00  0.00    -0.266 OA
ENDBRANCH   6   7
ENDBRANCH   5   6
ENDBRANCH   4   5
ENDBRANCH   2   4
BRANCH   1  15
ATOM     15  C   UNL d   1     -55.191-102.139 -42.611  0.00  0.00     0.197 A 
ATOM     16  N   UNL d   1     -55.514-101.379 -42.601  0.00  0.00    -0.221 NA
ATOM     17  C   UNL d   1     -55.460-101.071 -43.364  0.00  0.00     0.090 A 
ATOM     18  C   UNL d   1     -55.104-101.644 -43.839  0.00  0.00     0.058 A 
ATOM     19  S   UNL d   1     -54.941-102.295 -43.378  0.00  0.00    -0.046 SA
BRANCH  17  20
ATOM     20  C   UNL d   1     -55.713-100.334 -43.601  0.00  0.00     0.018 A 
ATOM     21  C   UNL d   1     -55.223 -99.693 -43.530  0.00  0.00     0.002 A 
ATOM     22  C   UNL d   1     -55.479 -98.948 -43.769  0.00  0.00     0.000 A 
ATOM     23  C   UNL d   1     -56.233 -98.854 -44.079  0.00  0.00     0.000 A 
ATOM     24  C   UNL d   1     -56.734 -99.505 -44.152  0.00  0.00     0.000 A 
ATOM     25  C   UNL d   1     -56.469-100.245 -43.911  0.00  0.00     0.002 A 
ENDBRANCH  17  20
ENDBRANCH   1  15
TORSDOF 6
ENDMDL
