MODEL 1
REMARK VINA RESULT:       0.8      0.000      0.000
REMARK  7 active torsions:
REMARK  status: ('A' for Active; 'I' for Inactive)
REMARK    1  A    between atoms: N_7  and  C_1 
REMARK    2  A    between atoms: N_8  and  C_4 
REMARK    3  A    between atoms: N_9  and  C_5 
REMARK    4  A    between atoms: C_14  and  N_8 
REMARK    5  A    between atoms: C_13  and  N_9 
REMARK    6  A    between atoms: C_20  and  C_14 
REMARK    7  A    between atoms: O_21  and  C_15 
ROOT
ATOM      1  C   UNL d   1      31.945  16.710 -24.379  0.00  0.00     0.201 A 
ATOM      2  N   UNL d   1      31.268  17.833 -23.907  0.00  0.00    -0.038 NA
ATOM      3  N   UNL d   1      32.553  18.012 -24.535  0.00  0.00    -0.036 NA
ATOM      4  C   UNL d   1      31.279  17.023 -24.007  0.00  0.00     0.206 A 
ATOM      5  C   UNL d   1      31.908  18.330 -24.173  0.00  0.00     0.753 A 
ATOM      6  C   UNL d   1      32.584  17.206 -24.645  0.00  0.00     0.227 A 
ATOM      7  N   UNL d   1      33.241  16.880 -25.014  0.00  0.00    -0.125 N 
ENDROOT
BRANCH   5   8
ATOM      8  N   UNL d   1      31.881  19.139 -24.065  0.00  0.00    -0.059 NA
BRANCH   8   9
ATOM      9  C   UNL d   1      32.218  19.492 -23.368  0.00  0.00     0.100 A 
ATOM     10  C   UNL d   1      32.776  20.106 -23.431  0.00  0.00     0.022 A 
ATOM     11  C   UNL d   1      33.112  20.459 -22.746  0.00  0.00     0.026 A 
ATOM     12  C   UNL d   1      32.902  20.210 -21.983  0.00  0.00     0.094 A 
ATOM     13  C   UNL d   1      32.348  19.601 -21.930  0.00  0.00     0.026 A 
ATOM     14  C   UNL d   1      32.008  19.244 -22.625  0.00  0.00     0.022 A 
BRANCH  12  15
ATOM     15  O   UNL d   1      33.240  20.564 -21.293  0.00  0.00    -0.328 OA
ATOM     16  C   UNL d   1      33.014  21.313 -21.048  0.00  0.00     0.181 C 
ENDBRANCH  12  15
ENDBRANCH   8   9
ENDBRANCH   5   8
BRANCH   4  17
ATOM     17  N   UNL d   1      30.665  16.541 -23.753  0.00  0.00    -0.223 NA
BRANCH  17  18
ATOM     18  C   UNL d   1      30.012  16.877 -23.386  0.00  0.00     0.101 C 
BRANCH  18  19
ATOM     19  C   UNL d   1      29.265  16.568 -23.520  0.00  0.00     0.019 A 
ATOM     20  C   UNL d   1      29.068  15.824 -23.229  0.00  0.00     0.002 A 
ATOM     21  C   UNL d   1      28.330  15.517 -23.361  0.00  0.00     0.000 A 
ATOM     22  C   UNL d   1      27.774  15.949 -23.787  0.00  0.00     0.000 A 
ATOM     23  C   UNL d   1      27.961  16.689 -24.081  0.00  0.00     0.000 A 
ATOM     24  C   UNL d   1      28.718  17.003 -23.945  0.00  0.00     0.002 A 
ENDBRANCH  18  19
ENDBRANCH  17  18
ENDBRANCH   4  17
BRANCH   1  25
ATOM     25  N   UNL d   1      31.970  15.875 -24.489  0.00  0.00    -0.107 N 
ATOM     26  O   UNL d   1      32.555  15.461 -24.071  0.00  0.00    -0.531 OA
ATOM     27  O   UNL d   1      31.414  15.482 -25.009  0.00  0.00    -0.531 OA
ENDBRANCH   1  25
TORSDOF 7
ENDMDL
MODEL 2
REMARK VINA RESULT:       1.1      2.771      6.239
REMARK  7 active torsions:
REMARK  status: ('A' for Active; 'I' for Inactive)
REMARK    1  A    between atoms: N_7  and  C_1 
REMARK    2  A    between atoms: N_8  and  C_4 
REMARK    3  A    between atoms: N_9  and  C_5 
REMARK    4  A    between atoms: C_14  and  N_8 
REMARK    5  A    between atoms: C_13  and  N_9 
REMARK    6  A    between atoms: C_20  and  C_14 
REMARK    7  A    between atoms: O_21  and  C_15 
ROOT
ATOM      1  C   UNL d   1      32.704  22.282 -22.308  0.00  0.00     0.201 A 
ATOM      2  N   UNL d   1      33.056  21.168 -21.547  0.00  0.00    -0.038 NA
ATOM      3  N   UNL d   1      32.880  21.008 -22.969  0.00  0.00    -0.036 NA
ATOM      4  C   UNL d   1      32.881  21.965 -21.567  0.00  0.00     0.206 A 
ATOM      5  C   UNL d   1      33.055  20.688 -22.251  0.00  0.00     0.753 A 
ATOM      6  C   UNL d   1      32.703  21.802 -23.012  0.00  0.00     0.227 A 
ATOM      7  N   UNL d   1      32.525  22.131 -23.742  0.00  0.00    -0.125 N 
ENDROOT
BRANCH   5   8
ATOM      8  N   UNL d   1      33.232  19.891 -22.213  0.00  0.00    -0.059 NA
BRANCH   8   9
ATOM      9  C   UNL d   1      32.816  19.334 -22.704  0.00  0.00     0.100 A 
ATOM     10  C   UNL d   1      33.228  18.857 -23.247  0.00  0.00     0.022 A 
ATOM     11  C   UNL d   1      32.822  18.305 -23.734  0.00  0.00     0.026 A 
ATOM     12  C   UNL d   1      31.999  18.215 -23.694  0.00  0.00     0.094 A 
ATOM     13  C   UNL d   1      31.598  18.692 -23.153  0.00  0.00     0.026 A 
ATOM     14  C   UNL d   1      32.009  19.251 -22.659  0.00  0.00     0.022 A 
BRANCH  12  15
ATOM     15  O   UNL d   1      31.590  17.659 -24.185  0.00  0.00    -0.328 OA
ATOM     16  C   UNL d   1      31.599  17.729 -25.001  0.00  0.00     0.181 C 
ENDBRANCH  12  15
ENDBRANCH   8   9
ENDBRANCH   5   8
BRANCH   4  17
ATOM     17  N   UNL d   1      32.880  22.432 -20.892  0.00  0.00    -0.223 NA
BRANCH  17  18
ATOM     18  C   UNL d   1      32.458  22.188 -20.232  0.00  0.00     0.101 C 
BRANCH  18  19
ATOM     19  C   UNL d   1      32.519  22.607 -19.531  0.00  0.00     0.019 A 
ATOM     20  C   UNL d   1      33.181  22.516 -19.050  0.00  0.00     0.002 A 
ATOM     21  C   UNL d   1      33.241  22.931 -18.357  0.00  0.00     0.000 A 
ATOM     22  C   UNL d   1      32.639  23.445 -18.131  0.00  0.00     0.000 A 
ATOM     23  C   UNL d   1      31.978  23.542 -18.601  0.00  0.00     0.000 A 
ATOM     24  C   UNL d   1      31.917  23.117 -19.313  0.00  0.00     0.002 A 
ENDBRANCH  18  19
ENDBRANCH  17  18
ENDBRANCH   4  17
BRANCH   1  25
ATOM     25  N   UNL d   1      32.522  23.103 -22.344  0.00  0.00    -0.107 N 
ATOM     26  O   UNL d   1      31.719  23.311 -22.309  0.00  0.00    -0.531 OA
ATOM     27  O   UNL d   1      33.143  23.690 -22.414  0.00  0.00    -0.531 OA
ENDBRANCH   1  25
TORSDOF 7
ENDMDL
MODEL 3
REMARK VINA RESULT:       3.0      1.656      5.287
REMARK  7 active torsions:
REMARK  status: ('A' for Active; 'I' for Inactive)
REMARK    1  A    between atoms: N_7  and  C_1 
REMARK    2  A    between atoms: N_8  and  C_4 
REMARK    3  A    between atoms: N_9  and  C_5 
REMARK    4  A    between atoms: C_14  and  N_8 
REMARK    5  A    between atoms: C_13  and  N_9 
REMARK    6  A    between atoms: C_20  and  C_14 
REMARK    7  A    between atoms: O_21  and  C_15 
ROOT
ATOM      1  C   UNL d   1      32.958  19.323 -22.441  0.00  0.00     0.201 A 
ATOM      2  N   UNL d   1      32.702  19.582 -23.786  0.00  0.00    -0.038 NA
ATOM      3  N   UNL d   1      32.694  18.215 -23.331  0.00  0.00    -0.036 NA
ATOM      4  C   UNL d   1      32.875  19.878 -23.045  0.00  0.00     0.206 A 
ATOM      5  C   UNL d   1      32.611  18.747 -23.930  0.00  0.00     0.753 A 
ATOM      6  C   UNL d   1      32.867  18.488 -22.584  0.00  0.00     0.227 A 
ATOM      7  N   UNL d   1      32.952  17.947 -21.972  0.00  0.00    -0.125 N 
ENDROOT
BRANCH   5   8
ATOM      8  N   UNL d   1      32.437  18.468 -24.678  0.00  0.00    -0.059 NA
BRANCH   8   9
ATOM      9  C   UNL d   1      31.868  17.844 -24.783  0.00  0.00     0.100 A 
ATOM     10  C   UNL d   1      32.111  17.049 -24.807  0.00  0.00     0.022 A 
ATOM     11  C   UNL d   1      31.553  16.428 -24.911  0.00  0.00     0.026 A 
ATOM     12  C   UNL d   1      30.743  16.583 -24.992  0.00  0.00     0.094 A 
ATOM     13  C   UNL d   1      30.511  17.374 -24.966  0.00  0.00     0.026 A 
ATOM     14  C   UNL d   1      31.076  18.003 -24.861  0.00  0.00     0.022 A 
BRANCH  12  15
ATOM     15  O   UNL d   1      30.181  15.958 -25.096  0.00  0.00    -0.328 OA
ATOM     16  C   UNL d   1      29.657  15.756 -24.499  0.00  0.00     0.181 C 
ENDBRANCH  12  15
ENDBRANCH   8   9
ENDBRANCH   5   8
BRANCH   4  17
ATOM     17  N   UNL d   1      32.963  20.682 -22.902  0.00  0.00    -0.223 NA
BRANCH  17  18
ATOM     18  C   UNL d   1      32.735  21.221 -23.477  0.00  0.00     0.101 C 
BRANCH  18  19
ATOM     19  C   UNL d   1      32.788  22.025 -23.325  0.00  0.00     0.019 A 
ATOM     20  C   UNL d   1      32.442  22.342 -22.648  0.00  0.00     0.002 A 
ATOM     21  C   UNL d   1      32.494  23.136 -22.498  0.00  0.00     0.000 A 
ATOM     22  C   UNL d   1      32.894  23.630 -23.021  0.00  0.00     0.000 A 
ATOM     23  C   UNL d   1      33.241  23.324 -23.696  0.00  0.00     0.000 A 
ATOM     24  C   UNL d   1      33.187  22.509 -23.850  0.00  0.00     0.002 A 
ENDBRANCH  18  19
ENDBRANCH  17  18
ENDBRANCH   4  17
BRANCH   1  25
ATOM     25  N   UNL d   1      33.137  19.613 -21.671  0.00  0.00    -0.107 N 
ATOM     26  O   UNL d   1      33.241  19.047 -21.072  0.00  0.00    -0.531 OA
ATOM     27  O   UNL d   1      33.206  20.455 -21.522  0.00  0.00    -0.531 OA
ENDBRANCH   1  25
TORSDOF 7
ENDMDL
