MODEL 1
REMARK VINA RESULT:      -4.1      0.000      0.000
REMARK  4 active torsions:
REMARK  status: ('A' for Active; 'I' for Inactive)
REMARK    1  A    between atoms: C_4  and  C_1 
REMARK    2  A    between atoms: C_13  and  N_3 
REMARK    3  A    between atoms: C_11  and  N_5 
REMARK    4  A    between atoms: C_14  and  C_11 
ROOT
ATOM      1  C   UNL d   1      57.945  -0.090  30.283  0.00  0.00     0.057 A 
ATOM      2  N   UNL d   1      58.549  -0.579  29.188  0.00  0.00    -0.272 N 
ATOM      3  C   UNL d   1      58.491   0.246  29.106  0.00  0.00     0.265 A 
ATOM      4  C   UNL d   1      58.214  -0.779  29.909  0.00  0.00     0.086 A 
ATOM      5  C   UNL d   1      58.121   0.544  29.777  0.00  0.00     0.066 A 
ATOM      6  O   UNL d   1      58.762   0.681  28.457  0.00  0.00    -0.267 OA
ENDROOT
BRANCH   1   7
ATOM      7  C   UNL d   1      57.581  -0.093  31.014  0.00  0.00     0.149 A 
ATOM      8  N   UNL d   1      56.890  -0.418  31.235  0.00  0.00    -0.227 NA
ATOM      9  C   UNL d   1      56.768  -0.265  32.039  0.00  0.00     0.099 A 
ATOM     10  C   UNL d   1      56.159  -0.466  32.544  0.00  0.00     0.021 A 
ATOM     11  C   UNL d   1      57.408   0.165  32.304  0.00  0.00     0.083 A 
ATOM     12  C   UNL d   1      56.203  -0.224  33.337  0.00  0.00     0.002 A 
ATOM     13  C   UNL d   1      56.843   0.206  33.602  0.00  0.00     0.002 A 
ATOM     14  C   UNL d   1      57.458   0.407  33.083  0.00  0.00     0.019 A 
ATOM     15  N   UNL d   1      57.917   0.273  31.661  0.00  0.00    -0.289 N 
BRANCH  15  16
ATOM     16  C   UNL d   1      58.646   0.682  31.669  0.00  0.00     0.082 C 
ATOM     17  C   UNL d   1      59.147   0.632  32.341  0.00  0.00     0.021 C 
ENDBRANCH  15  16
ENDBRANCH   1   7
BRANCH   2  18
ATOM     18  C   UNL d   1      58.887  -1.107  28.635  0.00  0.00     0.083 C 
BRANCH  18  19
ATOM     19  C   UNL d   1      59.312  -1.768  28.910  0.00  0.00     0.018 A 
ATOM     20  C   UNL d   1      60.113  -1.678  29.105  0.00  0.00     0.002 A 
ATOM     21  C   UNL d   1      60.532  -2.334  29.378  0.00  0.00     0.000 A 
ATOM     22  C   UNL d   1      60.167  -3.065  29.457  0.00  0.00     0.000 A 
ATOM     23  C   UNL d   1      59.371  -3.149  29.263  0.00  0.00     0.000 A 
ATOM     24  C   UNL d   1      58.941  -2.494  28.987  0.00  0.00     0.002 A 
ENDBRANCH  18  19
ENDBRANCH   2  18
TORSDOF 4
ENDMDL
MODEL 2
REMARK VINA RESULT:      -2.1      0.926      4.332
REMARK  4 active torsions:
REMARK  status: ('A' for Active; 'I' for Inactive)
REMARK    1  A    between atoms: C_4  and  C_1 
REMARK    2  A    between atoms: C_13  and  N_3 
REMARK    3  A    between atoms: C_11  and  N_5 
REMARK    4  A    between atoms: C_14  and  C_11 
ROOT
ATOM      1  C   UNL d   1      58.753  -0.899  29.299  0.00  0.00     0.057 A 
ATOM      2  N   UNL d   1      57.955   0.056  29.804  0.00  0.00    -0.272 N 
ATOM      3  C   UNL d   1      57.946   0.122  28.976  0.00  0.00     0.265 A 
ATOM      4  C   UNL d   1      58.450  -0.569  29.997  0.00  0.00     0.086 A 
ATOM      5  C   UNL d   1      58.435  -0.464  28.668  0.00  0.00     0.066 A 
ATOM      6  O   UNL d   1      57.515   0.682  28.547  0.00  0.00    -0.267 OA
ENDROOT
BRANCH   1   7
ATOM      7  C   UNL d   1      59.267  -1.534  29.292  0.00  0.00     0.149 A 
ATOM      8  N   UNL d   1      60.036  -1.566  29.491  0.00  0.00    -0.227 NA
ATOM      9  C   UNL d   1      60.306  -2.341  29.386  0.00  0.00     0.099 A 
ATOM     10  C   UNL d   1      61.039  -2.681  29.505  0.00  0.00     0.021 A 
ATOM     11  C   UNL d   1      59.677  -2.784  29.117  0.00  0.00     0.083 A 
ATOM     12  C   UNL d   1      61.132  -3.490  29.346  0.00  0.00     0.002 A 
ATOM     13  C   UNL d   1      60.503  -3.933  29.076  0.00  0.00     0.002 A 
ATOM     14  C   UNL d   1      59.761  -3.580  28.958  0.00  0.00     0.019 A 
ATOM     15  N   UNL d   1      59.025  -2.277  29.058  0.00  0.00    -0.289 N 
BRANCH  15  16
ATOM     16  C   UNL d   1      58.257  -2.485  28.804  0.00  0.00     0.082 C 
ATOM     17  C   UNL d   1      58.001  -3.284  28.853  0.00  0.00     0.021 C 
ENDBRANCH  15  16
ENDBRANCH   1   7
BRANCH   2  18
ATOM     18  C   UNL d   1      57.537   0.540  30.343  0.00  0.00     0.083 C 
BRANCH  18  19
ATOM     19  C   UNL d   1      57.373   0.252  31.106  0.00  0.00     0.018 A 
ATOM     20  C   UNL d   1      56.769  -0.308  31.204  0.00  0.00     0.002 A 
ATOM     21  C   UNL d   1      56.609  -0.591  31.962  0.00  0.00     0.000 A 
ATOM     22  C   UNL d   1      57.036  -0.329  32.611  0.00  0.00     0.000 A 
ATOM     23  C   UNL d   1      57.635   0.228  32.508  0.00  0.00     0.000 A 
ATOM     24  C   UNL d   1      57.804   0.519  31.750  0.00  0.00     0.002 A 
ENDBRANCH  18  19
ENDBRANCH   2  18
TORSDOF 4
ENDMDL
