MODEL 1
REMARK VINA RESULT:       8.3      0.000      0.000
REMARK  4 active torsions:
REMARK  status: ('A' for Active; 'I' for Inactive)
REMARK    1  A    between atoms: C_3  and  N_1 
REMARK       I    between atoms: C_2  and  N_5 
REMARK       I    between atoms: N_4  and  C_2 
REMARK    2  A    between atoms: C_17  and  N_4 
REMARK    3  A    between atoms: N_5  and  C_16 
REMARK    4  A    between atoms: C_8  and  C_9 
ROOT
ATOM      1  C   UNL d   1      45.732 -16.449  44.397  0.00  0.00     0.369 C 
ATOM      2  N   UNL d   1      45.752 -17.272  44.589  0.00  0.00    -0.191 NA
ATOM      3  N   UNL d   1      45.536 -15.903  44.954  0.00  0.00    -0.191 NA
ATOM      4  O   UNL d   1      45.920 -16.239  43.629  0.00  0.00    -0.242 OA
ENDROOT
BRANCH   3   5
ATOM      5  C   UNL d   1      45.527 -15.087  44.723  0.00  0.00     0.086 A 
ATOM      6  C   UNL d   1      46.236 -14.669  44.642  0.00  0.00     0.021 A 
ATOM      7  C   UNL d   1      46.243 -13.874  44.417  0.00  0.00     0.025 A 
ATOM      8  C   UNL d   1      45.516 -13.522  44.279  0.00  0.00     0.127 A 
ATOM      9  C   UNL d   1      44.773 -13.917  44.352  0.00  0.00     0.025 A 
ATOM     10  C   UNL d   1      44.815 -14.710  44.578  0.00  0.00     0.021 A 
BRANCH   8  11
ATOM     11  N   UNL d   1      45.527 -12.677  44.040  0.00  0.00    -0.114 N 
ATOM     12  O   UNL d   1      45.910 -12.131  44.525  0.00  0.00    -0.532 OA
ATOM     13  O   UNL d   1      45.157 -12.437  43.339  0.00  0.00    -0.532 OA
ENDBRANCH   8  11
ENDBRANCH   3   5
BRANCH   2  14
ATOM     14  C   UNL d   1      45.950 -17.842  44.030  0.00  0.00     0.086 A 
ATOM     15  C   UNL d   1      46.447 -18.467  44.238  0.00  0.00     0.019 A 
ATOM     16  C   UNL d   1      46.643 -19.028  43.690  0.00  0.00     0.005 A 
ATOM     17  C   UNL d   1      46.351 -18.994  42.896  0.00  0.00     0.039 A 
ATOM     18  C   UNL d   1      45.860 -18.367  42.705  0.00  0.00     0.005 A 
ATOM     19  C   UNL d   1      45.660 -17.794  43.269  0.00  0.00     0.019 A 
BRANCH  17  20
ATOM     20  C   UNL d   1      46.532 -19.537  42.336  0.00  0.00     0.196 C 
ATOM     21  O   UNL d   1      46.646 -19.313  41.572  0.00  0.00    -0.287 OA
ATOM     22  C   UNL d   1      46.603 -20.330  42.527  0.00  0.00     0.045 C 
ENDBRANCH  17  20
ENDBRANCH   2  14
TORSDOF 4
ENDMDL
MODEL 2
REMARK VINA RESULT:       8.8      0.860      5.225
REMARK  4 active torsions:
REMARK  status: ('A' for Active; 'I' for Inactive)
REMARK    1  A    between atoms: C_3  and  N_1 
REMARK       I    between atoms: C_2  and  N_5 
REMARK       I    between atoms: N_4  and  C_2 
REMARK    2  A    between atoms: C_17  and  N_4 
REMARK    3  A    between atoms: N_5  and  C_16 
REMARK    4  A    between atoms: C_8  and  C_9 
ROOT
ATOM      1  C   UNL d   1      45.860 -16.459  44.400  0.00  0.00     0.369 C 
ATOM      2  N   UNL d   1      45.697 -15.843  44.955  0.00  0.00    -0.191 NA
ATOM      3  N   UNL d   1      45.922 -17.223  44.643  0.00  0.00    -0.191 NA
ATOM      4  O   UNL d   1      45.952 -16.242  43.616  0.00  0.00    -0.242 OA
ENDROOT
BRANCH   3   5
ATOM      5  C   UNL d   1      46.087 -17.813  44.056  0.00  0.00     0.086 A 
ATOM      6  C   UNL d   1      45.962 -17.651  43.255  0.00  0.00     0.021 A 
ATOM      7  C   UNL d   1      46.119 -18.215  42.672  0.00  0.00     0.025 A 
ATOM      8  C   UNL d   1      46.403 -18.940  42.927  0.00  0.00     0.127 A 
ATOM      9  C   UNL d   1      46.542 -19.141  43.736  0.00  0.00     0.025 A 
ATOM     10  C   UNL d   1      46.372 -18.547  44.282  0.00  0.00     0.021 A 
BRANCH   8  11
ATOM     11  N   UNL d   1      46.568 -19.539  42.306  0.00  0.00    -0.114 N 
ATOM     12  O   UNL d   1      46.643 -20.330  42.524  0.00  0.00    -0.532 OA
ATOM     13  O   UNL d   1      46.647 -19.306  41.514  0.00  0.00    -0.532 OA
ENDBRANCH   8  11
ENDBRANCH   3   5
BRANCH   2  14
ATOM     14  C   UNL d   1      45.631 -15.057  44.721  0.00  0.00     0.086 A 
ATOM     15  C   UNL d   1      44.886 -14.728  44.589  0.00  0.00     0.019 A 
ATOM     16  C   UNL d   1      44.820 -13.955  44.359  0.00  0.00     0.005 A 
ATOM     17  C   UNL d   1      45.501 -13.465  44.248  0.00  0.00     0.039 A 
ATOM     18  C   UNL d   1      46.233 -13.806  44.384  0.00  0.00     0.005 A 
ATOM     19  C   UNL d   1      46.299 -14.598  44.619  0.00  0.00     0.019 A 
BRANCH  17  20
ATOM     20  C   UNL d   1      45.461 -12.698  44.021  0.00  0.00     0.196 C 
ATOM     21  O   UNL d   1      45.886 -12.136  44.408  0.00  0.00    -0.287 OA
ATOM     22  C   UNL d   1      44.988 -12.470  43.393  0.00  0.00     0.045 C 
ENDBRANCH  17  20
ENDBRANCH   2  14
TORSDOF 4
ENDMDL
