MODEL 1
REMARK VINA RESULT:      -7.7      0.000      0.000
REMARK  4 active torsions:
REMARK  status: ('A' for Active; 'I' for Inactive)
REMARK    1  A    between atoms: C_4  and  C_3 
REMARK    2  A    between atoms: S_8  and  C_5 
REMARK    3  A    between atoms: C_13  and  S_8 
REMARK    4  A    between atoms: C_14  and  C_13 
ROOT
ATOM      1  N   UNL d   1     -45.617  12.349  23.273  0.00  0.00    -0.146 NA
ATOM      2  N   UNL d   1     -46.234  12.882  23.229  0.00  0.00    -0.141 NA
ATOM      3  C   UNL d   1     -45.773  11.560  23.450  0.00  0.00     0.126 A 
ATOM      4  C   UNL d   1     -47.004  12.643  23.358  0.00  0.00     0.132 A 
ATOM      5  C   UNL d   1     -46.549  11.311  23.582  0.00  0.00     0.025 A 
ATOM      6  C   UNL d   1     -47.158  11.846  23.536  0.00  0.00     0.029 A 
ENDROOT
BRANCH   4   7
ATOM      7  S   UNL d   1     -47.624  13.184  23.313  0.00  0.00    -0.066 SA
BRANCH   7   8
ATOM      8  C   UNL d   1     -47.821  13.528  22.597  0.00  0.00     0.037 C 
BRANCH   8   9
ATOM      9  C   UNL d   1     -48.492  14.006  22.545  0.00  0.00     0.006 A 
ATOM     10  C   UNL d   1     -48.460  14.784  22.805  0.00  0.00     0.001 A 
ATOM     11  C   UNL d   1     -49.119  15.263  22.758  0.00  0.00     0.000 A 
ATOM     12  C   UNL d   1     -49.823  14.955  22.444  0.00  0.00     0.000 A 
ATOM     13  C   UNL d   1     -49.847  14.181  22.187  0.00  0.00     0.000 A 
ATOM     14  C   UNL d   1     -49.175  13.706  22.240  0.00  0.00     0.001 A 
ENDBRANCH   8   9
ENDBRANCH   7   8
ENDBRANCH   4   7
BRANCH   3  15
ATOM     15  C   UNL d   1     -45.157  11.019  23.496  0.00  0.00     0.119 A 
ATOM     16  O   UNL d   1     -44.362  11.170  23.355  0.00  0.00    -0.304 OA
ATOM     17  C   UNL d   1     -43.934  10.475  23.462  0.00  0.00     0.123 A 
ATOM     18  C   UNL d   1     -44.477   9.879  23.675  0.00  0.00     0.029 A 
ATOM     19  C   UNL d   1     -45.232  10.213  23.696  0.00  0.00     0.028 A 
ENDBRANCH   3  15
TORSDOF 4
ENDMDL
MODEL 2
REMARK VINA RESULT:      -6.7      1.585      2.110
REMARK  4 active torsions:
REMARK  status: ('A' for Active; 'I' for Inactive)
REMARK    1  A    between atoms: C_4  and  C_3 
REMARK    2  A    between atoms: S_8  and  C_5 
REMARK    3  A    between atoms: C_13  and  S_8 
REMARK    4  A    between atoms: C_14  and  C_13 
ROOT
ATOM      1  N   UNL d   1     -46.317  13.845  23.103  0.00  0.00    -0.146 NA
ATOM      2  N   UNL d   1     -47.071  14.104  23.276  0.00  0.00    -0.141 NA
ATOM      3  C   UNL d   1     -46.207  13.274  22.519  0.00  0.00     0.126 A 
ATOM      4  C   UNL d   1     -47.719  13.805  22.879  0.00  0.00     0.132 A 
ATOM      5  C   UNL d   1     -46.857  12.968  22.113  0.00  0.00     0.025 A 
ATOM      6  C   UNL d   1     -47.605  13.230  22.291  0.00  0.00     0.029 A 
ENDROOT
BRANCH   4   7
ATOM      7  S   UNL d   1     -48.479  14.069  23.057  0.00  0.00    -0.066 SA
BRANCH   7   8
ATOM      8  C   UNL d   1     -48.766  14.760  22.724  0.00  0.00     0.037 C 
BRANCH   8   9
ATOM      9  C   UNL d   1     -49.517  15.030  22.931  0.00  0.00     0.006 A 
ATOM     10  C   UNL d   1     -50.181  14.711  22.568  0.00  0.00     0.001 A 
ATOM     11  C   UNL d   1     -50.927  14.973  22.767  0.00  0.00     0.000 A 
ATOM     12  C   UNL d   1     -51.009  15.567  23.341  0.00  0.00     0.000 A 
ATOM     13  C   UNL d   1     -50.345  15.880  23.698  0.00  0.00     0.000 A 
ATOM     14  C   UNL d   1     -49.595  15.607  23.488  0.00  0.00     0.001 A 
ENDBRANCH   8   9
ENDBRANCH   7   8
ENDBRANCH   4   7
BRANCH   3  15
ATOM     15  C   UNL d   1     -45.451  13.009  22.339  0.00  0.00     0.119 A 
ATOM     16  O   UNL d   1     -45.058  12.378  22.688  0.00  0.00    -0.304 OA
ATOM     17  C   UNL d   1     -44.314  12.303  22.345  0.00  0.00     0.123 A 
ATOM     18  C   UNL d   1     -44.244  12.903  21.769  0.00  0.00     0.029 A 
ATOM     19  C   UNL d   1     -44.944  13.339  21.765  0.00  0.00     0.028 A 
ENDBRANCH   3  15
TORSDOF 4
ENDMDL
MODEL 3
REMARK VINA RESULT:      -6.2      1.830      2.173
REMARK  4 active torsions:
REMARK  status: ('A' for Active; 'I' for Inactive)
REMARK    1  A    between atoms: C_4  and  C_3 
REMARK    2  A    between atoms: S_8  and  C_5 
REMARK    3  A    between atoms: C_13  and  S_8 
REMARK    4  A    between atoms: C_14  and  C_13 
ROOT
ATOM      1  N   UNL d   1     -45.432  12.166  22.960  0.00  0.00    -0.146 NA
ATOM      2  N   UNL d   1     -46.193  12.209  23.251  0.00  0.00    -0.141 NA
ATOM      3  C   UNL d   1     -45.195  12.683  22.363  0.00  0.00     0.126 A 
ATOM      4  C   UNL d   1     -46.724  12.756  22.959  0.00  0.00     0.132 A 
ATOM      5  C   UNL d   1     -45.726  13.238  22.063  0.00  0.00     0.025 A 
ATOM      6  C   UNL d   1     -46.482  13.275  22.357  0.00  0.00     0.029 A 
ENDROOT
BRANCH   4   7
ATOM      7  S   UNL d   1     -47.492  12.795  23.255  0.00  0.00    -0.066 SA
BRANCH   7   8
ATOM      8  C   UNL d   1     -48.133  12.730  22.752  0.00  0.00     0.037 C 
BRANCH   8   9
ATOM      9  C   UNL d   1     -48.893  12.667  23.066  0.00  0.00     0.006 A 
ATOM     10  C   UNL d   1     -49.351  13.341  23.170  0.00  0.00     0.001 A 
ATOM     11  C   UNL d   1     -50.103  13.286  23.481  0.00  0.00     0.000 A 
ATOM     12  C   UNL d   1     -50.402  12.541  23.691  0.00  0.00     0.000 A 
ATOM     13  C   UNL d   1     -49.942  11.875  23.585  0.00  0.00     0.000 A 
ATOM     14  C   UNL d   1     -49.183  11.942  23.270  0.00  0.00     0.001 A 
ENDBRANCH   8   9
ENDBRANCH   7   8
ENDBRANCH   4   7
BRANCH   3  15
ATOM     15  C   UNL d   1     -44.431  12.645  22.066  0.00  0.00     0.119 A 
ATOM     16  O   UNL d   1     -43.870  12.067  22.227  0.00  0.00    -0.304 OA
ATOM     17  C   UNL d   1     -43.180  12.241  21.816  0.00  0.00     0.123 A 
ATOM     18  C   UNL d   1     -43.314  12.945  21.389  0.00  0.00     0.029 A 
ATOM     19  C   UNL d   1     -44.086  13.195  21.542  0.00  0.00     0.028 A 
ENDBRANCH   3  15
TORSDOF 4
ENDMDL
MODEL 4
REMARK VINA RESULT:      -5.9      2.223      5.090
REMARK  4 active torsions:
REMARK  status: ('A' for Active; 'I' for Inactive)
REMARK    1  A    between atoms: C_4  and  C_3 
REMARK    2  A    between atoms: S_8  and  C_5 
REMARK    3  A    between atoms: C_13  and  S_8 
REMARK    4  A    between atoms: C_14  and  C_13 
ROOT
ATOM      1  N   UNL d   1     -48.816  13.901  23.295  0.00  0.00    -0.146 NA
ATOM      2  N   UNL d   1     -48.051  13.621  23.243  0.00  0.00    -0.141 NA
ATOM      3  C   UNL d   1     -48.994  14.652  23.006  0.00  0.00     0.126 A 
ATOM      4  C   UNL d   1     -47.460  14.074  22.911  0.00  0.00     0.132 A 
ATOM      5  C   UNL d   1     -48.401  15.116  22.669  0.00  0.00     0.025 A 
ATOM      6  C   UNL d   1     -47.643  14.831  22.621  0.00  0.00     0.029 A 
ENDROOT
BRANCH   4   7
ATOM      7  S   UNL d   1     -46.689  13.788  22.861  0.00  0.00    -0.066 SA
BRANCH   7   8
ATOM      8  C   UNL d   1     -46.506  13.180  22.345  0.00  0.00     0.037 C 
BRANCH   8   9
ATOM      9  C   UNL d   1     -45.735  12.887  22.317  0.00  0.00     0.006 A 
ATOM     10  C   UNL d   1     -45.186  13.229  21.812  0.00  0.00     0.001 A 
ATOM     11  C   UNL d   1     -44.421  12.945  21.779  0.00  0.00     0.000 A 
ATOM     12  C   UNL d   1     -44.205  12.306  22.262  0.00  0.00     0.000 A 
ATOM     13  C   UNL d   1     -44.756  11.971  22.763  0.00  0.00     0.000 A 
ATOM     14  C   UNL d   1     -45.526  12.266  22.787  0.00  0.00     0.001 A 
ENDBRANCH   8   9
ENDBRANCH   7   8
ENDBRANCH   4   7
BRANCH   3  15
ATOM     15  C   UNL d   1     -49.761  14.940  23.054  0.00  0.00     0.119 A 
ATOM     16  O   UNL d   1     -50.399  14.715  22.587  0.00  0.00    -0.304 OA
ATOM     17  C   UNL d   1     -51.064  15.140  22.820  0.00  0.00     0.123 A 
ATOM     18  C   UNL d   1     -50.834  15.640  23.447  0.00  0.00     0.029 A 
ATOM     19  C   UNL d   1     -50.031  15.518  23.592  0.00  0.00     0.028 A 
ENDBRANCH   3  15
TORSDOF 4
ENDMDL
MODEL 5
REMARK VINA RESULT:      -5.2      7.864      8.447
REMARK  4 active torsions:
REMARK  status: ('A' for Active; 'I' for Inactive)
REMARK    1  A    between atoms: C_4  and  C_3 
REMARK    2  A    between atoms: S_8  and  C_5 
REMARK    3  A    between atoms: C_13  and  S_8 
REMARK    4  A    between atoms: C_14  and  C_13 
ROOT
ATOM      1  N   UNL d   1     -38.745  14.636  20.969  0.00  0.00    -0.146 NA
ATOM      2  N   UNL d   1     -39.042  14.900  20.256  0.00  0.00    -0.141 NA
ATOM      3  C   UNL d   1     -39.266  14.407  21.566  0.00  0.00     0.126 A 
ATOM      4  C   UNL d   1     -39.846  14.940  20.125  0.00  0.00     0.132 A 
ATOM      5  C   UNL d   1     -40.080  14.445  21.441  0.00  0.00     0.025 A 
ATOM      6  C   UNL d   1     -40.368  14.708  20.729  0.00  0.00     0.029 A 
ENDROOT
BRANCH   4   7
ATOM      7  S   UNL d   1     -40.142  15.206  19.404  0.00  0.00    -0.066 SA
BRANCH   7   8
ATOM      8  C   UNL d   1     -40.314  14.675  18.805  0.00  0.00     0.037 C 
BRANCH   8   9
ATOM      9  C   UNL d   1     -40.464  14.954  18.044  0.00  0.00     0.006 A 
ATOM     10  C   UNL d   1     -40.012  14.684  17.413  0.00  0.00     0.001 A 
ATOM     11  C   UNL d   1     -40.154  14.955  16.657  0.00  0.00     0.000 A 
ATOM     12  C   UNL d   1     -40.761  15.507  16.531  0.00  0.00     0.000 A 
ATOM     13  C   UNL d   1     -41.207  15.771  17.162  0.00  0.00     0.000 A 
ATOM     14  C   UNL d   1     -41.054  15.490  17.923  0.00  0.00     0.001 A 
ENDBRANCH   8   9
ENDBRANCH   7   8
ENDBRANCH   4   7
BRANCH   3  15
ATOM     15  C   UNL d   1     -38.974  14.141  22.286  0.00  0.00     0.119 A 
ATOM     16  O   UNL d   1     -38.805  14.600  22.946  0.00  0.00    -0.304 OA
ATOM     17  C   UNL d   1     -38.525  14.113  23.547  0.00  0.00     0.123 A 
ATOM     18  C   UNL d   1     -38.520  13.332  23.252  0.00  0.00     0.029 A 
ATOM     19  C   UNL d   1     -38.797  13.348  22.475  0.00  0.00     0.028 A 
ENDBRANCH   3  15
TORSDOF 4
ENDMDL
MODEL 6
REMARK VINA RESULT:      -4.9      8.736      9.821
REMARK  4 active torsions:
REMARK  status: ('A' for Active; 'I' for Inactive)
REMARK    1  A    between atoms: C_4  and  C_3 
REMARK    2  A    between atoms: S_8  and  C_5 
REMARK    3  A    between atoms: C_13  and  S_8 
REMARK    4  A    between atoms: C_14  and  C_13 
ROOT
ATOM      1  N   UNL d   1     -39.576  14.414  16.915  0.00  0.00    -0.146 NA
ATOM      2  N   UNL d   1     -39.919  14.682  17.606  0.00  0.00    -0.141 NA
ATOM      3  C   UNL d   1     -38.835  14.697  16.694  0.00  0.00     0.126 A 
ATOM      4  C   UNL d   1     -39.538  15.225  18.080  0.00  0.00     0.132 A 
ATOM      5  C   UNL d   1     -38.444  15.247  17.168  0.00  0.00     0.025 A 
ATOM      6  C   UNL d   1     -38.791  15.509  17.854  0.00  0.00     0.029 A 
ENDROOT
BRANCH   4   7
ATOM      7  S   UNL d   1     -39.888  15.493  18.777  0.00  0.00    -0.066 SA
BRANCH   7   8
ATOM      8  C   UNL d   1     -40.163  14.959  19.333  0.00  0.00     0.037 C 
BRANCH   8   9
ATOM      9  C   UNL d   1     -40.316  15.214  20.102  0.00  0.00     0.006 A 
ATOM     10  C   UNL d   1     -39.804  15.009  20.711  0.00  0.00     0.001 A 
ATOM     11  C   UNL d   1     -39.949  15.258  21.474  0.00  0.00     0.000 A 
ATOM     12  C   UNL d   1     -40.619  15.722  21.630  0.00  0.00     0.000 A 
ATOM     13  C   UNL d   1     -41.124  15.922  21.020  0.00  0.00     0.000 A 
ATOM     14  C   UNL d   1     -40.968  15.664  20.252  0.00  0.00     0.001 A 
ENDBRANCH   8   9
ENDBRANCH   7   8
ENDBRANCH   4   7
BRANCH   3  15
ATOM     15  C   UNL d   1     -38.484  14.433  16.000  0.00  0.00     0.119 A 
ATOM     16  O   UNL d   1     -38.276  14.891  15.351  0.00  0.00    -0.304 OA
ATOM     17  C   UNL d   1     -37.940  14.406  14.777  0.00  0.00     0.123 A 
ATOM     18  C   UNL d   1     -37.940  13.628  15.078  0.00  0.00     0.029 A 
ATOM     19  C   UNL d   1     -38.275  13.643  15.832  0.00  0.00     0.028 A 
ENDBRANCH   3  15
TORSDOF 4
ENDMDL
