MODEL 1
REMARK VINA RESULT:      15.1      0.000      0.000
REMARK  6 active torsions:
REMARK  status: ('A' for Active; 'I' for Inactive)
REMARK    1  A    between atoms: N_2  and  S_1 
REMARK    2  A    between atoms: C_3  and  S_1 
REMARK    3  A    between atoms: C_8  and  N_2 
REMARK    4  A    between atoms: C_6  and  O_7 
REMARK    5  A    between atoms: O_7  and  C_13 
REMARK    6  A    between atoms: O_16  and  C_10 
ROOT
ATOM      1  C   UNL d   1      45.461 -15.525  44.907  0.00  0.00     0.105 A 
ATOM      2  C   UNL d   1      46.262 -15.687  44.902  0.00  0.00     0.015 A 
ATOM      3  C   UNL d   1      44.912 -16.144  44.890  0.00  0.00     0.015 A 
ATOM      4  C   UNL d   1      45.972 -17.083  44.862  0.00  0.00     0.100 A 
ATOM      5  C   UNL d   1      45.171 -16.920  44.867  0.00  0.00     0.025 A 
ATOM      6  C   UNL d   1      46.521 -16.463  44.879  0.00  0.00     0.025 A 
ENDROOT
BRANCH   1   7
ATOM      7  S   UNL d   1      45.207 -14.737  44.930  0.00  0.00     0.285 S 
ATOM      8  O   UNL d   1      44.400 -14.563  44.932  0.00  0.00    -0.198 OA
ATOM      9  O   UNL d   1      45.763 -14.129  44.951  0.00  0.00    -0.198 OA
BRANCH   7  10
ATOM     10  N   UNL d   1      45.160 -13.910  44.955  0.00  0.00    -0.157 NA
BRANCH  10  11
ATOM     11  C   UNL d   1      45.190 -13.474  44.245  0.00  0.00     0.113 A 
ATOM     12  C   UNL d   1      45.875 -13.060  44.046  0.00  0.00     0.119 A 
ATOM     13  N   UNL d   1      45.906 -12.624  43.337  0.00  0.00    -0.241 NA
ATOM     14  C   UNL d   1      45.244 -12.610  42.833  0.00  0.00     0.099 A 
ATOM     15  C   UNL d   1      44.556 -13.029  43.037  0.00  0.00     0.022 A 
ATOM     16  C   UNL d   1      44.535 -13.459  43.745  0.00  0.00     0.023 A 
ENDBRANCH  10  11
ENDBRANCH   7  10
ENDBRANCH   1   7
BRANCH   4  17
ATOM     17  O   UNL d   1      46.236 -17.870  44.839  0.00  0.00    -0.305 OA
BRANCH  17  18
ATOM     18  C   UNL d   1      46.295 -18.272  44.117  0.00  0.00     0.122 A 
ATOM     19  C   UNL d   1      46.466 -19.076  44.110  0.00  0.00     0.117 A 
ATOM     20  C   UNL d   1      46.524 -19.475  43.390  0.00  0.00     0.026 A 
ATOM     21  C   UNL d   1      46.411 -19.071  42.686  0.00  0.00     0.002 A 
ATOM     22  C   UNL d   1      46.239 -18.263  42.695  0.00  0.00     0.002 A 
ATOM     23  C   UNL d   1      46.181 -17.864  43.414  0.00  0.00     0.027 A 
BRANCH  19  24
ATOM     24  O   UNL d   1      46.578 -19.472  44.818  0.00  0.00    -0.326 OA
ATOM     25  C   UNL d   1      46.645 -20.283  44.832  0.00  0.00     0.181 C 
ENDBRANCH  19  24
ENDBRANCH  17  18
ENDBRANCH   4  17
TORSDOF 6
ENDMDL
