MODEL 1
REMARK VINA RESULT:       3.8      0.000      0.000
REMARK  0 active torsions:
REMARK  status: ('A' for Active; 'I' for Inactive)
ROOT
ATOM      1  C   UNL d   1     -52.360  23.885  33.312  0.00  0.00     0.286 A 
ATOM      2  N   UNL d   1     -51.948  23.207  33.309  0.00  0.00    -0.170 NA
ATOM      3  C   UNL d   1     -51.824  24.509  33.312  0.00  0.00     0.066 A 
ATOM      4  S   UNL d   1     -51.148  23.354  33.306  0.00  0.00     0.017 SA
ATOM      5  C   UNL d   1     -51.052  24.170  33.308  0.00  0.00     0.052 A 
ATOM      6  O   UNL d   1     -53.174  23.962  33.315  0.00  0.00    -0.265 OA
ATOM      7  C   UNL d   1     -51.920  25.324  33.314  0.00  0.00     0.005 A 
ATOM      8  C   UNL d   1     -50.388  24.651  33.306  0.00  0.00     0.008 A 
ATOM      9  C   UNL d   1     -51.252  25.813  33.312  0.00  0.00     0.000 A 
ATOM     10  C   UNL d   1     -50.480  25.475  33.309  0.00  0.00     0.001 A 
ENDROOT
TORSDOF 0
ENDMDL
