MODEL 1
REMARK VINA RESULT:      -3.0      0.000      0.000
REMARK  4 active torsions:
REMARK  status: ('A' for Active; 'I' for Inactive)
REMARK    1  A    between atoms: C_6  and  C_1 
REMARK       I    between atoms: N_8  and  C_6 
REMARK    2  A    between atoms: C_17  and  N_8 
REMARK    3  A    between atoms: C_9  and  C_17 
REMARK    4  A    between atoms: O_18  and  C_12 
ROOT
ATOM      1  C   UNL d   1      31.573  17.141 -24.106  0.00  0.00     0.121 A 
ATOM      2  C   UNL d   1      31.381  16.475 -23.677  0.00  0.00     0.305 A 
ATOM      3  O   UNL d   1      30.606  16.176 -23.690  0.00  0.00    -0.271 OA
ATOM      4  C   UNL d   1      31.002  17.528 -24.559  0.00  0.00     0.012 A 
ATOM      5  C   UNL d   1      30.035  16.564 -24.143  0.00  0.00     0.125 A 
ATOM      6  C   UNL d   1      30.227  17.229 -24.572  0.00  0.00     0.025 A 
ATOM      7  O   UNL d   1      31.960  16.087 -23.221  0.00  0.00    -0.259 OA
ATOM      8  C   UNL d   1      29.272  16.271 -24.157  0.00  0.00     0.117 A 
ATOM      9  C   UNL d   1      29.661  17.617 -25.024  0.00  0.00     0.002 A 
ATOM     10  C   UNL d   1      28.882  17.328 -25.045  0.00  0.00     0.002 A 
ATOM     11  C   UNL d   1      28.686  16.653 -24.610  0.00  0.00     0.026 A 
ENDROOT
BRANCH   1  12
ATOM     12  C   UNL d   1      32.346  17.422 -24.081  0.00  0.00     0.284 C 
ATOM     13  N   UNL d   1      32.756  18.011 -23.677  0.00  0.00    -0.204 NA
ATOM     14  O   UNL d   1      32.930  17.074 -24.561  0.00  0.00    -0.265 OA
BRANCH  13  15
ATOM     15  C   UNL d   1      32.351  18.486 -23.136  0.00  0.00     0.127 C 
BRANCH  15  16
ATOM     16  C   UNL d   1      32.689  19.190 -22.857  0.00  0.00     0.119 A 
ATOM     17  O   UNL d   1      32.952  19.817 -23.318  0.00  0.00    -0.304 OA
ATOM     18  C   UNL d   1      33.241  20.386 -22.809  0.00  0.00     0.123 A 
ATOM     19  C   UNL d   1      33.154  20.105 -22.033  0.00  0.00     0.029 A 
ATOM     20  C   UNL d   1      32.815  19.369 -22.062  0.00  0.00     0.028 A 
ENDBRANCH  15  16
ENDBRANCH  13  15
ENDBRANCH   1  12
BRANCH   8  21
ATOM     21  O   UNL d   1      29.078  15.602 -23.726  0.00  0.00    -0.326 OA
ATOM     22  C   UNL d   1      28.300  15.453 -23.517  0.00  0.00     0.181 C 
ENDBRANCH   8  21
TORSDOF 4
ENDMDL
MODEL 2
REMARK VINA RESULT:      -2.8      1.335      2.133
REMARK  4 active torsions:
REMARK  status: ('A' for Active; 'I' for Inactive)
REMARK    1  A    between atoms: C_6  and  C_1 
REMARK       I    between atoms: N_8  and  C_6 
REMARK    2  A    between atoms: C_17  and  N_8 
REMARK    3  A    between atoms: C_9  and  C_17 
REMARK    4  A    between atoms: O_18  and  C_12 
ROOT
ATOM      1  C   UNL d   1      32.472  18.223 -23.957  0.00  0.00     0.121 A 
ATOM      2  C   UNL d   1      31.735  18.217 -24.306  0.00  0.00     0.305 A 
ATOM      3  O   UNL d   1      31.271  17.529 -24.295  0.00  0.00    -0.271 OA
ATOM      4  C   UNL d   1      32.767  17.546 -23.588  0.00  0.00     0.012 A 
ATOM      5  C   UNL d   1      31.566  16.852 -23.925  0.00  0.00     0.125 A 
ATOM      6  C   UNL d   1      32.302  16.858 -23.577  0.00  0.00     0.025 A 
ATOM      7  O   UNL d   1      31.441  18.902 -24.678  0.00  0.00    -0.259 OA
ATOM      8  C   UNL d   1      31.109  16.174 -23.914  0.00  0.00     0.117 A 
ATOM      9  C   UNL d   1      32.598  16.186 -23.209  0.00  0.00     0.002 A 
ATOM     10  C   UNL d   1      32.143  15.490 -23.190  0.00  0.00     0.002 A 
ATOM     11  C   UNL d   1      31.396  15.485 -23.544  0.00  0.00     0.026 A 
ENDROOT
BRANCH   1  12
ATOM     12  C   UNL d   1      32.918  18.913 -23.978  0.00  0.00     0.284 C 
ATOM     13  N   UNL d   1      33.167  19.483 -23.437  0.00  0.00    -0.204 NA
ATOM     14  O   UNL d   1      33.240  19.178 -24.699  0.00  0.00    -0.265 OA
BRANCH  13  15
ATOM     15  C   UNL d   1      32.951  19.406 -22.643  0.00  0.00     0.127 C 
BRANCH  15  16
ATOM     16  C   UNL d   1      33.059  20.036 -22.115  0.00  0.00     0.119 A 
ATOM     17  O   UNL d   1      33.090  20.833 -22.311  0.00  0.00    -0.304 OA
ATOM     18  C   UNL d   1      33.203  21.248 -21.617  0.00  0.00     0.123 A 
ATOM     19  C   UNL d   1      33.241  20.701 -20.993  0.00  0.00     0.029 A 
ATOM     20  C   UNL d   1      33.152  19.955 -21.300  0.00  0.00     0.028 A 
ENDBRANCH  15  16
ENDBRANCH  13  15
ENDBRANCH   1  12
BRANCH   8  21
ATOM     21  O   UNL d   1      30.369  16.168 -24.264  0.00  0.00    -0.326 OA
ATOM     22  C   UNL d   1      29.968  15.463 -24.376  0.00  0.00     0.181 C 
ENDBRANCH   8  21
TORSDOF 4
ENDMDL
MODEL 3
REMARK VINA RESULT:      -2.2      1.024      4.631
REMARK  4 active torsions:
REMARK  status: ('A' for Active; 'I' for Inactive)
REMARK    1  A    between atoms: C_6  and  C_1 
REMARK       I    between atoms: N_8  and  C_6 
REMARK    2  A    between atoms: C_17  and  N_8 
REMARK    3  A    between atoms: C_9  and  C_17 
REMARK    4  A    between atoms: O_18  and  C_12 
ROOT
ATOM      1  C   UNL d   1      32.814  18.584 -23.892  0.00  0.00     0.121 A 
ATOM      2  C   UNL d   1      32.813  19.349 -24.172  0.00  0.00     0.305 A 
ATOM      3  O   UNL d   1      32.920  19.987 -23.652  0.00  0.00    -0.271 OA
ATOM      4  C   UNL d   1      32.920  18.432 -23.087  0.00  0.00     0.012 A 
ATOM      5  C   UNL d   1      33.027  19.835 -22.848  0.00  0.00     0.125 A 
ATOM      6  C   UNL d   1      33.027  19.070 -22.567  0.00  0.00     0.025 A 
ATOM      7  O   UNL d   1      32.706  19.498 -24.984  0.00  0.00    -0.259 OA
ATOM      8  C   UNL d   1      33.132  20.462 -22.334  0.00  0.00     0.117 A 
ATOM      9  C   UNL d   1      33.133  18.916 -21.767  0.00  0.00     0.002 A 
ATOM     10  C   UNL d   1      33.241  19.546 -21.236  0.00  0.00     0.002 A 
ATOM     11  C   UNL d   1      33.241  20.322 -21.520  0.00  0.00     0.026 A 
ENDROOT
BRANCH   1  12
ATOM     12  C   UNL d   1      32.707  17.964 -24.421  0.00  0.00     0.284 C 
ATOM     13  N   UNL d   1      32.174  17.341 -24.516  0.00  0.00    -0.204 NA
ATOM     14  O   UNL d   1      33.231  17.869 -25.061  0.00  0.00    -0.265 OA
BRANCH  13  15
ATOM     15  C   UNL d   1      31.558  17.252 -23.974  0.00  0.00     0.127 C 
BRANCH  15  16
ATOM     16  C   UNL d   1      30.986  16.662 -24.080  0.00  0.00     0.119 A 
ATOM     17  O   UNL d   1      31.131  15.864 -24.210  0.00  0.00    -0.304 OA
ATOM     18  C   UNL d   1      30.406  15.495 -24.282  0.00  0.00     0.123 A 
ATOM     19  C   UNL d   1      29.815  16.071 -24.194  0.00  0.00     0.029 A 
ATOM     20  C   UNL d   1      30.172  16.789 -24.070  0.00  0.00     0.028 A 
ENDBRANCH  15  16
ENDBRANCH  13  15
ENDBRANCH   1  12
BRANCH   8  21
ATOM     21  O   UNL d   1      33.132  21.231 -22.617  0.00  0.00    -0.326 OA
ATOM     22  C   UNL d   1      33.222  21.863 -22.103  0.00  0.00     0.181 C 
ENDBRANCH   8  21
TORSDOF 4
ENDMDL
MODEL 4
REMARK VINA RESULT:      -1.3      1.195      4.440
REMARK  4 active torsions:
REMARK  status: ('A' for Active; 'I' for Inactive)
REMARK    1  A    between atoms: C_6  and  C_1 
REMARK       I    between atoms: N_8  and  C_6 
REMARK    2  A    between atoms: C_17  and  N_8 
REMARK    3  A    between atoms: C_9  and  C_17 
REMARK    4  A    between atoms: O_18  and  C_12 
ROOT
ATOM      1  C   UNL d   1      32.742  18.410 -23.376  0.00  0.00     0.121 A 
ATOM      2  C   UNL d   1      32.861  18.291 -22.579  0.00  0.00     0.305 A 
ATOM      3  O   UNL d   1      32.988  18.936 -22.072  0.00  0.00    -0.271 OA
ATOM      4  C   UNL d   1      32.746  19.174 -23.692  0.00  0.00     0.012 A 
ATOM      5  C   UNL d   1      32.992  19.699 -22.387  0.00  0.00     0.125 A 
ATOM      6  C   UNL d   1      32.873  19.818 -23.185  0.00  0.00     0.025 A 
ATOM      7  O   UNL d   1      32.856  17.520 -22.264  0.00  0.00    -0.259 OA
ATOM      8  C   UNL d   1      33.116  20.335 -21.890  0.00  0.00     0.117 A 
ATOM      9  C   UNL d   1      32.876  20.577 -23.501  0.00  0.00     0.002 A 
ATOM     10  C   UNL d   1      33.002  21.231 -23.005  0.00  0.00     0.002 A 
ATOM     11  C   UNL d   1      33.122  21.110 -22.196  0.00  0.00     0.026 A 
ENDROOT
BRANCH   1  12
ATOM     12  C   UNL d   1      32.618  17.759 -23.863  0.00  0.00     0.284 C 
ATOM     13  N   UNL d   1      31.991  17.448 -24.300  0.00  0.00    -0.204 NA
ATOM     14  O   UNL d   1      33.238  17.223 -24.005  0.00  0.00    -0.265 OA
BRANCH  13  15
ATOM     15  C   UNL d   1      31.264  17.839 -24.296  0.00  0.00     0.127 C 
BRANCH  15  16
ATOM     16  C   UNL d   1      30.580  17.459 -24.570  0.00  0.00     0.119 A 
ATOM     17  O   UNL d   1      29.920  17.825 -24.894  0.00  0.00    -0.304 OA
ATOM     18  C   UNL d   1      29.386  17.236 -25.083  0.00  0.00     0.123 A 
ATOM     19  C   UNL d   1      29.723  16.507 -24.873  0.00  0.00     0.029 A 
ATOM     20  C   UNL d   1      30.457  16.644 -24.557  0.00  0.00     0.028 A 
ENDBRANCH  15  16
ENDBRANCH  13  15
ENDBRANCH   1  12
BRANCH   8  21
ATOM     21  O   UNL d   1      33.236  20.215 -21.088  0.00  0.00    -0.326 OA
ATOM     22  C   UNL d   1      33.231  20.848 -20.568  0.00  0.00     0.181 C 
ENDBRANCH   8  21
TORSDOF 4
ENDMDL
MODEL 5
REMARK VINA RESULT:      -1.0      1.823      5.272
REMARK  4 active torsions:
REMARK  status: ('A' for Active; 'I' for Inactive)
REMARK    1  A    between atoms: C_6  and  C_1 
REMARK       I    between atoms: N_8  and  C_6 
REMARK    2  A    between atoms: C_17  and  N_8 
REMARK    3  A    between atoms: C_9  and  C_17 
REMARK    4  A    between atoms: O_18  and  C_12 
ROOT
ATOM      1  C   UNL d   1      32.962  20.051 -22.251  0.00  0.00     0.121 A 
ATOM      2  C   UNL d   1      32.821  20.423 -21.540  0.00  0.00     0.305 A 
ATOM      3  O   UNL d   1      32.817  21.251 -21.492  0.00  0.00    -0.271 OA
ATOM      4  C   UNL d   1      33.104  20.493 -22.935  0.00  0.00     0.012 A 
ATOM      5  C   UNL d   1      32.959  21.693 -22.175  0.00  0.00     0.125 A 
ATOM      6  C   UNL d   1      33.100  21.321 -22.887  0.00  0.00     0.025 A 
ATOM      7  O   UNL d   1      32.679  19.974 -20.853  0.00  0.00    -0.259 OA
ATOM      8  C   UNL d   1      32.956  22.509 -22.130  0.00  0.00     0.117 A 
ATOM      9  C   UNL d   1      33.241  21.758 -23.568  0.00  0.00     0.002 A 
ATOM     10  C   UNL d   1      33.240  22.589 -23.534  0.00  0.00     0.002 A 
ATOM     11  C   UNL d   1      33.097  22.966 -22.812  0.00  0.00     0.026 A 
ENDROOT
BRANCH   1  12
ATOM     12  C   UNL d   1      32.962  19.229 -22.279  0.00  0.00     0.284 C 
ATOM     13  N   UNL d   1      32.743  18.648 -22.822  0.00  0.00    -0.204 NA
ATOM     14  O   UNL d   1      33.241  18.792 -21.629  0.00  0.00    -0.265 OA
BRANCH  13  15
ATOM     15  C   UNL d   1      32.433  18.875 -23.552  0.00  0.00     0.127 C 
BRANCH  15  16
ATOM     16  C   UNL d   1      32.068  18.319 -24.047  0.00  0.00     0.119 A 
ATOM     17  O   UNL d   1      31.380  17.901 -23.880  0.00  0.00    -0.304 OA
ATOM     18  C   UNL d   1      31.229  17.420 -24.522  0.00  0.00     0.123 A 
ATOM     19  C   UNL d   1      31.828  17.544 -25.083  0.00  0.00     0.029 A 
ATOM     20  C   UNL d   1      32.344  18.097 -24.791  0.00  0.00     0.028 A 
ENDBRANCH  15  16
ENDBRANCH  13  15
ENDBRANCH   1  12
BRANCH   8  21
ATOM     21  O   UNL d   1      32.814  22.882 -21.415  0.00  0.00    -0.326 OA
ATOM     22  C   UNL d   1      32.733  23.697 -21.380  0.00  0.00     0.181 C 
ENDBRANCH   8  21
TORSDOF 4
ENDMDL
