MODEL 1
REMARK VINA RESULT:      -6.9      0.000      0.000
REMARK  4 active torsions:
REMARK  status: ('A' for Active; 'I' for Inactive)
REMARK    1  A    between atoms: C_6  and  C_1 
REMARK    2  A    between atoms: C_7  and  C_2 
REMARK    3  A    between atoms: O_10  and  C_6 
REMARK    4  A    between atoms: C_13  and  O_10 
ROOT
ATOM      1  C   UNL d   1     -48.219  14.005  22.782  0.00  0.00     0.113 A 
ATOM      2  C   UNL d   1     -48.154  13.172  22.918  0.00  0.00     0.095 A 
ATOM      3  N   UNL d   1     -47.335  12.991  23.006  0.00  0.00    -0.219 NA
ATOM      4  S   UNL d   1     -47.461  14.330  22.787  0.00  0.00    -0.040 SA
ATOM      5  C   UNL d   1     -46.939  13.697  22.924  0.00  0.00     0.215 A 
ATOM      6  N   UNL d   1     -46.119  13.805  22.967  0.00  0.00    -0.120 N 
ENDROOT
BRANCH   2   7
ATOM      7  C   UNL d   1     -48.832  12.710  22.940  0.00  0.00     0.018 A 
ATOM      8  C   UNL d   1     -49.165  12.514  23.676  0.00  0.00     0.002 A 
ATOM      9  C   UNL d   1     -49.854  12.043  23.691  0.00  0.00     0.000 A 
ATOM     10  C   UNL d   1     -50.196  11.780  23.006  0.00  0.00     0.000 A 
ATOM     11  C   UNL d   1     -49.853  11.982  22.259  0.00  0.00     0.000 A 
ATOM     12  C   UNL d   1     -49.171  12.448  22.247  0.00  0.00     0.002 A 
ENDBRANCH   2   7
BRANCH   1  13
ATOM     13  C   UNL d   1     -48.888  14.427  22.667  0.00  0.00     0.308 C 
ATOM     14  O   UNL d   1     -49.256  14.423  21.938  0.00  0.00    -0.258 OA
BRANCH  13  15
ATOM     15  O   UNL d   1     -49.198  14.852  23.259  0.00  0.00    -0.271 OA
BRANCH  15  16
ATOM     16  C   UNL d   1     -49.629  15.544  23.125  0.00  0.00     0.126 C 
ATOM     17  C   UNL d   1     -50.073  15.912  23.698  0.00  0.00     0.029 C 
ENDBRANCH  15  16
ENDBRANCH  13  15
ENDBRANCH   1  13
TORSDOF 4
ENDMDL
MODEL 2
REMARK VINA RESULT:      -6.5      1.291      2.411
REMARK  4 active torsions:
REMARK  status: ('A' for Active; 'I' for Inactive)
REMARK    1  A    between atoms: C_6  and  C_1 
REMARK    2  A    between atoms: C_7  and  C_2 
REMARK    3  A    between atoms: O_10  and  C_6 
REMARK    4  A    between atoms: C_13  and  O_10 
ROOT
ATOM      1  C   UNL d   1     -49.191  13.213  23.017  0.00  0.00     0.113 A 
ATOM      2  C   UNL d   1     -48.512  12.714  23.088  0.00  0.00     0.095 A 
ATOM      3  N   UNL d   1     -48.776  11.961  23.359  0.00  0.00    -0.219 NA
ATOM      4  S   UNL d   1     -49.857  12.781  23.239  0.00  0.00    -0.040 SA
ATOM      5  C   UNL d   1     -49.583  12.023  23.443  0.00  0.00     0.215 A 
ATOM      6  N   UNL d   1     -50.095  11.424  23.698  0.00  0.00    -0.120 N 
ENDROOT
BRANCH   2   7
ATOM      7  C   UNL d   1     -47.769  13.009  22.899  0.00  0.00     0.018 A 
ATOM      8  C   UNL d   1     -47.295  13.329  23.501  0.00  0.00     0.002 A 
ATOM      9  C   UNL d   1     -46.541  13.627  23.303  0.00  0.00     0.000 A 
ATOM     10  C   UNL d   1     -46.271  13.606  22.539  0.00  0.00     0.000 A 
ATOM     11  C   UNL d   1     -46.758  13.278  21.930  0.00  0.00     0.000 A 
ATOM     12  C   UNL d   1     -47.503  12.985  22.130  0.00  0.00     0.002 A 
ENDBRANCH   2   7
BRANCH   1  13
ATOM     13  C   UNL d   1     -49.210  13.976  22.779  0.00  0.00     0.308 C 
ATOM     14  O   UNL d   1     -49.125  14.162  21.988  0.00  0.00    -0.258 OA
BRANCH  13  15
ATOM     15  O   UNL d   1     -49.312  14.557  23.308  0.00  0.00    -0.271 OA
BRANCH  15  16
ATOM     16  C   UNL d   1     -49.693  15.264  23.117  0.00  0.00     0.126 C 
ATOM     17  C   UNL d   1     -49.897  15.825  23.669  0.00  0.00     0.029 C 
ENDBRANCH  15  16
ENDBRANCH  13  15
ENDBRANCH   1  13
TORSDOF 4
ENDMDL
MODEL 3
REMARK VINA RESULT:      -6.3      1.505      2.832
REMARK  4 active torsions:
REMARK  status: ('A' for Active; 'I' for Inactive)
REMARK    1  A    between atoms: C_6  and  C_1 
REMARK    2  A    between atoms: C_7  and  C_2 
REMARK    3  A    between atoms: O_10  and  C_6 
REMARK    4  A    between atoms: C_13  and  O_10 
ROOT
ATOM      1  C   UNL d   1     -49.050  13.879  22.740  0.00  0.00     0.113 A 
ATOM      2  C   UNL d   1     -48.314  14.288  22.820  0.00  0.00     0.095 A 
ATOM      3  N   UNL d   1     -48.487  15.103  22.948  0.00  0.00    -0.219 NA
ATOM      4  S   UNL d   1     -49.662  14.425  22.818  0.00  0.00    -0.040 SA
ATOM      5  C   UNL d   1     -49.299  15.163  22.944  0.00  0.00     0.215 A 
ATOM      6  N   UNL d   1     -49.738  15.857  23.048  0.00  0.00    -0.120 N 
ENDROOT
BRANCH   2   7
ATOM      7  C   UNL d   1     -47.608  13.871  22.765  0.00  0.00     0.018 A 
ATOM      8  C   UNL d   1     -47.233  13.616  23.460  0.00  0.00     0.002 A 
ATOM      9  C   UNL d   1     -46.515  13.193  23.397  0.00  0.00     0.000 A 
ATOM     10  C   UNL d   1     -46.188  13.031  22.674  0.00  0.00     0.000 A 
ATOM     11  C   UNL d   1     -46.575  13.293  21.969  0.00  0.00     0.000 A 
ATOM     12  C   UNL d   1     -47.284  13.711  22.035  0.00  0.00     0.002 A 
ENDBRANCH   2   7
BRANCH   1  13
ATOM     13  C   UNL d   1     -49.159  13.097  22.612  0.00  0.00     0.308 C 
ATOM     14  O   UNL d   1     -49.067  12.787  21.862  0.00  0.00    -0.258 OA
BRANCH  13  15
ATOM     15  O   UNL d   1     -49.357  12.618  23.212  0.00  0.00    -0.271 OA
BRANCH  15  16
ATOM     16  C   UNL d   1     -49.823  11.946  23.101  0.00  0.00     0.126 C 
ATOM     17  C   UNL d   1     -50.002  11.423  23.698  0.00  0.00     0.029 C 
ENDBRANCH  15  16
ENDBRANCH  13  15
ENDBRANCH   1  13
TORSDOF 4
ENDMDL
MODEL 4
REMARK VINA RESULT:      -6.2      0.975      2.425
REMARK  4 active torsions:
REMARK  status: ('A' for Active; 'I' for Inactive)
REMARK    1  A    between atoms: C_6  and  C_1 
REMARK    2  A    between atoms: C_7  and  C_2 
REMARK    3  A    between atoms: O_10  and  C_6 
REMARK    4  A    between atoms: C_13  and  O_10 
ROOT
ATOM      1  C   UNL d   1     -48.165  13.391  22.675  0.00  0.00     0.113 A 
ATOM      2  C   UNL d   1     -48.149  14.228  22.801  0.00  0.00     0.095 A 
ATOM      3  N   UNL d   1     -47.341  14.462  22.859  0.00  0.00    -0.219 NA
ATOM      4  S   UNL d   1     -47.388  13.115  22.657  0.00  0.00    -0.040 SA
ATOM      5  C   UNL d   1     -46.903  13.781  22.770  0.00  0.00     0.215 A 
ATOM      6  N   UNL d   1     -46.077  13.726  22.786  0.00  0.00    -0.120 N 
ENDROOT
BRANCH   2   7
ATOM      7  C   UNL d   1     -48.853  14.647  22.843  0.00  0.00     0.018 A 
ATOM      8  C   UNL d   1     -49.179  14.820  23.587  0.00  0.00     0.002 A 
ATOM      9  C   UNL d   1     -49.897  15.246  23.622  0.00  0.00     0.000 A 
ATOM     10  C   UNL d   1     -50.272  15.489  22.947  0.00  0.00     0.000 A 
ATOM     11  C   UNL d   1     -49.935  15.311  22.191  0.00  0.00     0.000 A 
ATOM     12  C   UNL d   1     -49.226  14.889  22.160  0.00  0.00     0.002 A 
ENDBRANCH   2   7
BRANCH   1  13
ATOM     13  C   UNL d   1     -48.809  12.926  22.587  0.00  0.00     0.308 C 
ATOM     14  O   UNL d   1     -49.187  12.881  21.865  0.00  0.00    -0.258 OA
BRANCH  13  15
ATOM     15  O   UNL d   1     -49.085  12.506  23.200  0.00  0.00    -0.271 OA
BRANCH  15  16
ATOM     16  C   UNL d   1     -49.489  11.794  23.097  0.00  0.00     0.126 C 
ATOM     17  C   UNL d   1     -49.888  11.417  23.697  0.00  0.00     0.029 C 
ENDBRANCH  15  16
ENDBRANCH  13  15
ENDBRANCH   1  13
TORSDOF 4
ENDMDL
