MODEL 1
REMARK VINA RESULT:      76.6      0.000      0.000
REMARK  4 active torsions:
REMARK  status: ('A' for Active; 'I' for Inactive)
REMARK    1  A    between atoms: C_11  and  C_4 
REMARK    2  A    between atoms: N_10  and  C_7 
REMARK    3  A    between atoms: C_14  and  N_10 
REMARK    4  A    between atoms: C_21  and  C_14 
ROOT
ATOM      1  C   UNL d   1      59.946  49.556  51.422  0.00  0.00     0.186 A 
ATOM      2  N   UNL d   1      60.777  49.533  51.409  0.00  0.00    -0.193 N 
ATOM      3  N   UNL d   1      59.550  49.611  52.158  0.00  0.00    -0.206 NA
ATOM      4  C   UNL d   1      59.675  49.515  50.647  0.00  0.00     0.140 A 
ATOM      5  N   UNL d   1      61.014  49.478  50.615  0.00  0.00    -0.058 NA
ATOM      6  N   UNL d   1      60.334  49.467  50.140  0.00  0.00    -0.127 NA
ATOM      7  C   UNL d   1      59.980  49.644  52.864  0.00  0.00     0.166 A 
ATOM      8  C   UNL d   1      60.809  49.620  52.837  0.00  0.00     0.054 A 
ATOM      9  C   UNL d   1      61.203  49.566  52.114  0.00  0.00     0.089 A 
ATOM     10  C   UNL d   1      61.234  49.653  53.540  0.00  0.00     0.005 A 
ATOM     11  C   UNL d   1      62.029  49.543  52.098  0.00  0.00     0.019 A 
ATOM     12  C   UNL d   1      62.057  49.630  53.524  0.00  0.00     0.000 A 
ATOM     13  C   UNL d   1      62.455  49.576  52.803  0.00  0.00     0.002 A 
ENDROOT
BRANCH   7  14
ATOM     14  N   UNL d   1      59.590  49.698  53.590  0.00  0.00    -0.225 NA
BRANCH  14  15
ATOM     15  C   UNL d   1      58.791  49.520  53.634  0.00  0.00     0.101 C 
BRANCH  15  16
ATOM     16  C   UNL d   1      58.392  49.580  54.354  0.00  0.00     0.019 A 
ATOM     17  C   UNL d   1      58.811  49.573  55.065  0.00  0.00     0.002 A 
ATOM     18  C   UNL d   1      58.413  49.633  55.784  0.00  0.00     0.000 A 
ATOM     19  C   UNL d   1      57.587  49.701  55.789  0.00  0.00     0.000 A 
ATOM     20  C   UNL d   1      57.166  49.708  55.073  0.00  0.00     0.000 A 
ATOM     21  C   UNL d   1      57.575  49.647  54.360  0.00  0.00     0.002 A 
ENDBRANCH  15  16
ENDBRANCH  14  15
ENDBRANCH   7  14
BRANCH   4  22
ATOM     22  C   UNL d   1      58.890  49.521  50.414  0.00  0.00     0.023 A 
ATOM     23  C   UNL d   1      58.300  49.369  50.969  0.00  0.00     0.004 A 
ATOM     24  C   UNL d   1      57.502  49.374  50.735  0.00  0.00     0.030 A 
ATOM     25  C   UNL d   1      57.306  49.531  49.955  0.00  0.00     0.140 A 
ATOM     26  C   UNL d   1      57.908  49.684  49.403  0.00  0.00     0.030 A 
ATOM     27  F   UNL d   1      56.521  49.537  49.723  0.00  0.00    -0.204 F 
ATOM     28  C   UNL d   1      58.693  49.677  49.635  0.00  0.00     0.004 A 
ENDBRANCH   4  22
TORSDOF 4
ENDMDL
