MODEL 1
REMARK VINA RESULT:      -7.7      0.000      0.000
REMARK  2 active torsions:
REMARK  status: ('A' for Active; 'I' for Inactive)
REMARK    1  A    between atoms: C_2  and  S_1 
REMARK    2  A    between atoms: N_4  and  S_1 
ROOT
ATOM      1  S   UNL d   1     -47.805  13.215  22.692  0.00  0.00     0.275 S 
ATOM      2  O   UNL d   1     -47.625  12.833  21.988  0.00  0.00    -0.199 OA
ATOM      3  O   UNL d   1     -47.989  13.599  23.394  0.00  0.00    -0.199 OA
ENDROOT
BRANCH   1   4
ATOM      4  C   UNL d   1     -47.109  12.948  23.035  0.00  0.00     0.143 A 
ATOM      5  C   UNL d   1     -46.383  13.342  23.010  0.00  0.00     0.117 A 
ATOM      6  N   UNL d   1     -45.836  12.882  23.422  0.00  0.00    -0.147 NA
ATOM      7  C   UNL d   1     -46.228  14.064  22.643  0.00  0.00     0.023 C 
ATOM      8  N   UNL d   1     -46.227  12.208  23.697  0.00  0.00    -0.147 NA
ATOM      9  C   UNL d   1     -47.009  12.255  23.456  0.00  0.00     0.117 A 
ATOM     10  C   UNL d   1     -47.595  11.697  23.612  0.00  0.00     0.023 C 
ENDBRANCH   1   4
BRANCH   1  11
ATOM     11  N   UNL d   1     -48.515  13.501  22.376  0.00  0.00    -0.225 N 
ATOM     12  C   UNL d   1     -48.805  13.192  21.657  0.00  0.00     0.118 A 
ATOM     13  C   UNL d   1     -49.515  13.479  21.343  0.00  0.00     0.142 A 
ATOM     14  O   UNL d   1     -49.935  14.067  21.736  0.00  0.00    -0.300 OA
ATOM     15  C   UNL d   1     -49.650  14.374  22.447  0.00  0.00     0.142 A 
ATOM     16  C   UNL d   1     -48.939  14.092  22.770  0.00  0.00     0.118 A 
ENDBRANCH   1  11
TORSDOF 2
ENDMDL
MODEL 2
REMARK VINA RESULT:      -7.0      1.495      3.169
REMARK  2 active torsions:
REMARK  status: ('A' for Active; 'I' for Inactive)
REMARK    1  A    between atoms: C_2  and  S_1 
REMARK    2  A    between atoms: N_4  and  S_1 
ROOT
ATOM      1  S   UNL d   1     -48.464  12.305  22.779  0.00  0.00     0.275 S 
ATOM      2  O   UNL d   1     -48.439  11.510  22.577  0.00  0.00    -0.199 OA
ATOM      3  O   UNL d   1     -48.485  13.100  22.983  0.00  0.00    -0.199 OA
ENDROOT
BRANCH   1   4
ATOM      4  C   UNL d   1     -49.228  12.373  22.487  0.00  0.00     0.143 A 
ATOM      5  C   UNL d   1     -49.426  12.593  21.716  0.00  0.00     0.117 A 
ATOM      6  N   UNL d   1     -50.248  12.591  21.660  0.00  0.00    -0.147 NA
ATOM      7  C   UNL d   1     -48.901  12.781  21.109  0.00  0.00     0.023 C 
ATOM      8  N   UNL d   1     -50.553  12.370  22.397  0.00  0.00    -0.147 NA
ATOM      9  C   UNL d   1     -49.919  12.237  22.900  0.00  0.00     0.117 A 
ATOM     10  C   UNL d   1     -49.973  12.007  23.689  0.00  0.00     0.023 C 
ENDBRANCH   1   4
BRANCH   1  11
ATOM     11  N   UNL d   1     -47.694  12.271  23.082  0.00  0.00    -0.225 N 
ATOM     12  C   UNL d   1     -47.213  12.952  23.073  0.00  0.00     0.118 A 
ATOM     13  C   UNL d   1     -46.444  12.917  23.377  0.00  0.00     0.142 A 
ATOM     14  O   UNL d   1     -46.152  12.213  23.687  0.00  0.00    -0.300 OA
ATOM     15  C   UNL d   1     -46.627  11.538  23.697  0.00  0.00     0.142 A 
ATOM     16  C   UNL d   1     -47.399  11.564  23.395  0.00  0.00     0.118 A 
ENDBRANCH   1  11
TORSDOF 2
ENDMDL
