MODEL 1
REMARK VINA RESULT:      -7.3      0.000      0.000
REMARK  4 active torsions:
REMARK  status: ('A' for Active; 'I' for Inactive)
REMARK    1  A    between atoms: C_14  and  C_4 
REMARK       I    between atoms: C_6  and  N_8 
REMARK    2  A    between atoms: C_9  and  C_6 
REMARK    3  A    between atoms: N_8  and  C_14 
REMARK    4  A    between atoms: O_16  and  C_15 
ROOT
ATOM      1  C   UNL d   1     -46.831  13.059  23.273  0.00  0.00     0.279 C 
ATOM      2  N   UNL d   1     -47.604  13.241  23.057  0.00  0.00    -0.205 NA
ATOM      3  O   UNL d   1     -46.277  13.665  23.367  0.00  0.00    -0.265 OA
ENDROOT
BRANCH   1   4
ATOM      4  C   UNL d   1     -46.614  12.277  23.395  0.00  0.00     0.060 A 
ATOM      5  C   UNL d   1     -45.821  12.056  23.338  0.00  0.00     0.029 A 
ATOM      6  C   UNL d   1     -45.612  11.264  23.463  0.00  0.00     0.094 A 
ATOM      7  C   UNL d   1     -46.190  10.695  23.643  0.00  0.00     0.024 A 
ATOM      8  C   UNL d   1     -46.977  10.922  23.698  0.00  0.00     0.002 A 
ATOM      9  C   UNL d   1     -47.200  11.710  23.576  0.00  0.00     0.005 A 
BRANCH   6  10
ATOM     10  O   UNL d   1     -44.824  11.046  23.406  0.00  0.00    -0.328 OA
ATOM     11  C   UNL d   1     -44.580  10.302  23.690  0.00  0.00     0.181 C 
ENDBRANCH   6  10
ENDBRANCH   1   4
BRANCH   2  12
ATOM     12  C   UNL d   1     -47.823  14.025  22.934  0.00  0.00     0.123 C 
BRANCH  12  13
ATOM     13  C   UNL d   1     -48.615  14.224  22.832  0.00  0.00     0.120 A 
ATOM     14  N   UNL d   1     -49.052  14.739  23.304  0.00  0.00    -0.219 NA
ATOM     15  C   UNL d   1     -49.820  14.776  23.003  0.00  0.00     0.180 A 
ATOM     16  N   UNL d   1     -49.859  14.276  22.335  0.00  0.00    -0.282 N 
ATOM     17  S   UNL d   1     -50.564  15.115  23.106  0.00  0.00    -0.048 SA
ATOM     18  C   UNL d   1     -49.111  13.937  22.234  0.00  0.00     0.103 A 
ATOM     19  C   UNL d   1     -50.623  14.315  22.040  0.00  0.00     0.089 A 
ATOM     20  C   UNL d   1     -51.060  14.827  22.507  0.00  0.00     0.057 A 
ENDBRANCH  12  13
ENDBRANCH   2  12
TORSDOF 4
ENDMDL
MODEL 2
REMARK VINA RESULT:      -7.0      2.048      4.788
REMARK  4 active torsions:
REMARK  status: ('A' for Active; 'I' for Inactive)
REMARK    1  A    between atoms: C_14  and  C_4 
REMARK       I    between atoms: C_6  and  N_8 
REMARK    2  A    between atoms: C_9  and  C_6 
REMARK    3  A    between atoms: N_8  and  C_14 
REMARK    4  A    between atoms: O_16  and  C_15 
ROOT
ATOM      1  C   UNL d   1     -48.371  14.961  22.620  0.00  0.00     0.279 C 
ATOM      2  N   UNL d   1     -48.001  14.280  22.895  0.00  0.00    -0.205 NA
ATOM      3  O   UNL d   1     -47.927  15.546  22.242  0.00  0.00    -0.265 OA
ENDROOT
BRANCH   1   4
ATOM      4  C   UNL d   1     -49.180  15.056  22.722  0.00  0.00     0.060 A 
ATOM      5  C   UNL d   1     -49.707  14.670  22.217  0.00  0.00     0.029 A 
ATOM      6  C   UNL d   1     -50.521  14.772  22.328  0.00  0.00     0.094 A 
ATOM      7  C   UNL d   1     -50.810  15.255  22.939  0.00  0.00     0.024 A 
ATOM      8  C   UNL d   1     -50.281  15.635  23.437  0.00  0.00     0.002 A 
ATOM      9  C   UNL d   1     -49.464  15.543  23.338  0.00  0.00     0.005 A 
BRANCH   6  10
ATOM     10  O   UNL d   1     -51.043  14.388  21.824  0.00  0.00    -0.328 OA
ATOM     11  C   UNL d   1     -51.023  13.559  21.764  0.00  0.00     0.181 C 
ENDBRANCH   6  10
ENDBRANCH   1   4
BRANCH   2  12
ATOM     12  C   UNL d   1     -47.189  14.183  22.794  0.00  0.00     0.123 C 
BRANCH  12  13
ATOM     13  C   UNL d   1     -46.836  13.455  22.945  0.00  0.00     0.120 A 
ATOM     14  N   UNL d   1     -47.147  12.852  23.411  0.00  0.00    -0.219 NA
ATOM     15  C   UNL d   1     -46.612  12.223  23.412  0.00  0.00     0.180 A 
ATOM     16  N   UNL d   1     -45.960  12.440  22.938  0.00  0.00    -0.282 N 
ATOM     17  S   UNL d   1     -46.470  11.463  23.698  0.00  0.00    -0.048 SA
ATOM     18  C   UNL d   1     -46.104  13.204  22.651  0.00  0.00     0.103 A 
ATOM     19  C   UNL d   1     -45.430  11.815  22.940  0.00  0.00     0.089 A 
ATOM     20  C   UNL d   1     -45.737  11.213  23.404  0.00  0.00     0.057 A 
ENDBRANCH  12  13
ENDBRANCH   2  12
TORSDOF 4
ENDMDL
MODEL 3
REMARK VINA RESULT:      -6.4      1.367      1.629
REMARK  4 active torsions:
REMARK  status: ('A' for Active; 'I' for Inactive)
REMARK    1  A    between atoms: C_14  and  C_4 
REMARK       I    between atoms: C_6  and  N_8 
REMARK    2  A    between atoms: C_9  and  C_6 
REMARK    3  A    between atoms: N_8  and  C_14 
REMARK    4  A    between atoms: O_16  and  C_15 
ROOT
ATOM      1  C   UNL d   1     -46.529  13.710  22.932  0.00  0.00     0.279 C 
ATOM      2  N   UNL d   1     -47.294  13.565  22.667  0.00  0.00    -0.205 NA
ATOM      3  O   UNL d   1     -46.368  14.395  23.366  0.00  0.00    -0.265 OA
ENDROOT
BRANCH   1   4
ATOM      4  C   UNL d   1     -45.930  13.174  22.766  0.00  0.00     0.060 A 
ATOM      5  C   UNL d   1     -45.328  13.380  22.240  0.00  0.00     0.029 A 
ATOM      6  C   UNL d   1     -44.728  12.833  22.078  0.00  0.00     0.094 A 
ATOM      7  C   UNL d   1     -44.727  12.084  22.437  0.00  0.00     0.024 A 
ATOM      8  C   UNL d   1     -45.329  11.886  22.959  0.00  0.00     0.002 A 
ATOM      9  C   UNL d   1     -45.936  12.423  23.130  0.00  0.00     0.005 A 
BRANCH   6  10
ATOM     10  O   UNL d   1     -44.130  13.039  21.556  0.00  0.00    -0.328 OA
ATOM     11  C   UNL d   1     -43.424  12.598  21.542  0.00  0.00     0.181 C 
ENDBRANCH   6  10
ENDBRANCH   1   4
BRANCH   2  12
ATOM     12  C   UNL d   1     -47.896  14.102  22.833  0.00  0.00     0.123 C 
BRANCH  12  13
ATOM     13  C   UNL d   1     -48.672  13.935  22.615  0.00  0.00     0.120 A 
ATOM     14  N   UNL d   1     -49.248  13.593  23.093  0.00  0.00    -0.219 NA
ATOM     15  C   UNL d   1     -49.944  13.527  22.653  0.00  0.00     0.180 A 
ATOM     16  N   UNL d   1     -49.796  13.833  21.891  0.00  0.00    -0.282 N 
ATOM     17  S   UNL d   1     -50.729  13.276  22.674  0.00  0.00    -0.048 SA
ATOM     18  C   UNL d   1     -49.007  14.085  21.873  0.00  0.00     0.103 A 
ATOM     19  C   UNL d   1     -50.488  13.767  21.457  0.00  0.00     0.089 A 
ATOM     20  C   UNL d   1     -51.064  13.426  21.931  0.00  0.00     0.057 A 
ENDBRANCH  12  13
ENDBRANCH   2  12
TORSDOF 4
ENDMDL
MODEL 4
REMARK VINA RESULT:      -6.2      8.615      9.788
REMARK  4 active torsions:
REMARK  status: ('A' for Active; 'I' for Inactive)
REMARK    1  A    between atoms: C_14  and  C_4 
REMARK       I    between atoms: C_6  and  N_8 
REMARK    2  A    between atoms: C_9  and  C_6 
REMARK    3  A    between atoms: N_8  and  C_14 
REMARK    4  A    between atoms: O_16  and  C_15 
ROOT
ATOM      1  C   UNL d   1     -40.579  14.414  18.665  0.00  0.00     0.279 C 
ATOM      2  N   UNL d   1     -40.258  14.751  19.343  0.00  0.00    -0.205 NA
ATOM      3  O   UNL d   1     -41.054  13.741  18.728  0.00  0.00    -0.265 OA
ENDROOT
BRANCH   1   4
ATOM      4  C   UNL d   1     -40.426  14.747  17.931  0.00  0.00     0.060 A 
ATOM      5  C   UNL d   1     -39.770  14.500  17.495  0.00  0.00     0.029 A 
ATOM      6  C   UNL d   1     -39.624  14.841  16.755  0.00  0.00     0.094 A 
ATOM      7  C   UNL d   1     -40.128  15.427  16.450  0.00  0.00     0.024 A 
ATOM      8  C   UNL d   1     -40.778  15.668  16.889  0.00  0.00     0.002 A 
ATOM      9  C   UNL d   1     -40.937  15.335  17.631  0.00  0.00     0.005 A 
BRANCH   6  10
ATOM     10  O   UNL d   1     -38.972  14.594  16.323  0.00  0.00    -0.328 OA
ATOM     11  C   UNL d   1     -38.367  15.136  16.144  0.00  0.00     0.181 C 
ENDBRANCH   6  10
ENDBRANCH   1   4
BRANCH   2  12
ATOM     12  C   UNL d   1     -40.410  14.419  20.081  0.00  0.00     0.123 C 
BRANCH  12  13
ATOM     13  C   UNL d   1     -40.008  14.686  20.748  0.00  0.00     0.120 A 
ATOM     14  N   UNL d   1     -39.415  14.281  21.152  0.00  0.00    -0.219 NA
ATOM     15  C   UNL d   1     -39.167  14.751  21.785  0.00  0.00     0.180 A 
ATOM     16  N   UNL d   1     -39.613  15.457  21.771  0.00  0.00    -0.282 N 
ATOM     17  S   UNL d   1     -38.650  14.794  22.425  0.00  0.00    -0.048 SA
ATOM     18  C   UNL d   1     -40.132  15.411  21.127  0.00  0.00     0.103 A 
ATOM     19  C   UNL d   1     -39.364  15.921  22.399  0.00  0.00     0.089 A 
ATOM     20  C   UNL d   1     -38.775  15.520  22.804  0.00  0.00     0.057 A 
ENDBRANCH  12  13
ENDBRANCH   2  12
TORSDOF 4
ENDMDL
MODEL 5
REMARK VINA RESULT:      -6.0      2.362      4.546
REMARK  4 active torsions:
REMARK  status: ('A' for Active; 'I' for Inactive)
REMARK    1  A    between atoms: C_14  and  C_4 
REMARK       I    between atoms: C_6  and  N_8 
REMARK    2  A    between atoms: C_9  and  C_6 
REMARK    3  A    between atoms: N_8  and  C_14 
REMARK    4  A    between atoms: O_16  and  C_15 
ROOT
ATOM      1  C   UNL d   1     -48.824  11.816  23.342  0.00  0.00     0.279 C 
ATOM      2  N   UNL d   1     -48.161  12.298  23.267  0.00  0.00    -0.205 NA
ATOM      3  O   UNL d   1     -48.740  11.044  23.625  0.00  0.00    -0.265 OA
ENDROOT
BRANCH   1   4
ATOM      4  C   UNL d   1     -49.564  12.104  23.136  0.00  0.00     0.060 A 
ATOM      5  C   UNL d   1     -49.693  12.404  22.378  0.00  0.00     0.029 A 
ATOM      6  C   UNL d   1     -50.443  12.692  22.178  0.00  0.00     0.094 A 
ATOM      7  C   UNL d   1     -51.063  12.683  22.731  0.00  0.00     0.024 A 
ATOM      8  C   UNL d   1     -50.928  12.383  23.483  0.00  0.00     0.002 A 
ATOM      9  C   UNL d   1     -50.183  12.091  23.697  0.00  0.00     0.005 A 
BRANCH   6  10
ATOM     10  O   UNL d   1     -50.569  12.990  21.424  0.00  0.00    -0.328 OA
ATOM     11  C   UNL d   1     -51.011  13.687  21.325  0.00  0.00     0.181 C 
ENDBRANCH   6  10
ENDBRANCH   1   4
BRANCH   2  12
ATOM     12  C   UNL d   1     -47.418  12.010  23.473  0.00  0.00     0.123 C 
BRANCH  12  13
ATOM     13  C   UNL d   1     -46.741  12.320  23.122  0.00  0.00     0.120 A 
ATOM     14  N   UNL d   1     -46.643  13.092  22.853  0.00  0.00    -0.219 NA
ATOM     15  C   UNL d   1     -45.882  13.162  22.540  0.00  0.00     0.180 A 
ATOM     16  N   UNL d   1     -45.503  12.422  22.617  0.00  0.00    -0.282 N 
ATOM     17  S   UNL d   1     -45.349  13.679  22.182  0.00  0.00    -0.048 SA
ATOM     18  C   UNL d   1     -46.040  11.904  22.978  0.00  0.00     0.103 A 
ATOM     19  C   UNL d   1     -44.748  12.495  22.307  0.00  0.00     0.089 A 
ATOM     20  C   UNL d   1     -44.648  13.263  22.038  0.00  0.00     0.057 A 
ENDBRANCH  12  13
ENDBRANCH   2  12
TORSDOF 4
ENDMDL
MODEL 6
REMARK VINA RESULT:      -6.0      2.414      4.538
REMARK  4 active torsions:
REMARK  status: ('A' for Active; 'I' for Inactive)
REMARK    1  A    between atoms: C_14  and  C_4 
REMARK       I    between atoms: C_6  and  N_8 
REMARK    2  A    between atoms: C_9  and  C_6 
REMARK    3  A    between atoms: N_8  and  C_14 
REMARK    4  A    between atoms: O_16  and  C_15 
ROOT
ATOM      1  C   UNL d   1     -48.860  14.297  22.810  0.00  0.00     0.279 C 
ATOM      2  N   UNL d   1     -48.181  13.832  22.784  0.00  0.00    -0.205 NA
ATOM      3  O   UNL d   1     -48.802  15.097  23.007  0.00  0.00    -0.265 OA
ENDROOT
BRANCH   1   4
ATOM      4  C   UNL d   1     -49.590  13.963  22.642  0.00  0.00     0.060 A 
ATOM      5  C   UNL d   1     -49.957  13.473  23.196  0.00  0.00     0.029 A 
ATOM      6  C   UNL d   1     -50.694  13.141  23.016  0.00  0.00     0.094 A 
ATOM      7  C   UNL d   1     -51.064  13.295  22.289  0.00  0.00     0.024 A 
ATOM      8  C   UNL d   1     -50.694  13.783  21.743  0.00  0.00     0.002 A 
ATOM      9  C   UNL d   1     -49.957  14.122  21.908  0.00  0.00     0.005 A 
BRANCH   6  10
ATOM     10  O   UNL d   1     -51.057  12.655  23.568  0.00  0.00    -0.328 OA
ATOM     11  C   UNL d   1     -50.763  11.887  23.698  0.00  0.00     0.181 C 
ENDBRANCH   6  10
ENDBRANCH   1   4
BRANCH   2  12
ATOM     12  C   UNL d   1     -47.447  14.165  22.953  0.00  0.00     0.123 C 
BRANCH  12  13
ATOM     13  C   UNL d   1     -46.755  13.761  22.767  0.00  0.00     0.120 A 
ATOM     14  N   UNL d   1     -46.500  13.054  23.105  0.00  0.00    -0.219 NA
ATOM     15  C   UNL d   1     -45.780  12.846  22.757  0.00  0.00     0.180 A 
ATOM     16  N   UNL d   1     -45.588  13.433  22.195  0.00  0.00    -0.282 N 
ATOM     17  S   UNL d   1     -45.177  12.285  22.748  0.00  0.00    -0.048 SA
ATOM     18  C   UNL d   1     -46.195  13.996  22.205  0.00  0.00     0.103 A 
ATOM     19  C   UNL d   1     -44.874  13.224  21.851  0.00  0.00     0.089 A 
ATOM     20  C   UNL d   1     -44.617  12.521  22.186  0.00  0.00     0.057 A 
ENDBRANCH  12  13
ENDBRANCH   2  12
TORSDOF 4
ENDMDL
MODEL 7
REMARK VINA RESULT:      -5.8      9.001     10.145
REMARK  4 active torsions:
REMARK  status: ('A' for Active; 'I' for Inactive)
REMARK    1  A    between atoms: C_14  and  C_4 
REMARK       I    between atoms: C_6  and  N_8 
REMARK    2  A    between atoms: C_9  and  C_6 
REMARK    3  A    between atoms: N_8  and  C_14 
REMARK    4  A    between atoms: O_16  and  C_15 
ROOT
ATOM      1  C   UNL d   1     -40.535  14.556  19.121  0.00  0.00     0.279 C 
ATOM      2  N   UNL d   1     -40.046  14.834  18.521  0.00  0.00    -0.205 NA
ATOM      3  O   UNL d   1     -41.132  14.012  18.945  0.00  0.00    -0.265 OA
ENDROOT
BRANCH   1   4
ATOM      4  C   UNL d   1     -40.428  14.819  19.891  0.00  0.00     0.060 A 
ATOM      5  C   UNL d   1     -39.878  14.447  20.381  0.00  0.00     0.029 A 
ATOM      6  C   UNL d   1     -39.777  14.720  21.156  0.00  0.00     0.094 A 
ATOM      7  C   UNL d   1     -40.220  15.361  21.443  0.00  0.00     0.024 A 
ATOM      8  C   UNL d   1     -40.765  15.727  20.950  0.00  0.00     0.002 A 
ATOM      9  C   UNL d   1     -40.877  15.465  20.172  0.00  0.00     0.005 A 
BRANCH   6  10
ATOM     10  O   UNL d   1     -39.230  14.348  21.642  0.00  0.00    -0.328 OA
ATOM     11  C   UNL d   1     -38.699  14.806  22.090  0.00  0.00     0.181 C 
ENDBRANCH   6  10
ENDBRANCH   1   4
BRANCH   2  12
ATOM     12  C   UNL d   1     -40.152  14.570  17.748  0.00  0.00     0.123 C 
BRANCH  12  13
ATOM     13  C   UNL d   1     -39.611  14.775  17.162  0.00  0.00     0.120 A 
ATOM     14  N   UNL d   1     -39.461  15.535  16.883  0.00  0.00    -0.219 NA
ATOM     15  C   UNL d   1     -38.880  15.486  16.298  0.00  0.00     0.180 A 
ATOM     16  N   UNL d   1     -38.667  14.683  16.214  0.00  0.00    -0.282 N 
ATOM     17  S   UNL d   1     -38.428  15.921  15.764  0.00  0.00    -0.048 SA
ATOM     18  C   UNL d   1     -39.123  14.247  16.752  0.00  0.00     0.103 A 
ATOM     19  C   UNL d   1     -38.091  14.637  15.633  0.00  0.00     0.089 A 
ATOM     20  C   UNL d   1     -37.940  15.393  15.354  0.00  0.00     0.057 A 
ENDBRANCH  12  13
ENDBRANCH   2  12
TORSDOF 4
ENDMDL
MODEL 8
REMARK VINA RESULT:      -5.7      2.394      5.057
REMARK  4 active torsions:
REMARK  status: ('A' for Active; 'I' for Inactive)
REMARK    1  A    between atoms: C_14  and  C_4 
REMARK       I    between atoms: C_6  and  N_8 
REMARK    2  A    between atoms: C_9  and  C_6 
REMARK    3  A    between atoms: N_8  and  C_14 
REMARK    4  A    between atoms: O_16  and  C_15 
ROOT
ATOM      1  C   UNL d   1     -47.999  12.507  23.290  0.00  0.00     0.279 C 
ATOM      2  N   UNL d   1     -47.218  12.247  23.280  0.00  0.00    -0.205 NA
ATOM      3  O   UNL d   1     -48.576  12.059  23.675  0.00  0.00    -0.265 OA
ENDROOT
BRANCH   1   4
ATOM      4  C   UNL d   1     -48.199  13.210  22.918  0.00  0.00     0.060 A 
ATOM      5  C   UNL d   1     -48.593  13.801  23.338  0.00  0.00     0.029 A 
ATOM      6  C   UNL d   1     -48.792  14.507  22.954  0.00  0.00     0.094 A 
ATOM      7  C   UNL d   1     -48.599  14.625  22.154  0.00  0.00     0.024 A 
ATOM      8  C   UNL d   1     -48.207  14.033  21.742  0.00  0.00     0.002 A 
ATOM      9  C   UNL d   1     -48.002  13.322  22.114  0.00  0.00     0.005 A 
BRANCH   6  10
ATOM     10  O   UNL d   1     -49.183  15.093  23.373  0.00  0.00    -0.328 OA
ATOM     11  C   UNL d   1     -49.950  15.323  23.143  0.00  0.00     0.181 C 
ENDBRANCH   6  10
ENDBRANCH   1   4
BRANCH   2  12
ATOM     12  C   UNL d   1     -47.015  11.542  23.654  0.00  0.00     0.123 C 
BRANCH  12  13
ATOM     13  C   UNL d   1     -46.250  11.244  23.591  0.00  0.00     0.120 A 
ATOM     14  N   UNL d   1     -45.573  11.679  23.412  0.00  0.00    -0.219 NA
ATOM     15  C   UNL d   1     -44.928  11.162  23.406  0.00  0.00     0.180 A 
ATOM     16  N   UNL d   1     -45.211  10.397  23.584  0.00  0.00    -0.282 N 
ATOM     17  S   UNL d   1     -44.114  11.108  23.293  0.00  0.00    -0.048 SA
ATOM     18  C   UNL d   1     -46.029  10.454  23.698  0.00  0.00     0.103 A 
ATOM     19  C   UNL d   1     -44.569   9.887  23.578  0.00  0.00     0.089 A 
ATOM     20  C   UNL d   1     -43.894  10.316  23.400  0.00  0.00     0.057 A 
ENDBRANCH  12  13
ENDBRANCH   2  12
TORSDOF 4
ENDMDL
