MODEL 1
REMARK VINA RESULT:      -3.2      0.000      0.000
REMARK  3 active torsions:
REMARK  status: ('A' for Active; 'I' for Inactive)
REMARK    1  A    between atoms: C_11  and  C_4 
REMARK    2  A    between atoms: N_14  and  C_7 
REMARK    3  A    between atoms: C_10  and  C_12 
ROOT
ATOM      1  C   UNL d   1      58.324   0.109  31.002  0.00  0.00     0.186 A 
ATOM      2  N   UNL d   1      59.114   0.355  31.002  0.00  0.00    -0.193 N 
ATOM      3  N   UNL d   1      57.999  -0.243  30.321  0.00  0.00    -0.204 NA
ATOM      4  C   UNL d   1      58.003   0.282  31.743  0.00  0.00     0.140 A 
ATOM      5  N   UNL d   1      59.285   0.682  31.745  0.00  0.00    -0.058 NA
ATOM      6  N   UNL d   1      58.596   0.637  32.205  0.00  0.00    -0.127 NA
ATOM      7  C   UNL d   1      58.469  -0.351  29.633  0.00  0.00     0.188 A 
ATOM      8  C   UNL d   1      59.260  -0.100  29.646  0.00  0.00     0.056 A 
ATOM      9  C   UNL d   1      59.588   0.252  30.325  0.00  0.00     0.089 A 
ATOM     10  C   UNL d   1      59.727  -0.204  28.971  0.00  0.00     0.005 A 
ATOM     11  C   UNL d   1      60.371   0.494  30.320  0.00  0.00     0.019 A 
ATOM     12  C   UNL d   1      60.514   0.042  28.973  0.00  0.00     0.000 A 
ATOM     13  C   UNL d   1      60.836   0.391  29.648  0.00  0.00     0.002 A 
ENDROOT
BRANCH   4  14
ATOM     14  C   UNL d   1      57.226   0.128  31.980  0.00  0.00     0.022 A 
ATOM     15  C   UNL d   1      57.046  -0.587  32.348  0.00  0.00     0.005 A 
ATOM     16  C   UNL d   1      56.277  -0.747  32.585  0.00  0.00     0.071 A 
ATOM     17  C   UNL d   1      55.681  -0.191  32.456  0.00  0.00     0.004 A 
ATOM     18  C   UNL d   1      55.867   0.530  32.084  0.00  0.00    -0.000 A 
ATOM     19  C   UNL d   1      56.637   0.682  31.850  0.00  0.00     0.002 A 
BRANCH  16  20
ATOM     20  C   UNL d   1      56.097  -1.461  32.953  0.00  0.00     0.419 C 
ATOM     21  F   UNL d   1      55.918  -2.153  33.366  0.00  0.00    -0.166 F 
ATOM     22  F   UNL d   1      56.071  -1.854  32.236  0.00  0.00    -0.166 F 
ATOM     23  F   UNL d   1      56.122  -1.067  33.688  0.00  0.00    -0.166 F 
ENDBRANCH  16  20
ENDBRANCH   4  14
BRANCH   7  24
ATOM     24  N   UNL d   1      58.147  -0.700  28.958  0.00  0.00    -0.108 NA
ATOM     25  N   UNL d   1      57.814  -1.460  29.005  0.00  0.00    -0.021 N 
ENDBRANCH   7  24
TORSDOF 3
ENDMDL
MODEL 2
REMARK VINA RESULT:      -2.5      2.240      4.455
REMARK  3 active torsions:
REMARK  status: ('A' for Active; 'I' for Inactive)
REMARK    1  A    between atoms: C_11  and  C_4 
REMARK    2  A    between atoms: N_14  and  C_7 
REMARK    3  A    between atoms: C_10  and  C_12 
ROOT
ATOM      1  C   UNL d   1      57.511  -0.580  31.303  0.00  0.00     0.186 A 
ATOM      2  N   UNL d   1      56.895  -1.087  31.520  0.00  0.00    -0.193 N 
ATOM      3  N   UNL d   1      57.767   0.011  31.831  0.00  0.00    -0.204 NA
ATOM      4  C   UNL d   1      57.760  -0.790  30.544  0.00  0.00     0.140 A 
ATOM      5  N   UNL d   1      56.759  -1.615  30.894  0.00  0.00    -0.058 NA
ATOM      6  N   UNL d   1      57.296  -1.430  30.288  0.00  0.00    -0.127 NA
ATOM      7  C   UNL d   1      57.402   0.096  32.584  0.00  0.00     0.188 A 
ATOM      8  C   UNL d   1      56.786  -0.419  32.789  0.00  0.00     0.056 A 
ATOM      9  C   UNL d   1      56.527  -1.012  32.264  0.00  0.00     0.089 A 
ATOM     10  C   UNL d   1      56.423  -0.340  33.528  0.00  0.00     0.005 A 
ATOM     11  C   UNL d   1      55.916  -1.512  32.483  0.00  0.00     0.019 A 
ATOM     12  C   UNL d   1      55.809  -0.847  33.742  0.00  0.00     0.000 A 
ATOM     13  C   UNL d   1      55.556  -1.433  33.219  0.00  0.00     0.002 A 
ENDROOT
BRANCH   4  14
ATOM     14  C   UNL d   1      58.365  -0.424  30.116  0.00  0.00     0.022 A 
ATOM     15  C   UNL d   1      59.088  -0.807  30.024  0.00  0.00     0.005 A 
ATOM     16  C   UNL d   1      59.694  -0.448  29.600  0.00  0.00     0.071 A 
ATOM     17  C   UNL d   1      59.579   0.297  29.266  0.00  0.00     0.004 A 
ATOM     18  C   UNL d   1      58.846   0.681  29.361  0.00  0.00    -0.000 A 
ATOM     19  C   UNL d   1      58.248   0.317  29.785  0.00  0.00     0.002 A 
BRANCH  16  20
ATOM     20  C   UNL d   1      60.417  -0.831  29.508  0.00  0.00     0.419 C 
ATOM     21  F   UNL d   1      61.123  -1.236  29.373  0.00  0.00    -0.166 F 
ATOM     22  F   UNL d   1      60.714  -0.492  30.191  0.00  0.00    -0.166 F 
ATOM     23  F   UNL d   1      60.121  -1.181  28.811  0.00  0.00    -0.166 F 
ENDBRANCH  16  20
ENDBRANCH   4  14
BRANCH   7  24
ATOM     24  N   UNL d   1      57.655   0.682  33.106  0.00  0.00    -0.108 NA
ATOM     25  N   UNL d   1      58.441   0.682  33.378  0.00  0.00    -0.021 N 
ENDBRANCH   7  24
TORSDOF 3
ENDMDL
MODEL 3
REMARK VINA RESULT:      -1.6      2.084      3.897
REMARK  3 active torsions:
REMARK  status: ('A' for Active; 'I' for Inactive)
REMARK    1  A    between atoms: C_11  and  C_4 
REMARK    2  A    between atoms: N_14  and  C_7 
REMARK    3  A    between atoms: C_10  and  C_12 
ROOT
ATOM      1  C   UNL d   1      57.868   0.008  31.492  0.00  0.00     0.186 A 
ATOM      2  N   UNL d   1      58.115   0.356  32.200  0.00  0.00    -0.193 N 
ATOM      3  N   UNL d   1      57.125  -0.365  31.450  0.00  0.00    -0.204 NA
ATOM      4  C   UNL d   1      58.467   0.115  30.933  0.00  0.00     0.140 A 
ATOM      5  N   UNL d   1      58.869   0.682  32.081  0.00  0.00    -0.058 NA
ATOM      6  N   UNL d   1      59.087   0.532  31.295  0.00  0.00    -0.127 NA
ATOM      7  C   UNL d   1      56.622  -0.389  32.123  0.00  0.00     0.188 A 
ATOM      8  C   UNL d   1      56.881  -0.036  32.828  0.00  0.00     0.056 A 
ATOM      9  C   UNL d   1      57.624   0.338  32.874  0.00  0.00     0.089 A 
ATOM     10  C   UNL d   1      56.391  -0.057  33.494  0.00  0.00     0.005 A 
ATOM     11  C   UNL d   1      57.864   0.682  33.577  0.00  0.00     0.019 A 
ATOM     12  C   UNL d   1      56.639   0.292  34.198  0.00  0.00     0.000 A 
ATOM     13  C   UNL d   1      57.376   0.661  34.240  0.00  0.00     0.002 A 
ENDROOT
BRANCH   4  14
ATOM     14  C   UNL d   1      58.447  -0.148  30.149  0.00  0.00     0.022 A 
ATOM     15  C   UNL d   1      58.703  -0.910  29.969  0.00  0.00     0.005 A 
ATOM     16  C   UNL d   1      58.686  -1.178  29.193  0.00  0.00     0.071 A 
ATOM     17  C   UNL d   1      58.413  -0.684  28.591  0.00  0.00     0.004 A 
ATOM     18  C   UNL d   1      58.155   0.085  28.778  0.00  0.00    -0.000 A 
ATOM     19  C   UNL d   1      58.175   0.345  29.554  0.00  0.00     0.002 A 
BRANCH  16  20
ATOM     20  C   UNL d   1      58.942  -1.939  29.012  0.00  0.00     0.419 C 
ATOM     21  F   UNL d   1      59.245  -2.683  28.823  0.00  0.00    -0.166 F 
ATOM     22  F   UNL d   1      58.196  -2.250  29.142  0.00  0.00    -0.166 F 
ATOM     23  F   UNL d   1      59.705  -1.631  28.878  0.00  0.00    -0.166 F 
ENDBRANCH  16  20
ENDBRANCH   4  14
BRANCH   7  24
ATOM     24  N   UNL d   1      55.886  -0.759  32.082  0.00  0.00    -0.108 NA
ATOM     25  N   UNL d   1      55.834  -1.586  32.145  0.00  0.00    -0.021 N 
ENDBRANCH   7  24
TORSDOF 3
ENDMDL
MODEL 4
REMARK VINA RESULT:      -1.3      2.015      4.399
REMARK  3 active torsions:
REMARK  status: ('A' for Active; 'I' for Inactive)
REMARK    1  A    between atoms: C_11  and  C_4 
REMARK    2  A    between atoms: N_14  and  C_7 
REMARK    3  A    between atoms: C_10  and  C_12 
ROOT
ATOM      1  C   UNL d   1      57.034   0.215  32.192  0.00  0.00     0.186 A 
ATOM      2  N   UNL d   1      56.256   0.197  32.472  0.00  0.00    -0.193 N 
ATOM      3  N   UNL d   1      57.661   0.376  32.717  0.00  0.00    -0.204 NA
ATOM      4  C   UNL d   1      57.018   0.054  31.381  0.00  0.00     0.140 A 
ATOM      5  N   UNL d   1      55.754   0.025  31.834  0.00  0.00    -0.058 NA
ATOM      6  N   UNL d   1      56.226  -0.064  31.158  0.00  0.00    -0.127 NA
ATOM      7  C   UNL d   1      57.507   0.521  33.530  0.00  0.00     0.188 A 
ATOM      8  C   UNL d   1      56.723   0.501  33.798  0.00  0.00     0.056 A 
ATOM      9  C   UNL d   1      56.094   0.340  33.276  0.00  0.00     0.089 A 
ATOM     10  C   UNL d   1      56.565   0.643  34.598  0.00  0.00     0.005 A 
ATOM     11  C   UNL d   1      55.324   0.324  33.558  0.00  0.00     0.019 A 
ATOM     12  C   UNL d   1      55.789   0.625  34.874  0.00  0.00     0.000 A 
ATOM     13  C   UNL d   1      55.169   0.465  34.354  0.00  0.00     0.002 A 
ENDROOT
BRANCH   4  14
ATOM     14  C   UNL d   1      57.677   0.018  30.884  0.00  0.00     0.022 A 
ATOM     15  C   UNL d   1      57.847  -0.681  30.482  0.00  0.00     0.005 A 
ATOM     16  C   UNL d   1      58.500  -0.724  29.986  0.00  0.00     0.071 A 
ATOM     17  C   UNL d   1      58.988  -0.066  29.889  0.00  0.00     0.004 A 
ATOM     18  C   UNL d   1      58.813   0.638  30.297  0.00  0.00    -0.000 A 
ATOM     19  C   UNL d   1      58.160   0.673  30.789  0.00  0.00     0.002 A 
BRANCH  16  20
ATOM     20  C   UNL d   1      58.669  -1.422  29.584  0.00  0.00     0.419 C 
ATOM     21  F   UNL d   1      58.851  -2.094  29.141  0.00  0.00    -0.166 F 
ATOM     22  F   UNL d   1      58.475  -1.876  30.237  0.00  0.00    -0.166 F 
ATOM     23  F   UNL d   1      58.869  -0.966  28.915  0.00  0.00    -0.166 F 
ENDBRANCH  16  20
ENDBRANCH   4  14
BRANCH   7  24
ATOM     24  N   UNL d   1      58.127   0.681  34.050  0.00  0.00    -0.108 NA
ATOM     25  N   UNL d   1      58.911   0.668  33.774  0.00  0.00    -0.021 N 
ENDBRANCH   7  24
TORSDOF 3
ENDMDL
