MODEL 1
REMARK VINA RESULT:     100.7      0.000      0.000
REMARK  11 active torsions:
REMARK  status: ('A' for Active; 'I' for Inactive)
REMARK    1  A    between atoms: C_7  and  C_1 
REMARK    2  A    between atoms: C_8  and  C_2 
REMARK    3  A    between atoms: S_9  and  C_3 
REMARK    4  A    between atoms: C_11  and  C_4 
REMARK    5  A    between atoms: O_20  and  C_7 
REMARK    6  A    between atoms: C_15  and  S_9 
REMARK    7  A    between atoms: C_12  and  C_15 
REMARK    8  A    between atoms: O_24  and  C_12 
REMARK    9  A    between atoms: C_18  and  C_26 
REMARK   10  A    between atoms: C_26  and  O_20 
REMARK   11  A    between atoms: C_27  and  O_24 
ROOT
ATOM      1  C   UNL d   1      60.822  48.281  50.275  0.00  0.00     0.081 A 
ATOM      2  C   UNL d   1      61.127  47.188  51.153  0.00  0.00     0.045 A 
ATOM      3  C   UNL d   1      61.402  46.740  50.484  0.00  0.00     0.112 A 
ATOM      4  C   UNL d   1      60.842  47.954  51.032  0.00  0.00     0.010 A 
ATOM      5  C   UNL d   1      61.089  47.845  49.623  0.00  0.00     0.087 A 
ATOM      6  N   UNL d   1      61.375  47.085  49.733  0.00  0.00    -0.239 NA
ATOM      7  C   UNL d   1      61.079  48.152  48.855  0.00  0.00     0.021 C 
ENDROOT
BRANCH   3   8
ATOM      8  S   UNL d   1      61.707  45.947  50.553  0.00  0.00    -0.062 SA
BRANCH   8   9
ATOM      9  C   UNL d   1      61.209  45.321  50.378  0.00  0.00     0.105 C 
BRANCH   9  10
ATOM     10  C   UNL d   1      61.530  44.558  50.323  0.00  0.00     0.307 C 
ATOM     11  O   UNL d   1      62.127  44.402  49.785  0.00  0.00    -0.258 OA
BRANCH  10  12
ATOM     12  O   UNL d   1      61.246  43.968  50.806  0.00  0.00    -0.271 OA
BRANCH  12  13
ATOM     13  C   UNL d   1      61.744  43.355  51.034  0.00  0.00     0.126 C 
ATOM     14  C   UNL d   1      61.426  42.691  51.397  0.00  0.00     0.029 C 
ENDBRANCH  12  13
ENDBRANCH  10  12
ENDBRANCH   9  10
ENDBRANCH   8   9
ENDBRANCH   3   8
BRANCH   2  15
ATOM     15  C   UNL d   1      61.138  46.875  51.939  0.00  0.00     0.124 C 
ATOM     16  N   UNL d   1      61.661  46.282  52.132  0.00  0.00    -0.146 N 
ENDBRANCH   2  15
BRANCH   4  17
ATOM     17  C   UNL d   1      60.576  48.387  51.679  0.00  0.00     0.000 A 
ATOM     18  C   UNL d   1      60.966  49.088  51.880  0.00  0.00     0.000 A 
ATOM     19  C   UNL d   1      60.722  49.537  52.518  0.00  0.00     0.000 A 
ATOM     20  C   UNL d   1      60.039  49.262  52.987  0.00  0.00     0.000 A 
ATOM     21  C   UNL d   1      59.662  48.561  52.772  0.00  0.00     0.000 A 
ATOM     22  C   UNL d   1      59.765  49.688  53.636  0.00  0.00     0.000 C 
ATOM     23  C   UNL d   1      59.929  48.125  52.121  0.00  0.00     0.000 A 
ENDBRANCH   4  17
BRANCH   1  24
ATOM     24  C   UNL d   1      60.523  49.073  50.174  0.00  0.00     0.302 C 
ATOM     25  O   UNL d   1      60.869  49.706  50.571  0.00  0.00    -0.259 OA
BRANCH  24  26
ATOM     26  O   UNL d   1      59.887  49.191  49.676  0.00  0.00    -0.271 OA
BRANCH  26  27
ATOM     27  C   UNL d   1      59.265  49.693  49.895  0.00  0.00     0.126 C 
BRANCH  27  28
ATOM     28  C   UNL d   1      58.568  49.705  49.463  0.00  0.00     0.027 C 
ATOM     29  C   UNL d   1      57.840  49.628  49.840  0.00  0.00     0.002 C 
ENDBRANCH  27  28
ENDBRANCH  26  27
ENDBRANCH  24  26
ENDBRANCH   1  24
TORSDOF 11
ENDMDL
MODEL 2
REMARK VINA RESULT:     101.6      1.156      2.166
REMARK  11 active torsions:
REMARK  status: ('A' for Active; 'I' for Inactive)
REMARK    1  A    between atoms: C_7  and  C_1 
REMARK    2  A    between atoms: C_8  and  C_2 
REMARK    3  A    between atoms: S_9  and  C_3 
REMARK    4  A    between atoms: C_11  and  C_4 
REMARK    5  A    between atoms: O_20  and  C_7 
REMARK    6  A    between atoms: C_15  and  S_9 
REMARK    7  A    between atoms: C_12  and  C_15 
REMARK    8  A    between atoms: O_24  and  C_12 
REMARK    9  A    between atoms: C_18  and  C_26 
REMARK   10  A    between atoms: C_26  and  O_20 
REMARK   11  A    between atoms: C_27  and  O_24 
ROOT
ATOM      1  C   UNL d   1      60.736  48.393  50.729  0.00  0.00     0.081 A 
ATOM      2  C   UNL d   1      59.982  47.175  50.645  0.00  0.00     0.045 A 
ATOM      3  C   UNL d   1      60.711  46.736  50.630  0.00  0.00     0.112 A 
ATOM      4  C   UNL d   1      60.012  47.999  50.694  0.00  0.00     0.010 A 
ATOM      5  C   UNL d   1      61.446  47.966  50.715  0.00  0.00     0.087 A 
ATOM      6  N   UNL d   1      61.426  47.148  50.666  0.00  0.00    -0.239 NA
ATOM      7  C   UNL d   1      62.184  48.338  50.748  0.00  0.00     0.021 C 
ENDROOT
BRANCH   3   8
ATOM      8  S   UNL d   1      60.736  45.886  50.580  0.00  0.00    -0.062 SA
BRANCH   8   9
ATOM      9  C   UNL d   1      61.125  45.471  51.170  0.00  0.00     0.105 C 
BRANCH   9  10
ATOM     10  C   UNL d   1      61.189  44.647  51.104  0.00  0.00     0.307 C 
ATOM     11  O   UNL d   1      61.215  44.296  50.365  0.00  0.00    -0.258 OA
BRANCH  10  12
ATOM     12  O   UNL d   1      61.225  44.192  51.778  0.00  0.00    -0.271 OA
BRANCH  12  13
ATOM     13  C   UNL d   1      61.875  43.706  51.905  0.00  0.00     0.126 C 
ATOM     14  C   UNL d   1      61.940  43.000  51.490  0.00  0.00     0.029 C 
ENDBRANCH  12  13
ENDBRANCH  10  12
ENDBRANCH   9  10
ENDBRANCH   8   9
ENDBRANCH   3   8
BRANCH   2  15
ATOM     15  C   UNL d   1      59.227  46.794  50.611  0.00  0.00     0.124 C 
ATOM     16  N   UNL d   1      59.006  46.280  51.202  0.00  0.00    -0.146 N 
ENDBRANCH   2  15
BRANCH   4  17
ATOM     17  C   UNL d   1      59.307  48.424  50.709  0.00  0.00     0.000 A 
ATOM     18  C   UNL d   1      59.153  48.925  51.348  0.00  0.00     0.000 A 
ATOM     19  C   UNL d   1      58.461  49.358  51.387  0.00  0.00     0.000 A 
ATOM     20  C   UNL d   1      57.882  49.281  50.737  0.00  0.00     0.000 A 
ATOM     21  C   UNL d   1      58.053  48.776  50.107  0.00  0.00     0.000 A 
ATOM     22  C   UNL d   1      57.174  49.701  50.742  0.00  0.00     0.000 C 
ATOM     23  C   UNL d   1      58.762  48.349  50.093  0.00  0.00     0.000 A 
ENDBRANCH   4  17
BRANCH   1  24
ATOM     24  C   UNL d   1      60.743  49.244  50.780  0.00  0.00     0.302 C 
ATOM     25  O   UNL d   1      60.723  49.704  50.098  0.00  0.00    -0.259 OA
BRANCH  24  26
ATOM     26  O   UNL d   1      60.770  49.592  51.517  0.00  0.00    -0.271 OA
BRANCH  26  27
ATOM     27  C   UNL d   1      61.492  49.699  51.909  0.00  0.00     0.126 C 
BRANCH  27  28
ATOM     28  C   UNL d   1      61.524  49.708  52.728  0.00  0.00     0.027 C 
ATOM     29  C   UNL d   1      60.931  49.352  53.174  0.00  0.00     0.002 C 
ENDBRANCH  27  28
ENDBRANCH  26  27
ENDBRANCH  24  26
ENDBRANCH   1  24
TORSDOF 11
ENDMDL
