MODEL 1
REMARK VINA RESULT:      -2.3      0.000      0.000
REMARK  7 active torsions:
REMARK  status: ('A' for Active; 'I' for Inactive)
REMARK    1  A    between atoms: C_6  and  N_2 
REMARK    2  A    between atoms: C_7  and  C_3 
REMARK    3  A    between atoms: C_15  and  C_6 
REMARK    4  A    between atoms: C_21  and  C_7 
REMARK    5  A    between atoms: C_8  and  O_14 
REMARK    6  A    between atoms: O_14  and  C_15 
REMARK    7  A    between atoms: C_19  and  C_21 
ROOT
ATOM      1  N   UNL d   1      32.314  22.873 -21.561  0.00  0.00    -0.227 NA
ATOM      2  N   UNL d   1      32.928  21.737 -21.990  0.00  0.00    -0.287 N 
ATOM      3  C   UNL d   1      32.542  22.098 -21.343  0.00  0.00     0.148 A 
ATOM      4  C   UNL d   1      32.938  22.295 -22.614  0.00  0.00     0.083 A 
ATOM      5  C   UNL d   1      32.564  22.985 -22.351  0.00  0.00     0.099 A 
ATOM      6  C   UNL d   1      33.240  22.263 -23.386  0.00  0.00     0.019 A 
ATOM      7  C   UNL d   1      32.491  23.637 -22.851  0.00  0.00     0.021 A 
ATOM      8  C   UNL d   1      33.166  22.915 -23.886  0.00  0.00     0.002 A 
ATOM      9  C   UNL d   1      32.792  23.602 -23.619  0.00  0.00     0.002 A 
ENDROOT
BRANCH   2  10
ATOM     10  C   UNL d   1      33.241  20.977 -22.017  0.00  0.00     0.108 C 
BRANCH  10  11
ATOM     11  C   UNL d   1      32.786  20.345 -22.307  0.00  0.00     0.142 C 
BRANCH  11  12
ATOM     12  O   UNL d   1      33.115  19.595 -22.354  0.00  0.00    -0.304 OA
BRANCH  12  13
ATOM     13  C   UNL d   1      32.833  19.057 -22.909  0.00  0.00     0.100 A 
ATOM     14  C   UNL d   1      32.823  19.263 -23.710  0.00  0.00     0.025 A 
ATOM     15  C   UNL d   1      32.542  18.724 -24.265  0.00  0.00     0.002 A 
ATOM     16  C   UNL d   1      32.269  17.977 -24.023  0.00  0.00     0.000 A 
ATOM     17  C   UNL d   1      32.282  17.779 -23.218  0.00  0.00     0.002 A 
ATOM     18  C   UNL d   1      31.988  17.443 -24.581  0.00  0.00     0.000 C 
ATOM     19  C   UNL d   1      32.566  18.321 -22.663  0.00  0.00     0.025 A 
ENDBRANCH  12  13
ENDBRANCH  11  12
ENDBRANCH  10  11
ENDBRANCH   2  10
BRANCH   3  20
ATOM     20  C   UNL d   1      32.240  22.133 -20.576  0.00  0.00     0.041 C 
BRANCH  20  21
ATOM     21  C   UNL d   1      32.662  22.531 -19.988  0.00  0.00     0.049 C 
BRANCH  21  22
ATOM     22  C   UNL d   1      32.304  22.685 -19.260  0.00  0.00     0.234 C 
ATOM     23  O   UNL d   1      32.767  22.858 -18.602  0.00  0.00    -0.283 OA
ENDBRANCH  21  22
ENDBRANCH  20  21
ENDBRANCH   3  20
TORSDOF 7
ENDMDL
MODEL 2
REMARK VINA RESULT:      -1.7      1.501      2.637
REMARK  7 active torsions:
REMARK  status: ('A' for Active; 'I' for Inactive)
REMARK    1  A    between atoms: C_6  and  N_2 
REMARK    2  A    between atoms: C_7  and  C_3 
REMARK    3  A    between atoms: C_15  and  C_6 
REMARK    4  A    between atoms: C_21  and  C_7 
REMARK    5  A    between atoms: C_8  and  O_14 
REMARK    6  A    between atoms: O_14  and  C_15 
REMARK    7  A    between atoms: C_19  and  C_21 
ROOT
ATOM      1  N   UNL d   1      32.766  22.310 -21.741  0.00  0.00    -0.227 NA
ATOM      2  N   UNL d   1      33.080  21.181 -22.433  0.00  0.00    -0.287 N 
ATOM      3  C   UNL d   1      32.883  21.989 -22.505  0.00  0.00     0.148 A 
ATOM      4  C   UNL d   1      33.086  21.000 -21.615  0.00  0.00     0.083 A 
ATOM      5  C   UNL d   1      32.895  21.687 -21.196  0.00  0.00     0.099 A 
ATOM      6  C   UNL d   1      33.241  20.299 -21.200  0.00  0.00     0.019 A 
ATOM      7  C   UNL d   1      32.857  21.678 -20.372  0.00  0.00     0.021 A 
ATOM      8  C   UNL d   1      33.203  20.289 -20.376  0.00  0.00     0.002 A 
ATOM      9  C   UNL d   1      33.012  20.978 -19.962  0.00  0.00     0.002 A 
ENDROOT
BRANCH   2  10
ATOM     10  C   UNL d   1      33.240  20.656 -23.044  0.00  0.00     0.108 C 
BRANCH  10  11
ATOM     11  C   UNL d   1      32.835  19.933 -23.095  0.00  0.00     0.142 C 
BRANCH  11  12
ATOM     12  O   UNL d   1      32.956  19.442 -23.741  0.00  0.00    -0.304 OA
BRANCH  12  13
ATOM     13  C   UNL d   1      32.531  18.741 -23.810  0.00  0.00     0.100 A 
ATOM     14  C   UNL d   1      31.943  18.673 -24.387  0.00  0.00     0.025 A 
ATOM     15  C   UNL d   1      31.519  17.972 -24.457  0.00  0.00     0.002 A 
ATOM     16  C   UNL d   1      31.679  17.334 -23.948  0.00  0.00     0.000 A 
ATOM     17  C   UNL d   1      32.270  17.409 -23.372  0.00  0.00     0.002 A 
ATOM     18  C   UNL d   1      31.251  16.635 -24.022  0.00  0.00     0.000 C 
ATOM     19  C   UNL d   1      32.695  18.115 -23.305  0.00  0.00     0.025 A 
ENDBRANCH  12  13
ENDBRANCH  11  12
ENDBRANCH  10  11
ENDBRANCH   2  10
BRANCH   3  20
ATOM     20  C   UNL d   1      32.728  22.689 -22.915  0.00  0.00     0.041 C 
BRANCH  20  21
ATOM     21  C   UNL d   1      33.136  22.854 -23.613  0.00  0.00     0.049 C 
BRANCH  21  22
ATOM     22  C   UNL d   1      33.024  23.578 -23.992  0.00  0.00     0.234 C 
ATOM     23  O   UNL d   1      33.238  23.668 -24.782  0.00  0.00    -0.283 OA
ENDBRANCH  21  22
ENDBRANCH  20  21
ENDBRANCH   3  20
TORSDOF 7
ENDMDL
MODEL 3
REMARK VINA RESULT:      -0.6      3.266      5.578
REMARK  7 active torsions:
REMARK  status: ('A' for Active; 'I' for Inactive)
REMARK    1  A    between atoms: C_6  and  N_2 
REMARK    2  A    between atoms: C_7  and  C_3 
REMARK    3  A    between atoms: C_15  and  C_6 
REMARK    4  A    between atoms: C_21  and  C_7 
REMARK    5  A    between atoms: C_8  and  O_14 
REMARK    6  A    between atoms: O_14  and  C_15 
REMARK    7  A    between atoms: C_19  and  C_21 
ROOT
ATOM      1  N   UNL d   1      33.020  17.730 -23.810  0.00  0.00    -0.227 NA
ATOM      2  N   UNL d   1      31.859  17.333 -24.400  0.00  0.00    -0.287 N 
ATOM      3  C   UNL d   1      32.409  17.959 -24.334  0.00  0.00     0.148 A 
ATOM      4  C   UNL d   1      32.134  16.711 -23.911  0.00  0.00     0.083 A 
ATOM      5  C   UNL d   1      32.839  16.954 -23.553  0.00  0.00     0.099 A 
ATOM      6  C   UNL d   1      31.831  15.956 -23.747  0.00  0.00     0.019 A 
ATOM      7  C   UNL d   1      33.241  16.451 -23.037  0.00  0.00     0.021 A 
ATOM      8  C   UNL d   1      32.232  15.453 -23.231  0.00  0.00     0.002 A 
ATOM      9  C   UNL d   1      32.937  15.701 -22.876  0.00  0.00     0.002 A 
ENDROOT
BRANCH   2  10
ATOM     10  C   UNL d   1      31.176  17.323 -24.856  0.00  0.00     0.108 C 
BRANCH  10  11
ATOM     11  C   UNL d   1      30.429  17.385 -24.496  0.00  0.00     0.142 C 
BRANCH  11  12
ATOM     12  O   UNL d   1      29.755  17.198 -24.924  0.00  0.00    -0.304 OA
BRANCH  12  13
ATOM     13  C   UNL d   1      29.125  16.820 -24.553  0.00  0.00     0.100 A 
ATOM     14  C   UNL d   1      28.761  17.175 -23.900  0.00  0.00     0.025 A 
ATOM     15  C   UNL d   1      28.131  16.797 -23.530  0.00  0.00     0.002 A 
ATOM     16  C   UNL d   1      27.860  16.062 -23.810  0.00  0.00     0.000 A 
ATOM     17  C   UNL d   1      28.230  15.713 -24.465  0.00  0.00     0.002 A 
ATOM     18  C   UNL d   1      27.230  15.689 -23.436  0.00  0.00     0.000 C 
ATOM     19  C   UNL d   1      28.863  16.095 -24.835  0.00  0.00     0.025 A 
ENDBRANCH  12  13
ENDBRANCH  11  12
ENDBRANCH  10  11
ENDBRANCH   2  10
BRANCH   3  20
ATOM     20  C   UNL d   1      32.713  18.709 -24.495  0.00  0.00     0.041 C 
BRANCH  20  21
ATOM     21  C   UNL d   1      32.736  19.279 -23.898  0.00  0.00     0.049 C 
BRANCH  21  22
ATOM     22  C   UNL d   1      33.169  19.972 -24.010  0.00  0.00     0.234 C 
ATOM     23  O   UNL d   1      32.855  20.697 -23.776  0.00  0.00    -0.283 OA
ENDBRANCH  21  22
ENDBRANCH  20  21
ENDBRANCH   3  20
TORSDOF 7
ENDMDL
MODEL 4
REMARK VINA RESULT:      -0.6      1.361      2.037
REMARK  7 active torsions:
REMARK  status: ('A' for Active; 'I' for Inactive)
REMARK    1  A    between atoms: C_6  and  N_2 
REMARK    2  A    between atoms: C_7  and  C_3 
REMARK    3  A    between atoms: C_15  and  C_6 
REMARK    4  A    between atoms: C_21  and  C_7 
REMARK    5  A    between atoms: C_8  and  O_14 
REMARK    6  A    between atoms: O_14  and  C_15 
REMARK    7  A    between atoms: C_19  and  C_21 
ROOT
ATOM      1  N   UNL d   1      33.207  21.222 -22.290  0.00  0.00    -0.227 NA
ATOM      2  N   UNL d   1      33.229  20.071 -23.017  0.00  0.00    -0.287 N 
ATOM      3  C   UNL d   1      33.215  20.387 -22.243  0.00  0.00     0.148 A 
ATOM      4  C   UNL d   1      33.230  20.720 -23.547  0.00  0.00     0.083 A 
ATOM      5  C   UNL d   1      33.216  21.418 -23.104  0.00  0.00     0.099 A 
ATOM      6  C   UNL d   1      33.241  20.761 -24.375  0.00  0.00     0.019 A 
ATOM      7  C   UNL d   1      33.214  22.152 -23.480  0.00  0.00     0.021 A 
ATOM      8  C   UNL d   1      33.238  21.495 -24.752  0.00  0.00     0.002 A 
ATOM      9  C   UNL d   1      33.225  22.190 -24.305  0.00  0.00     0.002 A 
ENDROOT
BRANCH   2  10
ATOM     10  C   UNL d   1      33.240  19.277 -23.225  0.00  0.00     0.108 C 
BRANCH  10  11
ATOM     11  C   UNL d   1      32.534  18.840 -23.253  0.00  0.00     0.142 C 
BRANCH  11  12
ATOM     12  O   UNL d   1      32.563  18.020 -23.285  0.00  0.00    -0.304 OA
BRANCH  12  13
ATOM     13  C   UNL d   1      31.892  17.593 -23.493  0.00  0.00     0.100 A 
ATOM     14  C   UNL d   1      31.857  16.782 -23.333  0.00  0.00     0.025 A 
ATOM     15  C   UNL d   1      31.185  16.355 -23.541  0.00  0.00     0.002 A 
ATOM     16  C   UNL d   1      30.544  16.735 -23.910  0.00  0.00     0.000 A 
ATOM     17  C   UNL d   1      30.587  17.548 -24.067  0.00  0.00     0.002 A 
ATOM     18  C   UNL d   1      29.875  16.303 -24.116  0.00  0.00     0.000 C 
ATOM     19  C   UNL d   1      31.263  17.975 -23.857  0.00  0.00     0.025 A 
ENDBRANCH  12  13
ENDBRANCH  11  12
ENDBRANCH  10  11
ENDBRANCH   2  10
BRANCH   3  20
ATOM     20  C   UNL d   1      33.204  20.348 -21.418  0.00  0.00     0.041 C 
BRANCH  20  21
ATOM     21  C   UNL d   1      32.658  20.799 -20.994  0.00  0.00     0.049 C 
BRANCH  21  22
ATOM     22  C   UNL d   1      32.820  21.010 -20.213  0.00  0.00     0.234 C 
ATOM     23  O   UNL d   1      32.204  21.087 -19.671  0.00  0.00    -0.283 OA
ENDBRANCH  21  22
ENDBRANCH  20  21
ENDBRANCH   3  20
TORSDOF 7
ENDMDL
