MODEL 1
REMARK VINA RESULT:       2.2      0.000      0.000
REMARK  4 active torsions:
REMARK  status: ('A' for Active; 'I' for Inactive)
REMARK    1  A    between atoms: N_5  and  S_1 
REMARK    2  A    between atoms: C_8  and  S_1 
REMARK    3  A    between atoms: C_2  and  C_11 
REMARK       I    between atoms: C_12  and  N_13 
REMARK    4  A    between atoms: N_13  and  C_21 
ROOT
ATOM      1  N   UNL d   1      32.957  22.833 -19.815  0.00  0.00    -0.229 N 
ATOM      2  C   UNL d   1      32.858  22.848 -21.634  0.00  0.00     0.039 A 
ATOM      3  C   UNL d   1      33.175  22.082 -20.293  0.00  0.00     0.092 A 
ATOM      4  C   UNL d   1      32.690  23.589 -20.249  0.00  0.00     0.092 A 
ATOM      5  C   UNL d   1      32.639  23.599 -21.165  0.00  0.00     0.023 A 
ATOM      6  C   UNL d   1      33.125  22.092 -21.201  0.00  0.00     0.023 A 
ENDROOT
BRANCH   1   7
ATOM      7  S   UNL d   1      33.003  22.822 -18.989  0.00  0.00     0.271 S 
ATOM      8  O   UNL d   1      33.207  23.625 -18.986  0.00  0.00    -0.200 OA
ATOM      9  O   UNL d   1      32.798  22.019 -18.996  0.00  0.00    -0.200 OA
BRANCH   7  10
ATOM     10  C   UNL d   1      33.045  22.796 -18.164  0.00  0.00     0.104 A 
ATOM     11  C   UNL d   1      33.199  22.100 -17.773  0.00  0.00     0.015 A 
ATOM     12  C   UNL d   1      33.241  22.075 -16.953  0.00  0.00     0.033 A 
ATOM     13  C   UNL d   1      33.121  22.779 -16.518  0.00  0.00     0.135 A 
ATOM     14  C   UNL d   1      32.963  23.493 -16.910  0.00  0.00     0.033 A 
ATOM     15  C   UNL d   1      32.925  23.500 -17.737  0.00  0.00     0.015 A 
BRANCH  13  16
ATOM     16  N   UNL d   1      33.161  22.765 -15.695  0.00  0.00    -0.365 NA
ATOM     17  C   UNL d   1      33.201  22.743 -14.867  0.00  0.00     0.328 C 
ATOM     18  O   UNL d   1      33.239  21.923 -14.880  0.00  0.00    -0.251 OA
ATOM     19  C   UNL d   1      33.240  22.736 -14.047  0.00  0.00     0.082 C 
ENDBRANCH  13  16
ENDBRANCH   7  10
ENDBRANCH   1   7
BRANCH   2  20
ATOM     20  C   UNL d   1      32.808  22.858 -22.549  0.00  0.00     0.163 A 
ATOM     21  N   UNL d   1      33.055  22.305 -23.003  0.00  0.00    -0.225 NA
ATOM     22  C   UNL d   1      32.918  22.514 -23.717  0.00  0.00     0.101 A 
ATOM     23  C   UNL d   1      33.060  22.155 -24.376  0.00  0.00     0.021 A 
ATOM     24  C   UNL d   1      32.587  23.192 -23.707  0.00  0.00     0.101 A 
ATOM     25  C   UNL d   1      32.860  22.498 -25.023  0.00  0.00     0.002 A 
ATOM     26  C   UNL d   1      32.528  23.181 -25.016  0.00  0.00     0.002 A 
ATOM     27  C   UNL d   1      32.395  23.519 -24.363  0.00  0.00     0.021 A 
ATOM     28  N   UNL d   1      32.518  23.408 -22.984  0.00  0.00    -0.225 NA
ENDBRANCH   2  20
TORSDOF 4
ENDMDL
