MODEL 1
REMARK VINA RESULT:      53.6      0.000      0.000
REMARK  6 active torsions:
REMARK  status: ('A' for Active; 'I' for Inactive)
REMARK    1  A    between atoms: C_9  and  N_1 
REMARK    2  A    between atoms: S_11  and  C_6 
REMARK    3  A    between atoms: C_24  and  S_11 
REMARK    4  A    between atoms: C_13  and  C_24 
REMARK       I    between atoms: N_18  and  C_13 
REMARK    5  A    between atoms: C_26  and  N_18 
REMARK    6  A    between atoms: C_25  and  C_26 
ROOT
ATOM      1  N   UNL d   1     -51.177  24.962  33.315  0.00  0.00    -0.212 N 
ATOM      2  C   UNL d   1     -51.171  25.783  33.313  0.00  0.00     0.169 A 
ATOM      3  N   UNL d   1     -50.413  24.693  33.320  0.00  0.00    -0.162 NA
ATOM      4  C   UNL d   1     -50.383  26.026  33.316  0.00  0.00     0.081 A 
ATOM      5  C   UNL d   1     -49.911  25.352  33.320  0.00  0.00     0.126 A 
ATOM      6  C   UNL d   1     -50.199  26.827  33.315  0.00  0.00     0.117 A 
ATOM      7  N   UNL d   1     -51.775  26.341  33.309  0.00  0.00    -0.205 NA
ATOM      8  N   UNL d   1     -50.803  27.389  33.311  0.00  0.00    -0.217 NA
ATOM      9  C   UNL d   1     -51.591  27.145  33.308  0.00  0.00     0.201 A 
ENDROOT
BRANCH   6  10
ATOM     10  S   UNL d   1     -49.410  27.070  33.318  0.00  0.00    -0.062 SA
BRANCH  10  11
ATOM     11  C   UNL d   1     -49.187  27.724  33.751  0.00  0.00     0.099 C 
BRANCH  11  12
ATOM     12  C   UNL d   1     -48.945  27.637  34.535  0.00  0.00     0.286 C 
ATOM     13  N   UNL d   1     -48.752  28.303  34.984  0.00  0.00    -0.206 NA
ATOM     14  O   UNL d   1     -48.898  26.885  34.872  0.00  0.00    -0.265 OA
BRANCH  13  15
ATOM     15  C   UNL d   1     -48.799  29.055  34.647  0.00  0.00     0.102 C 
BRANCH  15  16
ATOM     16  C   UNL d   1     -48.284  29.651  34.895  0.00  0.00     0.021 A 
ATOM     17  C   UNL d   1     -48.370  30.418  34.603  0.00  0.00     0.028 A 
ATOM     18  C   UNL d   1     -47.855  31.013  34.850  0.00  0.00     0.119 A 
ATOM     19  O   UNL d   1     -47.810  31.817  34.653  0.00  0.00    -0.300 OA
ATOM     20  C   UNL d   1     -47.254  30.842  35.391  0.00  0.00     0.119 A 
ATOM     21  C   UNL d   1     -47.185  32.134  35.072  0.00  0.00     0.304 A 
ATOM     22  O   UNL d   1     -46.841  31.546  35.524  0.00  0.00    -0.300 OA
ATOM     23  C   UNL d   1     -47.169  30.076  35.683  0.00  0.00     0.026 A 
ATOM     24  C   UNL d   1     -47.684  29.480  35.435  0.00  0.00     0.004 A 
ENDBRANCH  15  16
ENDBRANCH  13  15
ENDBRANCH  11  12
ENDBRANCH  10  11
ENDBRANCH   6  10
BRANCH   1  25
ATOM     25  C   UNL d   1     -51.899  24.551  33.313  0.00  0.00     0.085 A 
ATOM     26  C   UNL d   1     -52.608  24.968  33.309  0.00  0.00     0.020 A 
ATOM     27  C   UNL d   1     -53.320  24.567  33.307  0.00  0.00     0.013 A 
ATOM     28  C   UNL d   1     -53.328  23.733  33.308  0.00  0.00     0.058 A 
ATOM     29  C   UNL d   1     -52.609  23.326  33.311  0.00  0.00     0.013 A 
ATOM     30 CL   UNL d   1     -54.054  23.313  33.306  0.00  0.00    -0.082 Cl
ATOM     31  C   UNL d   1     -51.903  23.734  33.314  0.00  0.00     0.020 A 
ENDBRANCH   1  25
TORSDOF 6
ENDMDL
