MODEL 1
REMARK VINA RESULT:      -6.0      0.000      0.000
REMARK  3 active torsions:
REMARK  status: ('A' for Active; 'I' for Inactive)
REMARK    1  A    between atoms: C_4  and  S_1 
REMARK    2  A    between atoms: N_6  and  S_1 
REMARK    3  A    between atoms: C_2  and  C_8 
ROOT
ATOM      1  C   UNL d   1      58.674  -0.679  29.559  0.00  0.00     0.104 A 
ATOM      2  C   UNL d   1      58.195  -0.756  30.226  0.00  0.00     0.015 A 
ATOM      3  C   UNL d   1      57.740  -0.112  30.479  0.00  0.00     0.025 A 
ATOM      4  C   UNL d   1      58.702   0.035  29.146  0.00  0.00     0.012 A 
ATOM      5  C   UNL d   1      57.765   0.603  30.069  0.00  0.00     0.002 A 
ATOM      6  C   UNL d   1      58.249   0.672  29.401  0.00  0.00     0.001 A 
ATOM      7  C   UNL d   1      59.182   0.108  28.481  0.00  0.00     0.001 C 
ENDROOT
BRANCH   3   8
ATOM      8  C   UNL d   1      57.257  -0.186  31.147  0.00  0.00     0.111 A 
ATOM      9  N   UNL d   1      56.968  -0.894  31.452  0.00  0.00    -0.239 NA
ATOM     10  C   UNL d   1      56.511  -0.715  32.120  0.00  0.00     0.088 A 
ATOM     11  C   UNL d   1      56.090  -1.184  32.645  0.00  0.00     0.020 A 
ATOM     12  C   UNL d   1      56.525   0.105  32.220  0.00  0.00     0.049 A 
ATOM     13  C   UNL d   1      55.683  -0.843  33.267  0.00  0.00     0.002 A 
ATOM     14  C   UNL d   1      55.694  -0.019  33.370  0.00  0.00     0.001 A 
ATOM     15  C   UNL d   1      56.117   0.454  32.843  0.00  0.00     0.008 A 
ATOM     16  S   UNL d   1      56.990   0.431  31.611  0.00  0.00    -0.066 SA
ENDBRANCH   3   8
BRANCH   1  17
ATOM     17  S   UNL d   1      59.134  -1.320  29.298  0.00  0.00     0.271 S 
ATOM     18  O   UNL d   1      59.797  -0.992  29.676  0.00  0.00    -0.200 OA
ATOM     19  O   UNL d   1      58.374  -1.695  28.866  0.00  0.00    -0.200 OA
BRANCH  17  20
ATOM     20  N   UNL d   1      59.547  -1.971  29.018  0.00  0.00    -0.229 N 
ATOM     21  C   UNL d   1      60.366  -2.080  29.060  0.00  0.00     0.092 A 
ATOM     22  C   UNL d   1      60.548  -2.806  28.715  0.00  0.00     0.021 A 
ATOM     23  C   UNL d   1      59.837  -3.153  28.455  0.00  0.00     0.021 A 
ATOM     24  C   UNL d   1      59.224  -2.635  28.644  0.00  0.00     0.092 A 
ENDBRANCH  17  20
ENDBRANCH   1  17
TORSDOF 3
ENDMDL
MODEL 2
REMARK VINA RESULT:      -3.9      1.084      4.506
REMARK  3 active torsions:
REMARK  status: ('A' for Active; 'I' for Inactive)
REMARK    1  A    between atoms: C_4  and  S_1 
REMARK    2  A    between atoms: N_6  and  S_1 
REMARK    3  A    between atoms: C_2  and  C_8 
ROOT
ATOM      1  C   UNL d   1      57.808  -0.656  30.545  0.00  0.00     0.104 A 
ATOM      2  C   UNL d   1      58.232  -1.323  30.309  0.00  0.00     0.015 A 
ATOM      3  C   UNL d   1      58.641  -1.314  29.589  0.00  0.00     0.025 A 
ATOM      4  C   UNL d   1      57.791   0.017  30.068  0.00  0.00     0.012 A 
ATOM      5  C   UNL d   1      58.626  -0.644  29.109  0.00  0.00     0.002 A 
ATOM      6  C   UNL d   1      58.199   0.021  29.353  0.00  0.00     0.001 A 
ATOM      7  C   UNL d   1      57.367   0.681  30.306  0.00  0.00     0.001 C 
ENDROOT
BRANCH   3   8
ATOM      8  C   UNL d   1      59.067  -1.982  29.349  0.00  0.00     0.111 A 
ATOM      9  N   UNL d   1      58.745  -2.724  29.193  0.00  0.00    -0.239 NA
ATOM     10  C   UNL d   1      59.364  -3.228  28.970  0.00  0.00     0.088 A 
ATOM     11  C   UNL d   1      59.385  -4.018  28.753  0.00  0.00     0.020 A 
ATOM     12  C   UNL d   1      60.064  -2.788  28.991  0.00  0.00     0.049 A 
ATOM     13  C   UNL d   1      60.094  -4.374  28.558  0.00  0.00     0.002 A 
ATOM     14  C   UNL d   1      60.800  -3.935  28.577  0.00  0.00     0.001 A 
ATOM     15  C   UNL d   1      60.781  -3.140  28.795  0.00  0.00     0.008 A 
ATOM     16  S   UNL d   1      59.874  -2.012  29.227  0.00  0.00    -0.066 SA
ENDBRANCH   3   8
BRANCH   1  17
ATOM     17  S   UNL d   1      57.395  -0.656  31.266  0.00  0.00     0.271 S 
ATOM     18  O   UNL d   1      57.918  -0.080  31.559  0.00  0.00    -0.200 OA
ATOM     19  O   UNL d   1      56.798  -1.314  30.929  0.00  0.00    -0.200 OA
BRANCH  17  20
ATOM     20  N   UNL d   1      56.957  -0.690  31.958  0.00  0.00    -0.229 N 
ATOM     21  C   UNL d   1      56.986  -0.142  32.577  0.00  0.00     0.092 A 
ATOM     22  C   UNL d   1      56.460  -0.386  33.163  0.00  0.00     0.021 A 
ATOM     23  C   UNL d   1      56.099  -1.091  32.907  0.00  0.00     0.021 A 
ATOM     24  C   UNL d   1      56.408  -1.274  32.165  0.00  0.00     0.092 A 
ENDBRANCH  17  20
ENDBRANCH   1  17
TORSDOF 3
ENDMDL
