MODEL 1
REMARK VINA RESULT:      16.9      0.000      0.000
REMARK  6 active torsions:
REMARK  status: ('A' for Active; 'I' for Inactive)
REMARK    1  A    between atoms: C_2  and  S_1 
REMARK    2  A    between atoms: N_6  and  S_1 
REMARK    3  A    between atoms: C_14  and  N_6 
REMARK    4  A    between atoms: C_8  and  C_13 
REMARK    5  A    between atoms: C_13  and  C_15 
REMARK    6  A    between atoms: C_15  and  C_14 
ROOT
ATOM      1  S   UNL d   1      59.692  49.611  50.556  0.00  0.00     0.291 S 
ATOM      2  O   UNL d   1      59.129  49.667  51.170  0.00  0.00    -0.198 OA
ATOM      3  O   UNL d   1      60.248  49.555  49.943  0.00  0.00    -0.198 OA
ENDROOT
BRANCH   1   4
ATOM      4  C   UNL d   1      60.305  49.562  51.117  0.00  0.00     0.135 A 
ATOM      5  S   UNL d   1      61.091  49.384  50.970  0.00  0.00    -0.073 SA
ATOM      6  C   UNL d   1      61.502  49.396  51.688  0.00  0.00     0.036 A 
ATOM      7  C   UNL d   1      60.994  49.577  52.273  0.00  0.00     0.008 A 
ATOM      8  C   UNL d   1      60.239  49.685  51.938  0.00  0.00     0.020 A 
ENDBRANCH   1   4
BRANCH   1   9
ATOM      9  N   UNL d   1      59.075  49.660  49.989  0.00  0.00    -0.156 NA
BRANCH   9  10
ATOM     10  C   UNL d   1      58.282  49.673  50.220  0.00  0.00     0.112 C 
BRANCH  10  11
ATOM     11  C   UNL d   1      57.689  49.413  49.720  0.00  0.00     0.028 C 
BRANCH  11  12
ATOM     12  C   UNL d   1      56.914  49.363  49.992  0.00  0.00     0.072 C 
BRANCH  12  13
ATOM     13  C   UNL d   1      56.421  48.741  49.768  0.00  0.00     0.211 C 
ATOM     14  O   UNL d   1      56.192  48.633  48.975  0.00  0.00    -0.644 OA
ATOM     15  O   UNL d   1      56.143  48.206  50.329  0.00  0.00    -0.644 OA
ENDBRANCH  12  13
ENDBRANCH  11  12
ENDBRANCH  10  11
ENDBRANCH   9  10
ENDBRANCH   1   9
TORSDOF 6
ENDMDL
