MODEL 1
REMARK VINA RESULT:      -2.6      0.000      0.000
REMARK  8 active torsions:
REMARK  status: ('A' for Active; 'I' for Inactive)
REMARK    1  A    between atoms: S_5  and  C_2 
REMARK       I    between atoms: C_3  and  N_9 
REMARK    2  A    between atoms: C_16  and  C_3 
REMARK       I    between atoms: C_4  and  N_8 
REMARK    3  A    between atoms: C_17  and  C_4 
REMARK    4  A    between atoms: C_10  and  S_5 
REMARK    5  A    between atoms: S_11  and  C_6 
REMARK    6  A    between atoms: N_8  and  C_10 
REMARK    7  A    between atoms: N_9  and  C_12 
REMARK    8  A    between atoms: C_12  and  S_11 
ROOT
ATOM      1  N   UNL d   1      57.989  -0.685  30.424  0.00  0.00    -0.214 NA
ATOM      2  C   UNL d   1      58.604  -0.648  29.875  0.00  0.00     0.196 A 
ATOM      3  C   UNL d   1      57.494  -0.031  30.510  0.00  0.00     0.116 A 
ATOM      4  N   UNL d   1      58.734   0.030  29.410  0.00  0.00    -0.220 NA
ATOM      5  C   UNL d   1      57.601   0.644  30.065  0.00  0.00     0.047 A 
ATOM      6  C   UNL d   1      58.215   0.682  29.517  0.00  0.00     0.103 A 
ENDROOT
BRANCH   2   7
ATOM      7  S   UNL d   1      59.134  -1.285  29.750  0.00  0.00    -0.027 SA
BRANCH   7   8
ATOM      8  C   UNL d   1      58.859  -2.035  29.608  0.00  0.00     0.141 C 
BRANCH   8   9
ATOM      9  N   UNL d   1      59.437  -2.617  29.379  0.00  0.00    -0.199 NA
ATOM     10  C   UNL d   1      59.166  -3.385  29.146  0.00  0.00     0.280 C 
ATOM     11  O   UNL d   1      58.359  -3.554  29.146  0.00  0.00    -0.265 OA
BRANCH  10  12
ATOM     12  C   UNL d   1      59.691  -3.976  28.917  0.00  0.00     0.058 A 
ATOM     13  C   UNL d   1      60.496  -3.822  28.819  0.00  0.00     0.005 A 
ATOM     14  C   UNL d   1      61.004  -4.435  28.588  0.00  0.00     0.000 A 
ATOM     15  C   UNL d   1      60.712  -5.190  28.457  0.00  0.00     0.000 A 
ATOM     16  C   UNL d   1      59.922  -5.345  28.553  0.00  0.00     0.000 A 
ATOM     17  C   UNL d   1      59.403  -4.729  28.786  0.00  0.00     0.005 A 
ENDBRANCH  10  12
ENDBRANCH   8   9
ENDBRANCH   7   8
ENDBRANCH   2   7
BRANCH   3  18
ATOM     18  S   UNL d   1      56.873  -0.060  31.060  0.00  0.00    -0.047 SA
BRANCH  18  19
ATOM     19  C   UNL d   1      57.023  -0.309  31.832  0.00  0.00     0.139 C 
BRANCH  19  20
ATOM     20  N   UNL d   1      56.635   0.047  32.461  0.00  0.00    -0.199 NA
ATOM     21  C   UNL d   1      56.140  -0.400  32.941  0.00  0.00     0.280 C 
ATOM     22  O   UNL d   1      56.037  -1.212  32.784  0.00  0.00    -0.265 OA
BRANCH  21  23
ATOM     23  C   UNL d   1      55.748  -0.044  33.574  0.00  0.00     0.058 A 
ATOM     24  C   UNL d   1      56.174   0.248  34.214  0.00  0.00     0.005 A 
ATOM     25  C   UNL d   1      55.807   0.607  34.857  0.00  0.00     0.000 A 
ATOM     26  C   UNL d   1      54.982   0.681  34.869  0.00  0.00     0.000 A 
ATOM     27  C   UNL d   1      54.521   0.392  34.228  0.00  0.00     0.000 A 
ATOM     28  C   UNL d   1      54.920   0.031  33.586  0.00  0.00     0.005 A 
ENDBRANCH  21  23
ENDBRANCH  19  20
ENDBRANCH  18  19
ENDBRANCH   3  18
TORSDOF 8
ENDMDL
