MODEL 1
REMARK VINA RESULT:      -5.8      0.000      0.000
REMARK  0 active torsions:
REMARK  status: ('A' for Active; 'I' for Inactive)
ROOT
ATOM      1  C   UNL d   1      57.658   0.138  31.137  0.00  0.00     0.191 A 
ATOM      2  S   UNL d   1      58.523  -0.060  29.996  0.00  0.00     0.289 S 
ATOM      3  N   UNL d   1      58.203   0.434  30.589  0.00  0.00    -0.134 NA
ATOM      4  N   UNL d   1      57.434  -0.656  31.088  0.00  0.00    -0.284 N 
ATOM      5  S   UNL d   1      57.260   0.472  31.759  0.00  0.00    -0.048 SA
ATOM      6  C   UNL d   1      56.790  -0.105  32.101  0.00  0.00     0.048 A 
ATOM      7  C   UNL d   1      56.899  -0.807  31.682  0.00  0.00     0.072 A 
ATOM      8  C   UNL d   1      58.291  -0.854  29.957  0.00  0.00     0.137 A 
ATOM      9  C   UNL d   1      56.271  -0.099  32.739  0.00  0.00     0.007 A 
ATOM     10  C   UNL d   1      57.751  -1.156  30.496  0.00  0.00     0.096 A 
ATOM     11  O   UNL d   1      58.856   0.681  29.890  0.00  0.00    -0.198 OA
ATOM     12  O   UNL d   1      58.964  -0.289  29.363  0.00  0.00    -0.198 OA
ATOM     13  C   UNL d   1      56.466  -1.515  31.925  0.00  0.00     0.018 A 
ATOM     14  C   UNL d   1      55.854  -0.780  32.973  0.00  0.00     0.001 A 
ATOM     15  C   UNL d   1      55.953  -1.471  32.571  0.00  0.00     0.002 A 
ATOM     16  C   UNL d   1      56.176   0.633  33.153  0.00  0.00     0.001 A 
ATOM     17  C   UNL d   1      55.339  -0.733  33.623  0.00  0.00     0.000 A 
ATOM     18  C   UNL d   1      55.664   0.677  33.798  0.00  0.00     0.000 A 
ATOM     19  C   UNL d   1      55.230  -0.031  34.041  0.00  0.00     0.000 A 
ENDROOT
TORSDOF 0
ENDMDL
MODEL 2
REMARK VINA RESULT:      -5.1      0.882      1.482
REMARK  0 active torsions:
REMARK  status: ('A' for Active; 'I' for Inactive)
ROOT
ATOM      1  C   UNL d   1      57.783  -0.422  30.638  0.00  0.00     0.191 A 
ATOM      2  S   UNL d   1      58.738  -0.057  29.617  0.00  0.00     0.289 S 
ATOM      3  N   UNL d   1      58.116  -0.544  29.890  0.00  0.00    -0.134 NA
ATOM      4  N   UNL d   1      58.076   0.189  31.111  0.00  0.00    -0.284 N 
ATOM      5  S   UNL d   1      57.189  -0.792  31.047  0.00  0.00    -0.048 SA
ATOM      6  C   UNL d   1      57.107  -0.420  31.772  0.00  0.00     0.048 A 
ATOM      7  C   UNL d   1      57.661   0.192  31.811  0.00  0.00     0.072 A 
ATOM      8  C   UNL d   1      59.023   0.551  30.099  0.00  0.00     0.137 A 
ATOM      9  C   UNL d   1      56.607  -0.544  32.413  0.00  0.00     0.007 A 
ATOM     10  C   UNL d   1      58.700   0.679  30.843  0.00  0.00     0.096 A 
ATOM     11  O   UNL d   1      58.583  -0.599  29.021  0.00  0.00    -0.198 OA
ATOM     12  O   UNL d   1      59.306   0.235  29.128  0.00  0.00    -0.198 OA
ATOM     13  C   UNL d   1      57.698   0.682  32.522  0.00  0.00     0.018 A 
ATOM     14  C   UNL d   1      56.643  -0.072  33.097  0.00  0.00     0.001 A 
ATOM     15  C   UNL d   1      57.179   0.527  33.145  0.00  0.00     0.002 A 
ATOM     16  C   UNL d   1      56.048  -1.176  32.350  0.00  0.00     0.001 A 
ATOM     17  C   UNL d   1      56.120  -0.230  33.722  0.00  0.00     0.000 A 
ATOM     18  C   UNL d   1      55.530  -1.331  32.972  0.00  0.00     0.000 A 
ATOM     19  C   UNL d   1      55.567  -0.841  33.684  0.00  0.00     0.000 A 
ENDROOT
TORSDOF 0
ENDMDL
MODEL 3
REMARK VINA RESULT:      -5.0      1.338      1.620
REMARK  0 active torsions:
REMARK  status: ('A' for Active; 'I' for Inactive)
ROOT
ATOM      1  C   UNL d   1      57.067   0.672  31.388  0.00  0.00     0.191 A 
ATOM      2  S   UNL d   1      58.027   0.678  30.308  0.00  0.00     0.289 S 
ATOM      3  N   UNL d   1      57.236   0.673  30.578  0.00  0.00    -0.134 NA
ATOM      4  N   UNL d   1      57.693   0.675  31.927  0.00  0.00    -0.284 N 
ATOM      5  S   UNL d   1      56.375   0.668  31.810  0.00  0.00    -0.048 SA
ATOM      6  C   UNL d   1      56.561   0.668  32.607  0.00  0.00     0.048 A 
ATOM      7  C   UNL d   1      57.383   0.673  32.679  0.00  0.00     0.072 A 
ATOM      8  C   UNL d   1      58.646   0.681  30.857  0.00  0.00     0.137 A 
ATOM      9  C   UNL d   1      56.102   0.665  33.290  0.00  0.00     0.007 A 
ATOM     10  C   UNL d   1      58.488   0.680  31.662  0.00  0.00     0.096 A 
ATOM     11  O   UNL d   1      57.550   0.676  29.641  0.00  0.00    -0.198 OA
ATOM     12  O   UNL d   1      58.648   0.682  29.797  0.00  0.00    -0.198 OA
ATOM     13  C   UNL d   1      57.738   0.675  33.468  0.00  0.00     0.018 A 
ATOM     14  C   UNL d   1      56.443   0.667  34.049  0.00  0.00     0.001 A 
ATOM     15  C   UNL d   1      57.245   0.672  34.130  0.00  0.00     0.002 A 
ATOM     16  C   UNL d   1      55.262   0.661  33.191  0.00  0.00     0.001 A 
ATOM     17  C   UNL d   1      55.945   0.664  34.713  0.00  0.00     0.000 A 
ATOM     18  C   UNL d   1      54.770   0.657  33.852  0.00  0.00     0.000 A 
ATOM     19  C   UNL d   1      55.124   0.659  34.641  0.00  0.00     0.000 A 
ENDROOT
TORSDOF 0
ENDMDL
MODEL 4
REMARK VINA RESULT:      -4.2      2.713      4.033
REMARK  0 active torsions:
REMARK  status: ('A' for Active; 'I' for Inactive)
ROOT
ATOM      1  C   UNL d   1      55.868   0.674  33.010  0.00  0.00     0.191 A 
ATOM      2  S   UNL d   1      55.058   0.679  34.207  0.00  0.00     0.289 S 
ATOM      3  N   UNL d   1      55.124   0.677  33.374  0.00  0.00    -0.134 NA
ATOM      4  N   UNL d   1      56.544   0.674  33.484  0.00  0.00    -0.284 N 
ATOM      5  S   UNL d   1      56.105   0.672  32.235  0.00  0.00    -0.048 SA
ATOM      6  C   UNL d   1      56.924   0.670  32.219  0.00  0.00     0.048 A 
ATOM      7  C   UNL d   1      57.197   0.672  32.998  0.00  0.00     0.072 A 
ATOM      8  C   UNL d   1      55.743   0.679  34.671  0.00  0.00     0.137 A 
ATOM      9  C   UNL d   1      57.473   0.668  31.606  0.00  0.00     0.007 A 
ATOM     10  C   UNL d   1      56.484   0.677  34.319  0.00  0.00     0.096 A 
ATOM     11  O   UNL d   1      54.294   0.680  33.909  0.00  0.00    -0.198 OA
ATOM     12  O   UNL d   1      54.716   0.682  34.935  0.00  0.00    -0.198 OA
ATOM     13  C   UNL d   1      58.049   0.671  33.146  0.00  0.00     0.018 A 
ATOM     14  C   UNL d   1      58.292   0.666  31.748  0.00  0.00     0.001 A 
ATOM     15  C   UNL d   1      58.569   0.668  32.505  0.00  0.00     0.002 A 
ATOM     16  C   UNL d   1      57.169   0.666  30.816  0.00  0.00     0.001 A 
ATOM     17  C   UNL d   1      58.813   0.664  31.102  0.00  0.00     0.000 A 
ATOM     18  C   UNL d   1      57.688   0.663  30.175  0.00  0.00     0.000 A 
ATOM     19  C   UNL d   1      58.541   0.662  30.324  0.00  0.00     0.000 A 
ENDROOT
TORSDOF 0
ENDMDL
MODEL 5
REMARK VINA RESULT:      -4.2      1.989      3.941
REMARK  0 active torsions:
REMARK  status: ('A' for Active; 'I' for Inactive)
ROOT
ATOM      1  C   UNL d   1      56.733  -0.845  31.867  0.00  0.00     0.191 A 
ATOM      2  S   UNL d   1      55.885  -0.508  32.988  0.00  0.00     0.289 S 
ATOM      3  N   UNL d   1      56.152  -1.057  32.418  0.00  0.00    -0.134 NA
ATOM      4  N   UNL d   1      57.044  -0.080  31.890  0.00  0.00    -0.284 N 
ATOM      5  S   UNL d   1      57.095  -1.244  31.263  0.00  0.00    -0.048 SA
ATOM      6  C   UNL d   1      57.631  -0.737  30.906  0.00  0.00     0.048 A 
ATOM      7  C   UNL d   1      57.598  -0.012  31.298  0.00  0.00     0.072 A 
ATOM      8  C   UNL d   1      56.204   0.255  33.001  0.00  0.00     0.137 A 
ATOM      9  C   UNL d   1      58.152  -0.825  30.276  0.00  0.00     0.007 A 
ATOM     10  C   UNL d   1      56.780   0.475  32.459  0.00  0.00     0.096 A 
ATOM     11  O   UNL d   1      55.469  -1.203  33.117  0.00  0.00    -0.198 OA
ATOM     12  O   UNL d   1      55.467  -0.208  33.606  0.00  0.00    -0.198 OA
ATOM     13  C   UNL d   1      58.111   0.633  31.035  0.00  0.00     0.018 A 
ATOM     14  C   UNL d   1      58.645  -0.205  30.023  0.00  0.00     0.001 A 
ATOM     15  C   UNL d   1      58.621   0.507  30.399  0.00  0.00     0.002 A 
ATOM     16  C   UNL d   1      58.168  -1.578  29.890  0.00  0.00     0.001 A 
ATOM     17  C   UNL d   1      59.157  -0.334  29.382  0.00  0.00     0.000 A 
ATOM     18  C   UNL d   1      58.677  -1.704  29.254  0.00  0.00     0.000 A 
ATOM     19  C   UNL d   1      59.190  -1.059  28.991  0.00  0.00     0.000 A 
ENDROOT
TORSDOF 0
ENDMDL
MODEL 6
REMARK VINA RESULT:      -3.3      9.726     10.128
REMARK  0 active torsions:
REMARK  status: ('A' for Active; 'I' for Inactive)
ROOT
ATOM      1  C   UNL d   1      58.466  -9.728  32.848  0.00  0.00     0.191 A 
ATOM      2  S   UNL d   1      57.824  -9.783  31.555  0.00  0.00     0.289 S 
ATOM      3  N   UNL d   1      57.778  -9.738  32.389  0.00  0.00    -0.134 NA
ATOM      4  N   UNL d   1      59.200  -9.763  32.470  0.00  0.00    -0.284 N 
ATOM      5  S   UNL d   1      58.598  -9.689  33.647  0.00  0.00    -0.048 SA
ATOM      6  C   UNL d   1      59.408  -9.699  33.773  0.00  0.00     0.048 A 
ATOM      7  C   UNL d   1      59.781  -9.745  33.039  0.00  0.00     0.072 A 
ATOM      8  C   UNL d   1      58.564  -9.817  31.188  0.00  0.00     0.137 A 
ATOM      9  C   UNL d   1      59.869  -9.673  34.453  0.00  0.00     0.007 A 
ATOM     10  C   UNL d   1      59.251  -9.808  31.636  0.00  0.00     0.096 A 
ATOM     11  O   UNL d   1      57.027  -9.757  31.747  0.00  0.00    -0.198 OA
ATOM     12  O   UNL d   1      57.582  -9.818  30.789  0.00  0.00    -0.198 OA
ATOM     13  C   UNL d   1      60.645  -9.764  33.006  0.00  0.00     0.018 A 
ATOM     14  C   UNL d   1      60.700  -9.692  34.422  0.00  0.00     0.001 A 
ATOM     15  C   UNL d   1      61.075  -9.736  33.710  0.00  0.00     0.002 A 
ATOM     16  C   UNL d   1      59.463  -9.626  35.194  0.00  0.00     0.001 A 
ATOM     17  C   UNL d   1      61.130  -9.663  35.131  0.00  0.00     0.000 A 
ATOM     18  C   UNL d   1      59.892  -9.598  35.898  0.00  0.00     0.000 A 
ATOM     19  C   UNL d   1      60.757  -9.618  35.865  0.00  0.00     0.000 A 
ENDROOT
TORSDOF 0
ENDMDL
MODEL 7
REMARK VINA RESULT:      -2.9      1.888      4.287
REMARK  0 active torsions:
REMARK  status: ('A' for Active; 'I' for Inactive)
ROOT
ATOM      1  C   UNL d   1      57.551  -0.929  30.957  0.00  0.00     0.191 A 
ATOM      2  S   UNL d   1      56.557  -0.594  31.950  0.00  0.00     0.289 S 
ATOM      3  N   UNL d   1      56.888  -1.136  31.407  0.00  0.00    -0.134 NA
ATOM      4  N   UNL d   1      57.881  -0.178  31.053  0.00  0.00    -0.284 N 
ATOM      5  S   UNL d   1      57.987  -1.324  30.399  0.00  0.00    -0.048 SA
ATOM      6  C   UNL d   1      58.587  -0.828  30.144  0.00  0.00     0.048 A 
ATOM      7  C   UNL d   1      58.520  -0.114  30.553  0.00  0.00     0.072 A 
ATOM      8  C   UNL d   1      56.896   0.156  32.038  0.00  0.00     0.137 A 
ATOM      9  C   UNL d   1      59.193  -0.916  29.595  0.00  0.00     0.007 A 
ATOM     10  C   UNL d   1      57.554   0.369  31.596  0.00  0.00     0.096 A 
ATOM     11  O   UNL d   1      56.104  -1.276  31.991  0.00  0.00    -0.198 OA
ATOM     12  O   UNL d   1      56.062  -0.296  32.510  0.00  0.00    -0.198 OA
ATOM     13  C   UNL d   1      59.088   0.519  30.392  0.00  0.00     0.018 A 
ATOM     14  C   UNL d   1      59.739  -0.308  29.441  0.00  0.00     0.001 A 
ATOM     15  C   UNL d   1      59.683   0.392  29.834  0.00  0.00     0.002 A 
ATOM     16  C   UNL d   1      59.241  -1.657  29.189  0.00  0.00     0.001 A 
ATOM     17  C   UNL d   1      60.337  -0.437  28.879  0.00  0.00     0.000 A 
ATOM     18  C   UNL d   1      59.835  -1.783  28.632  0.00  0.00     0.000 A 
ATOM     19  C   UNL d   1      60.403  -1.151  28.471  0.00  0.00     0.000 A 
ENDROOT
TORSDOF 0
ENDMDL
