MODEL 1
REMARK VINA RESULT:      71.4      0.000      0.000
REMARK  4 active torsions:
REMARK  status: ('A' for Active; 'I' for Inactive)
REMARK    1  A    between atoms: N_2  and  C_1 
REMARK    2  A    between atoms: C_3  and  C_1 
REMARK       I    between atoms: C_6  and  N_2 
REMARK       I    between atoms: N_8  and  C_6 
REMARK    3  A    between atoms: N_11  and  C_7 
REMARK    4  A    between atoms: C_9  and  N_8 
ROOT
ATOM      1  N   UNL d   1     -55.927-100.342 -43.092  0.00  0.00    -0.159 NA
ATOM      2  C   UNL d   1     -55.671-101.026 -42.709  0.00  0.00     0.370 C 
ATOM      3  N   UNL d   1     -55.499-101.001 -41.908  0.00  0.00    -0.172 NA
ATOM      4  O   UNL d   1     -55.589-101.732 -43.128  0.00  0.00    -0.243 OA
ENDROOT
BRANCH   1   5
ATOM      5  C   UNL d   1     -56.173 -99.962 -43.771  0.00  0.00     0.386 A 
ATOM      6  O   UNL d   1     -56.881 -99.931 -43.348  0.00  0.00    -0.283 OA
ATOM      7  C   UNL d   1     -57.449 -99.549 -43.808  0.00  0.00     0.121 A 
ATOM      8  C   UNL d   1     -58.241 -99.365 -43.670  0.00  0.00     0.026 A 
ATOM      9  C   UNL d   1     -57.090 -99.340 -44.524  0.00  0.00     0.121 A 
ATOM     10  C   UNL d   1     -58.674 -98.973 -44.246  0.00  0.00     0.002 A 
ATOM     11  C   UNL d   1     -58.318 -98.761 -44.967  0.00  0.00     0.002 A 
ATOM     12  C   UNL d   1     -57.528 -98.948 -45.098  0.00  0.00     0.026 A 
ATOM     13  O   UNL d   1     -56.311 -99.593 -44.500  0.00  0.00    -0.283 OA
BRANCH   5  14
ATOM     14  C   UNL d   1     -55.421-100.049 -44.099  0.00  0.00     0.470 C 
ATOM     15  F   UNL d   1     -54.958-100.760 -44.221  0.00  0.00    -0.164 F 
ATOM     16  F   UNL d   1     -54.892 -99.438 -44.411  0.00  0.00    -0.164 F 
ATOM     17  F   UNL d   1     -54.736-100.121 -44.399  0.00  0.00    -0.164 F 
ENDBRANCH   5  14
ENDBRANCH   1   5
BRANCH   3  18
ATOM     18  C   UNL d   1     -55.235-101.559 -41.352  0.00  0.00     0.172 A 
ATOM     19  C   UNL d   1     -55.172-101.349 -40.564  0.00  0.00     0.076 A 
ATOM     20  C   UNL d   1     -54.911-101.900 -40.006  0.00  0.00     0.153 A 
ATOM     21  N   UNL d   1     -54.713-102.672 -40.255  0.00  0.00    -0.206 NA
ATOM     22  C   UNL d   1     -54.779-102.878 -41.051  0.00  0.00     0.202 A 
ATOM     23  N   UNL d   1     -55.040-102.326 -41.604  0.00  0.00    -0.205 NA
BRANCH  20  24
ATOM     24  N   UNL d   1     -54.845-101.694 -39.210  0.00  0.00    -0.285 N 
ATOM     25  C   UNL d   1     -54.808-100.903 -38.994  0.00  0.00     0.108 A 
ATOM     26  C   UNL d   1     -54.742-100.710 -38.193  0.00  0.00     0.142 A 
ATOM     27  O   UNL d   1     -54.712-101.296 -37.618  0.00  0.00    -0.300 OA
ATOM     28  C   UNL d   1     -54.750-102.087 -37.844  0.00  0.00     0.142 A 
ATOM     29  C   UNL d   1     -54.816-102.293 -38.640  0.00  0.00     0.108 A 
ENDBRANCH  20  24
ENDBRANCH   3  18
TORSDOF 4
ENDMDL
