MODEL 1
REMARK VINA RESULT:      30.4      0.000      0.000
REMARK  2 active torsions:
REMARK  status: ('A' for Active; 'I' for Inactive)
REMARK    1  A    between atoms: C_3  and  C_1 
REMARK       I    between atoms: N_6  and  C_3 
REMARK    2  A    between atoms: C_11  and  N_6 
ROOT
ATOM      1  C   UNL d   1      14.158  13.045  -2.344  0.00  0.00     0.121 A 
ATOM      2  C   UNL d   1      14.174  12.291  -2.319  0.00  0.00     0.305 A 
ATOM      3  C   UNL d   1      13.809  13.435  -2.979  0.00  0.00     0.012 A 
ATOM      4  O   UNL d   1      13.821  11.795  -2.966  0.00  0.00    -0.273 OA
ATOM      5  C   UNL d   1      13.467  13.029  -3.608  0.00  0.00     0.023 A 
ATOM      6  C   UNL d   1      13.473  12.198  -3.601  0.00  0.00     0.103 A 
ATOM      7  O   UNL d   1      14.527  11.862  -1.676  0.00  0.00    -0.259 OA
ATOM      8  C   UNL d   1      13.127  13.424  -4.228  0.00  0.00     0.002 A 
ATOM      9  C   UNL d   1      13.139  11.779  -4.214  0.00  0.00     0.025 A 
ATOM     10  C   UNL d   1      12.784  13.014  -4.856  0.00  0.00     0.000 A 
ATOM     11  C   UNL d   1      12.790  12.183  -4.849  0.00  0.00     0.002 A 
ENDROOT
BRANCH   1  12
ATOM     12  C   UNL d   1      14.499  13.472  -1.719  0.00  0.00     0.284 C 
ATOM     13  N   UNL d   1      14.689  14.179  -1.829  0.00  0.00    -0.208 NA
ATOM     14  O   UNL d   1      14.622  13.114  -0.988  0.00  0.00    -0.265 OA
BRANCH  13  15
ATOM     15  C   UNL d   1      15.048  14.694  -1.232  0.00  0.00     0.087 A 
ATOM     16  C   UNL d   1      15.036  15.512  -1.232  0.00  0.00     0.049 A 
ATOM     17  C   UNL d   1      15.396  15.948  -0.635  0.00  0.00     0.142 A 
ATOM     18  F   UNL d   1      15.382  16.764  -0.640  0.00  0.00    -0.204 F 
ATOM     19  C   UNL d   1      15.784  15.542  -0.014  0.00  0.00     0.030 A 
ATOM     20  C   UNL d   1      15.794  14.718  -0.018  0.00  0.00     0.004 A 
ATOM     21  C   UNL d   1      15.437  14.286  -0.608  0.00  0.00     0.019 A 
ENDBRANCH  13  15
ENDBRANCH   1  12
TORSDOF 2
ENDMDL
MODEL 2
REMARK VINA RESULT:      31.3      1.666      4.281
REMARK  2 active torsions:
REMARK  status: ('A' for Active; 'I' for Inactive)
REMARK    1  A    between atoms: C_3  and  C_1 
REMARK       I    between atoms: N_6  and  C_3 
REMARK    2  A    between atoms: C_11  and  N_6 
ROOT
ATOM      1  C   UNL d   1      14.650  13.422  -1.676  0.00  0.00     0.121 A 
ATOM      2  C   UNL d   1      15.039  13.113  -1.109  0.00  0.00     0.305 A 
ATOM      3  C   UNL d   1      14.587  14.240  -1.744  0.00  0.00     0.012 A 
ATOM      4  O   UNL d   1      15.443  13.611  -0.495  0.00  0.00    -0.273 OA
ATOM      5  C   UNL d   1      14.939  14.752  -1.205  0.00  0.00     0.023 A 
ATOM      6  C   UNL d   1      15.373  14.433  -0.572  0.00  0.00     0.103 A 
ATOM      7  O   UNL d   1      15.121  12.272  -1.015  0.00  0.00    -0.259 OA
ATOM      8  C   UNL d   1      14.870  15.556  -1.282  0.00  0.00     0.002 A 
ATOM      9  C   UNL d   1      15.730  14.925  -0.029  0.00  0.00     0.025 A 
ATOM     10  C   UNL d   1      15.226  16.066  -0.740  0.00  0.00     0.000 A 
ATOM     11  C   UNL d   1      15.660  15.747  -0.107  0.00  0.00     0.002 A 
ENDROOT
BRANCH   1  12
ATOM     12  C   UNL d   1      14.286  12.921  -2.230  0.00  0.00     0.284 C 
ATOM     13  N   UNL d   1      14.181  13.166  -2.921  0.00  0.00    -0.208 NA
ATOM     14  O   UNL d   1      14.048  12.164  -2.013  0.00  0.00    -0.265 OA
BRANCH  13  15
ATOM     15  C   UNL d   1      13.810  12.709  -3.557  0.00  0.00     0.087 A 
ATOM     16  C   UNL d   1      14.042  12.703  -4.341  0.00  0.00     0.049 A 
ATOM     17  C   UNL d   1      13.651  12.247  -4.903  0.00  0.00     0.142 A 
ATOM     18  F   UNL d   1      13.885  12.243  -5.684  0.00  0.00    -0.204 F 
ATOM     19  C   UNL d   1      12.999  11.779  -4.662  0.00  0.00     0.030 A 
ATOM     20  C   UNL d   1      12.769  11.789  -3.870  0.00  0.00     0.004 A 
ATOM     21  C   UNL d   1      13.157  12.240  -3.315  0.00  0.00     0.019 A 
ENDBRANCH  13  15
ENDBRANCH   1  12
TORSDOF 2
ENDMDL
