MODEL 1
REMARK VINA RESULT:      -2.6      0.000      0.000
REMARK  4 active torsions:
REMARK  status: ('A' for Active; 'I' for Inactive)
REMARK    1  A    between atoms: C_2  and  C_1 
REMARK       I    between atoms: N_5  and  C_1 
REMARK    2  A    between atoms: C_4  and  C_2 
REMARK    3  A    between atoms: C_3  and  C_4 
REMARK    4  A    between atoms: C_9  and  N_5 
ROOT
ATOM      1  C   UNL d   1      32.854  21.070 -21.613  0.00  0.00     0.280 C 
ATOM      2  N   UNL d   1      33.197  21.831 -21.648  0.00  0.00    -0.208 NA
ATOM      3  O   UNL d   1      32.186  20.925 -21.153  0.00  0.00    -0.265 OA
ENDROOT
BRANCH   1   4
ATOM      4  C   UNL d   1      33.191  20.458 -22.044  0.00  0.00     0.069 C 
BRANCH   4   5
ATOM      5  C   UNL d   1      32.801  19.719 -22.090  0.00  0.00     0.075 C 
BRANCH   5   6
ATOM      6  C   UNL d   1      33.089  19.133 -22.611  0.00  0.00     0.211 C 
ATOM      7  O   UNL d   1      33.235  18.360 -22.323  0.00  0.00    -0.644 OA
ATOM      8  O   UNL d   1      33.236  19.298 -23.411  0.00  0.00    -0.644 OA
ENDBRANCH   5   6
ENDBRANCH   4   5
ENDBRANCH   1   4
BRANCH   2   9
ATOM      9  C   UNL d   1      32.852  22.451 -21.207  0.00  0.00     0.085 A 
ATOM     10  C   UNL d   1      32.242  22.904 -21.535  0.00  0.00     0.019 A 
ATOM     11  C   UNL d   1      31.901  23.512 -21.107  0.00  0.00     0.002 A 
ATOM     12  C   UNL d   1      32.159  23.682 -20.345  0.00  0.00     0.000 A 
ATOM     13  C   UNL d   1      32.778  23.227 -20.003  0.00  0.00     0.002 A 
ATOM     14  C   UNL d   1      33.111  22.619 -20.446  0.00  0.00     0.019 A 
ENDBRANCH   2   9
TORSDOF 4
ENDMDL
MODEL 2
REMARK VINA RESULT:      -2.4      4.617      5.942
REMARK  4 active torsions:
REMARK  status: ('A' for Active; 'I' for Inactive)
REMARK    1  A    between atoms: C_2  and  C_1 
REMARK       I    between atoms: N_5  and  C_1 
REMARK    2  A    between atoms: C_4  and  C_2 
REMARK    3  A    between atoms: C_3  and  C_4 
REMARK    4  A    between atoms: C_9  and  N_5 
ROOT
ATOM      1  C   UNL d   1      30.536  17.023 -24.235  0.00  0.00     0.280 C 
ATOM      2  N   UNL d   1      31.301  16.836 -23.957  0.00  0.00    -0.208 NA
ATOM      3  O   UNL d   1      30.400  17.702 -24.683  0.00  0.00    -0.265 OA
ENDROOT
BRANCH   1   4
ATOM      4  C   UNL d   1      29.911  16.521 -24.058  0.00  0.00     0.069 C 
BRANCH   4   5
ATOM      5  C   UNL d   1      29.124  16.779 -24.180  0.00  0.00     0.075 C 
BRANCH   5   6
ATOM      6  C   UNL d   1      28.490  16.313 -23.900  0.00  0.00     0.211 C 
ATOM      7  O   UNL d   1      27.993  16.612 -23.296  0.00  0.00    -0.644 OA
ATOM      8  O   UNL d   1      28.339  15.556 -24.207  0.00  0.00    -0.644 OA
ENDBRANCH   5   6
ENDBRANCH   4   5
ENDBRANCH   1   4
BRANCH   2   9
ATOM      9  C   UNL d   1      31.935  17.350 -24.140  0.00  0.00     0.085 A 
ATOM     10  C   UNL d   1      32.162  17.937 -23.602  0.00  0.00     0.019 A 
ATOM     11  C   UNL d   1      32.781  18.441 -23.777  0.00  0.00     0.002 A 
ATOM     12  C   UNL d   1      33.188  18.374 -24.488  0.00  0.00     0.000 A 
ATOM     13  C   UNL d   1      32.964  17.780 -25.041  0.00  0.00     0.002 A 
ATOM     14  C   UNL d   1      32.339  17.280 -24.851  0.00  0.00     0.019 A 
ENDBRANCH   2   9
TORSDOF 4
ENDMDL
MODEL 3
REMARK VINA RESULT:      -2.3      4.458      6.457
REMARK  4 active torsions:
REMARK  status: ('A' for Active; 'I' for Inactive)
REMARK    1  A    between atoms: C_2  and  C_1 
REMARK       I    between atoms: N_5  and  C_1 
REMARK    2  A    between atoms: C_4  and  C_2 
REMARK    3  A    between atoms: C_3  and  C_4 
REMARK    4  A    between atoms: C_9  and  N_5 
ROOT
ATOM      1  C   UNL d   1      30.890  16.969 -24.083  0.00  0.00     0.280 C 
ATOM      2  N   UNL d   1      30.133  17.156 -24.382  0.00  0.00    -0.208 NA
ATOM      3  O   UNL d   1      31.044  16.232 -23.747  0.00  0.00    -0.265 OA
ENDROOT
BRANCH   1   4
ATOM      4  C   UNL d   1      31.487  17.529 -24.125  0.00  0.00     0.069 C 
BRANCH   4   5
ATOM      5  C   UNL d   1      32.149  17.468 -23.616  0.00  0.00     0.075 C 
BRANCH   5   6
ATOM      6  C   UNL d   1      32.710  18.088 -23.594  0.00  0.00     0.211 C 
ATOM      7  O   UNL d   1      32.751  18.584 -22.921  0.00  0.00    -0.644 OA
ATOM      8  O   UNL d   1      33.230  18.225 -24.226  0.00  0.00    -0.644 OA
ENDBRANCH   5   6
ENDBRANCH   4   5
ENDBRANCH   1   4
BRANCH   2   9
ATOM      9  C   UNL d   1      29.526  16.583 -24.338  0.00  0.00     0.085 A 
ATOM     10  C   UNL d   1      29.011  16.573 -23.691  0.00  0.00     0.019 A 
ATOM     11  C   UNL d   1      28.416  16.013 -23.643  0.00  0.00     0.002 A 
ATOM     12  C   UNL d   1      28.321  15.453 -24.237  0.00  0.00     0.000 A 
ATOM     13  C   UNL d   1      28.841  15.455 -24.899  0.00  0.00     0.002 A 
ATOM     14  C   UNL d   1      29.434  16.024 -24.933  0.00  0.00     0.019 A 
ENDBRANCH   2   9
TORSDOF 4
ENDMDL
MODEL 4
REMARK VINA RESULT:      -1.8      3.482      4.815
REMARK  4 active torsions:
REMARK  status: ('A' for Active; 'I' for Inactive)
REMARK    1  A    between atoms: C_2  and  C_1 
REMARK       I    between atoms: N_5  and  C_1 
REMARK    2  A    between atoms: C_4  and  C_2 
REMARK    3  A    between atoms: C_3  and  C_4 
REMARK    4  A    between atoms: C_9  and  N_5 
ROOT
ATOM      1  C   UNL d   1      31.589  17.496 -23.982  0.00  0.00     0.280 C 
ATOM      2  N   UNL d   1      32.324  17.664 -23.621  0.00  0.00    -0.208 NA
ATOM      3  O   UNL d   1      31.169  18.080 -24.385  0.00  0.00    -0.265 OA
ENDROOT
BRANCH   1   4
ATOM      4  C   UNL d   1      31.283  16.736 -23.933  0.00  0.00     0.069 C 
BRANCH   4   5
ATOM      5  C   UNL d   1      30.492  16.592 -24.166  0.00  0.00     0.075 C 
BRANCH   5   6
ATOM      6  C   UNL d   1      30.147  15.846 -24.012  0.00  0.00     0.211 C 
ATOM      7  O   UNL d   1      29.715  15.459 -24.615  0.00  0.00    -0.644 OA
ATOM      8  O   UNL d   1      30.223  15.478 -23.272  0.00  0.00    -0.644 OA
ENDBRANCH   5   6
ENDBRANCH   4   5
ENDBRANCH   1   4
BRANCH   2   9
ATOM      9  C   UNL d   1      32.632  18.439 -23.673  0.00  0.00     0.085 A 
ATOM     10  C   UNL d   1      32.706  18.903 -22.993  0.00  0.00     0.019 A 
ATOM     11  C   UNL d   1      33.007  19.662 -23.039  0.00  0.00     0.002 A 
ATOM     12  C   UNL d   1      33.241  19.976 -23.762  0.00  0.00     0.000 A 
ATOM     13  C   UNL d   1      33.169  19.511 -24.460  0.00  0.00     0.002 A 
ATOM     14  C   UNL d   1      32.865  18.750 -24.397  0.00  0.00     0.019 A 
ENDBRANCH   2   9
TORSDOF 4
ENDMDL
MODEL 5
REMARK VINA RESULT:      -1.7      1.536      2.356
REMARK  4 active torsions:
REMARK  status: ('A' for Active; 'I' for Inactive)
REMARK    1  A    between atoms: C_2  and  C_1 
REMARK       I    between atoms: N_5  and  C_1 
REMARK    2  A    between atoms: C_4  and  C_2 
REMARK    3  A    between atoms: C_3  and  C_4 
REMARK    4  A    between atoms: C_9  and  N_5 
ROOT
ATOM      1  C   UNL d   1      32.879  19.171 -22.711  0.00  0.00     0.280 C 
ATOM      2  N   UNL d   1      33.020  19.487 -21.951  0.00  0.00    -0.208 NA
ATOM      3  O   UNL d   1      32.645  19.655 -23.336  0.00  0.00    -0.265 OA
ENDROOT
BRANCH   1   4
ATOM      4  C   UNL d   1      32.976  18.366 -22.835  0.00  0.00     0.069 C 
BRANCH   4   5
ATOM      5  C   UNL d   1      32.624  18.003 -23.503  0.00  0.00     0.075 C 
BRANCH   5   6
ATOM      6  C   UNL d   1      32.732  17.184 -23.631  0.00  0.00     0.211 C 
ATOM      7  O   UNL d   1      33.151  16.924 -24.308  0.00  0.00    -0.644 OA
ATOM      8  O   UNL d   1      32.432  16.620 -23.102  0.00  0.00    -0.644 OA
ENDBRANCH   5   6
ENDBRANCH   4   5
ENDBRANCH   1   4
BRANCH   2   9
ATOM      9  C   UNL d   1      32.920  20.307 -21.828  0.00  0.00     0.085 A 
ATOM     10  C   UNL d   1      33.237  20.849 -22.367  0.00  0.00     0.019 A 
ATOM     11  C   UNL d   1      33.141  21.653 -22.251  0.00  0.00     0.002 A 
ATOM     12  C   UNL d   1      32.729  21.935 -21.598  0.00  0.00     0.000 A 
ATOM     13  C   UNL d   1      32.403  21.392 -21.045  0.00  0.00     0.002 A 
ATOM     14  C   UNL d   1      32.508  20.586 -21.175  0.00  0.00     0.019 A 
ENDBRANCH   2   9
TORSDOF 4
ENDMDL
MODEL 6
REMARK VINA RESULT:      -1.6      1.913      2.852
REMARK  4 active torsions:
REMARK  status: ('A' for Active; 'I' for Inactive)
REMARK    1  A    between atoms: C_2  and  C_1 
REMARK       I    between atoms: N_5  and  C_1 
REMARK    2  A    between atoms: C_4  and  C_2 
REMARK    3  A    between atoms: C_3  and  C_4 
REMARK    4  A    between atoms: C_9  and  N_5 
ROOT
ATOM      1  C   UNL d   1      32.779  22.626 -19.870  0.00  0.00     0.280 C 
ATOM      2  N   UNL d   1      32.784  23.378 -19.504  0.00  0.00    -0.208 NA
ATOM      3  O   UNL d   1      32.631  21.942 -19.435  0.00  0.00    -0.265 OA
ENDROOT
BRANCH   1   4
ATOM      4  C   UNL d   1      32.923  22.572 -20.676  0.00  0.00     0.069 C 
BRANCH   4   5
ATOM      5  C   UNL d   1      33.210  21.854 -20.998  0.00  0.00     0.075 C 
BRANCH   5   6
ATOM      6  C   UNL d   1      33.142  21.716 -21.820  0.00  0.00     0.211 C 
ATOM      7  O   UNL d   1      32.972  20.944 -22.095  0.00  0.00    -0.644 OA
ATOM      8  O   UNL d   1      33.241  22.328 -22.372  0.00  0.00    -0.644 OA
ENDBRANCH   5   6
ENDBRANCH   4   5
ENDBRANCH   1   4
BRANCH   2   9
ATOM      9  C   UNL d   1      32.637  23.429 -18.683  0.00  0.00     0.085 A 
ATOM     10  C   UNL d   1      33.239  23.259 -18.142  0.00  0.00     0.019 A 
ATOM     11  C   UNL d   1      33.099  23.309 -17.338  0.00  0.00     0.002 A 
ATOM     12  C   UNL d   1      32.359  23.528 -17.055  0.00  0.00     0.000 A 
ATOM     13  C   UNL d   1      31.740  23.702 -17.598  0.00  0.00     0.002 A 
ATOM     14  C   UNL d   1      31.896  23.648 -18.404  0.00  0.00     0.019 A 
ENDBRANCH   2   9
TORSDOF 4
ENDMDL
MODEL 7
REMARK VINA RESULT:      -0.7      5.992      7.183
REMARK  4 active torsions:
REMARK  status: ('A' for Active; 'I' for Inactive)
REMARK    1  A    between atoms: C_2  and  C_1 
REMARK       I    between atoms: N_5  and  C_1 
REMARK    2  A    between atoms: C_4  and  C_2 
REMARK    3  A    between atoms: C_3  and  C_4 
REMARK    4  A    between atoms: C_9  and  N_5 
ROOT
ATOM      1  C   UNL d   1      29.513  16.150 -23.606  0.00  0.00     0.280 C 
ATOM      2  N   UNL d   1      29.942  16.518 -24.221  0.00  0.00    -0.208 NA
ATOM      3  O   UNL d   1      29.879  15.625 -23.086  0.00  0.00    -0.265 OA
ENDROOT
BRANCH   1   4
ATOM      4  C   UNL d   1      28.714  16.315 -23.519  0.00  0.00     0.069 C 
BRANCH   4   5
ATOM      5  C   UNL d   1      28.158  15.689 -23.519  0.00  0.00     0.075 C 
BRANCH   5   6
ATOM      6  C   UNL d   1      27.343  15.862 -23.445  0.00  0.00     0.211 C 
ATOM      7  O   UNL d   1      26.792  15.464 -23.934  0.00  0.00    -0.644 OA
ATOM      8  O   UNL d   1      27.066  16.421 -22.898  0.00  0.00    -0.644 OA
ENDBRANCH   5   6
ENDBRANCH   4   5
ENDBRANCH   1   4
BRANCH   2   9
ATOM      9  C   UNL d   1      30.755  16.346 -24.306  0.00  0.00     0.085 A 
ATOM     10  C   UNL d   1      31.001  15.726 -24.795  0.00  0.00     0.019 A 
ATOM     11  C   UNL d   1      31.796  15.555 -24.881  0.00  0.00     0.002 A 
ATOM     12  C   UNL d   1      32.363  15.997 -24.482  0.00  0.00     0.000 A 
ATOM     13  C   UNL d   1      32.123  16.630 -23.983  0.00  0.00     0.002 A 
ATOM     14  C   UNL d   1      31.320  16.789 -23.907  0.00  0.00     0.019 A 
ENDBRANCH   2   9
TORSDOF 4
ENDMDL
