MODEL 1
REMARK VINA RESULT:      36.6      0.000      0.000
REMARK  5 active torsions:
REMARK  status: ('A' for Active; 'I' for Inactive)
REMARK    1  A    between atoms: N_2  and  S_1 
REMARK    2  A    between atoms: C_4  and  S_1 
REMARK    3  A    between atoms: C_3  and  N_2 
REMARK    4  A    between atoms: N_7  and  C_3 
REMARK    5  A    between atoms: C_15  and  N_7 
ROOT
ATOM      1  S   UNL d   1     -50.967  25.689  33.658  0.00  0.00     0.287 S 
ATOM      2  O   UNL d   1     -50.190  25.543  33.397  0.00  0.00    -0.198 OA
ATOM      3  O   UNL d   1     -51.734  25.853  33.914  0.00  0.00    -0.198 OA
ENDROOT
BRANCH   1   4
ATOM      4  N   UNL d   1     -51.101  24.879  33.746  0.00  0.00    -0.128 NA
BRANCH   4   5
ATOM      5  C   UNL d   1     -51.635  24.239  33.811  0.00  0.00     0.232 C 
ATOM      6  S   UNL d   1     -51.566  23.596  33.307  0.00  0.00    -0.036 SA
BRANCH   5   7
ATOM      7  N   UNL d   1     -52.229  24.265  34.384  0.00  0.00    -0.217 NA
BRANCH   7   8
ATOM      8  C   UNL d   1     -52.966  23.929  34.223  0.00  0.00     0.084 A 
ATOM      9  C   UNL d   1     -53.292  24.000  33.473  0.00  0.00     0.019 A 
ATOM     10  C   UNL d   1     -54.022  23.669  33.310  0.00  0.00     0.002 A 
ATOM     11  C   UNL d   1     -54.433  23.264  33.893  0.00  0.00     0.000 A 
ATOM     12  C   UNL d   1     -54.108  23.191  34.648  0.00  0.00     0.002 A 
ATOM     13  C   UNL d   1     -53.374  23.523  34.814  0.00  0.00     0.019 A 
ENDBRANCH   7   8
ENDBRANCH   5   7
ENDBRANCH   4   5
ENDBRANCH   1   4
BRANCH   1  14
ATOM     14  C   UNL d   1     -50.833  26.505  33.569  0.00  0.00     0.105 A 
ATOM     15  C   UNL d   1     -51.478  27.033  33.538  0.00  0.00     0.014 A 
ATOM     16  C   UNL d   1     -51.345  27.838  33.450  0.00  0.00     0.012 A 
ATOM     17  C   UNL d   1     -50.574  28.126  33.393  0.00  0.00     0.058 A 
ATOM     18  C   UNL d   1     -49.931  27.607  33.424  0.00  0.00     0.012 A 
ATOM     19 CL   UNL d   1     -50.442  28.931  33.306  0.00  0.00    -0.082 Cl
ATOM     20  C   UNL d   1     -50.064  26.798  33.512  0.00  0.00     0.014 A 
ENDBRANCH   1  14
TORSDOF 5
ENDMDL
