MODEL 1
REMARK VINA RESULT:      -4.6      0.000      0.000
REMARK  1 active torsions:
REMARK  status: ('A' for Active; 'I' for Inactive)
REMARK    1  A    between atoms: C_5  and  C_2 
ROOT
ATOM      1  N   UNL d   1      57.380  -0.622  30.967  0.00  0.00    -0.217 NA
ATOM      2  C   UNL d   1      57.008  -0.255  31.587  0.00  0.00     0.113 A 
ATOM      3  C   UNL d   1      57.818  -0.050  30.557  0.00  0.00     0.215 A 
ATOM      4  S   UNL d   1      57.699   0.681  30.950  0.00  0.00    -0.045 SA
ATOM      5  C   UNL d   1      57.202   0.555  31.583  0.00  0.00     0.060 A 
ATOM      6  N   UNL d   1      58.289  -0.184  29.876  0.00  0.00    -0.120 N 
ENDROOT
BRANCH   2   7
ATOM      7  C   UNL d   1      56.499  -0.606  32.165  0.00  0.00     0.118 A 
ATOM      8  O   UNL d   1      56.340  -1.422  32.280  0.00  0.00    -0.304 OA
ATOM      9  C   UNL d   1      55.802  -1.480  32.920  0.00  0.00     0.123 A 
ATOM     10  C   UNL d   1      55.641  -0.716  33.183  0.00  0.00     0.029 A 
ATOM     11  C   UNL d   1      56.063  -0.186  32.725  0.00  0.00     0.028 A 
ENDBRANCH   2   7
TORSDOF 1
ENDMDL
MODEL 2
REMARK VINA RESULT:      -4.3      1.741      2.860
REMARK  1 active torsions:
REMARK  status: ('A' for Active; 'I' for Inactive)
REMARK    1  A    between atoms: C_5  and  C_2 
ROOT
ATOM      1  N   UNL d   1      56.063   0.184  32.539  0.00  0.00    -0.217 NA
ATOM      2  C   UNL d   1      56.559  -0.313  32.133  0.00  0.00     0.113 A 
ATOM      3  C   UNL d   1      55.622  -0.274  33.071  0.00  0.00     0.215 A 
ATOM      4  S   UNL d   1      55.868  -1.071  32.974  0.00  0.00    -0.045 SA
ATOM      5  C   UNL d   1      56.443  -1.095  32.398  0.00  0.00     0.060 A 
ATOM      6  N   UNL d   1      55.041   0.011  33.603  0.00  0.00    -0.120 N 
ENDROOT
BRANCH   2   7
ATOM      7  C   UNL d   1      57.117  -0.107  31.531  0.00  0.00     0.118 A 
ATOM      8  O   UNL d   1      57.312  -0.543  30.841  0.00  0.00    -0.304 OA
ATOM      9  C   UNL d   1      57.893  -0.103  30.427  0.00  0.00     0.123 A 
ATOM     10  C   UNL d   1      58.044   0.583  30.859  0.00  0.00     0.029 A 
ATOM     11  C   UNL d   1      57.573   0.581  31.528  0.00  0.00     0.028 A 
ENDBRANCH   2   7
TORSDOF 1
ENDMDL
MODEL 3
REMARK VINA RESULT:      -4.3      1.732      2.264
REMARK  1 active torsions:
REMARK  status: ('A' for Active; 'I' for Inactive)
REMARK    1  A    between atoms: C_5  and  C_2 
ROOT
ATOM      1  N   UNL d   1      56.348   0.130  32.492  0.00  0.00    -0.217 NA
ATOM      2  C   UNL d   1      55.918  -0.235  33.074  0.00  0.00     0.113 A 
ATOM      3  C   UNL d   1      56.656  -0.457  31.995  0.00  0.00     0.215 A 
ATOM      4  S   UNL d   1      56.397  -1.196  32.296  0.00  0.00    -0.045 SA
ATOM      5  C   UNL d   1      55.944  -1.060  32.959  0.00  0.00     0.060 A 
ATOM      6  N   UNL d   1      57.136  -0.330  31.319  0.00  0.00    -0.120 N 
ENDROOT
BRANCH   2   7
ATOM      7  C   UNL d   1      55.498   0.130  33.712  0.00  0.00     0.118 A 
ATOM      8  O   UNL d   1      55.793   0.338  34.469  0.00  0.00    -0.304 OA
ATOM      9  C   UNL d   1      55.159   0.682  34.895  0.00  0.00     0.123 A 
ATOM     10  C   UNL d   1      54.497   0.681  34.404  0.00  0.00     0.029 A 
ATOM     11  C   UNL d   1      54.702   0.347  33.687  0.00  0.00     0.028 A 
ENDBRANCH   2   7
TORSDOF 1
ENDMDL
MODEL 4
REMARK VINA RESULT:      -4.1      1.498      2.748
REMARK  1 active torsions:
REMARK  status: ('A' for Active; 'I' for Inactive)
REMARK    1  A    between atoms: C_5  and  C_2 
ROOT
ATOM      1  N   UNL d   1      56.632  -1.104  31.821  0.00  0.00    -0.217 NA
ATOM      2  C   UNL d   1      56.982  -0.394  31.648  0.00  0.00     0.113 A 
ATOM      3  C   UNL d   1      56.227  -1.021  32.539  0.00  0.00     0.215 A 
ATOM      4  S   UNL d   1      56.343  -0.231  32.798  0.00  0.00    -0.045 SA
ATOM      5  C   UNL d   1      56.807   0.154  32.251  0.00  0.00     0.060 A 
ATOM      6  N   UNL d   1      55.785  -1.618  32.929  0.00  0.00    -0.120 N 
ENDROOT
BRANCH   2   7
ATOM      7  C   UNL d   1      57.456  -0.202  30.973  0.00  0.00     0.118 A 
ATOM      8  O   UNL d   1      57.794  -0.732  30.417  0.00  0.00    -0.304 OA
ATOM      9  C   UNL d   1      58.211  -0.269  29.857  0.00  0.00     0.123 A 
ATOM     10  C   UNL d   1      58.126   0.523  30.073  0.00  0.00     0.029 A 
ATOM     11  C   UNL d   1      57.668   0.563  30.750  0.00  0.00     0.028 A 
ENDBRANCH   2   7
TORSDOF 1
ENDMDL
MODEL 5
REMARK VINA RESULT:      -3.4      9.034      9.569
REMARK  1 active torsions:
REMARK  status: ('A' for Active; 'I' for Inactive)
REMARK    1  A    between atoms: C_5  and  C_2 
ROOT
ATOM      1  N   UNL d   1      59.652  -7.767  35.116  0.00  0.00    -0.217 NA
ATOM      2  C   UNL d   1      59.772  -8.556  34.974  0.00  0.00     0.113 A 
ATOM      3  C   UNL d   1      59.565  -7.665  35.934  0.00  0.00     0.215 A 
ATOM      4  S   UNL d   1      59.636  -8.423  36.287  0.00  0.00    -0.045 SA
ATOM      5  C   UNL d   1      59.763  -8.970  35.697  0.00  0.00     0.060 A 
ATOM      6  N   UNL d   1      59.430  -6.937  36.329  0.00  0.00    -0.120 N 
ENDROOT
BRANCH   2   7
ATOM      7  C   UNL d   1      59.890  -8.934  34.226  0.00  0.00     0.118 A 
ATOM      8  O   UNL d   1      60.569  -8.896  33.734  0.00  0.00    -0.304 OA
ATOM      9  C   UNL d   1      60.410  -9.364  33.058  0.00  0.00     0.123 A 
ATOM     10  C   UNL d   1      59.652  -9.677  33.142  0.00  0.00     0.029 A 
ATOM     11  C   UNL d   1      59.337  -9.416  33.850  0.00  0.00     0.028 A 
ENDBRANCH   2   7
TORSDOF 1
ENDMDL
MODEL 6
REMARK VINA RESULT:      -3.3      1.613      3.159
REMARK  1 active torsions:
REMARK  status: ('A' for Active; 'I' for Inactive)
REMARK    1  A    between atoms: C_5  and  C_2 
ROOT
ATOM      1  N   UNL d   1      57.336  -0.650  31.012  0.00  0.00    -0.217 NA
ATOM      2  C   UNL d   1      57.642   0.035  30.706  0.00  0.00     0.113 A 
ATOM      3  C   UNL d   1      56.925  -0.460  31.706  0.00  0.00     0.215 A 
ATOM      4  S   UNL d   1      56.993   0.369  31.813  0.00  0.00    -0.045 SA
ATOM      5  C   UNL d   1      57.432   0.673  31.199  0.00  0.00     0.060 A 
ATOM      6  N   UNL d   1      56.521  -1.000  32.204  0.00  0.00    -0.120 N 
ENDROOT
BRANCH   2   7
ATOM      7  C   UNL d   1      58.103   0.126  30.003  0.00  0.00     0.118 A 
ATOM      8  O   UNL d   1      57.833   0.324  29.234  0.00  0.00    -0.304 OA
ATOM      9  C   UNL d   1      58.505   0.345  28.733  0.00  0.00     0.123 A 
ATOM     10  C   UNL d   1      59.165   0.164  29.193  0.00  0.00     0.029 A 
ATOM     11  C   UNL d   1      58.922   0.031  29.962  0.00  0.00     0.028 A 
ENDBRANCH   2   7
TORSDOF 1
ENDMDL
MODEL 7
REMARK VINA RESULT:      -3.0      1.236      1.652
REMARK  1 active torsions:
REMARK  status: ('A' for Active; 'I' for Inactive)
REMARK    1  A    between atoms: C_5  and  C_2 
ROOT
ATOM      1  N   UNL d   1      57.688   0.548  30.010  0.00  0.00    -0.217 NA
ATOM      2  C   UNL d   1      57.656  -0.018  30.590  0.00  0.00     0.113 A 
ATOM      3  C   UNL d   1      58.170   0.262  29.400  0.00  0.00     0.215 A 
ATOM      4  S   UNL d   1      58.431  -0.502  29.628  0.00  0.00    -0.045 SA
ATOM      5  C   UNL d   1      58.115  -0.674  30.359  0.00  0.00     0.060 A 
ATOM      6  N   UNL d   1      58.357   0.665  28.688  0.00  0.00    -0.120 N 
ENDROOT
BRANCH   2   7
ATOM      7  C   UNL d   1      57.234   0.017  31.323  0.00  0.00     0.118 A 
ATOM      8  O   UNL d   1      57.131   0.682  31.823  0.00  0.00    -0.304 OA
ATOM      9  C   UNL d   1      56.673   0.428  32.478  0.00  0.00     0.123 A 
ATOM     10  C   UNL d   1      56.505  -0.372  32.373  0.00  0.00     0.029 A 
ATOM     11  C   UNL d   1      56.846  -0.622  31.672  0.00  0.00     0.028 A 
ENDBRANCH   2   7
TORSDOF 1
ENDMDL
MODEL 8
REMARK VINA RESULT:      -2.4      3.003      4.076
REMARK  1 active torsions:
REMARK  status: ('A' for Active; 'I' for Inactive)
REMARK    1  A    between atoms: C_5  and  C_2 
ROOT
ATOM      1  N   UNL d   1      58.450  -1.279  29.845  0.00  0.00    -0.217 NA
ATOM      2  C   UNL d   1      58.836  -1.576  29.197  0.00  0.00     0.113 A 
ATOM      3  C   UNL d   1      58.395  -0.458  29.756  0.00  0.00     0.215 A 
ATOM      4  S   UNL d   1      58.763  -0.263  29.027  0.00  0.00    -0.045 SA
ATOM      5  C   UNL d   1      59.034  -0.949  28.684  0.00  0.00     0.060 A 
ATOM      6  N   UNL d   1      58.037   0.075  30.297  0.00  0.00    -0.120 N 
ENDROOT
BRANCH   2   7
ATOM      7  C   UNL d   1      59.026  -2.385  29.033  0.00  0.00     0.118 A 
ATOM      8  O   UNL d   1      58.493  -3.018  28.894  0.00  0.00    -0.304 OA
ATOM      9  C   UNL d   1      58.955  -3.704  28.760  0.00  0.00     0.123 A 
ATOM     10  C   UNL d   1      59.749  -3.487  28.818  0.00  0.00     0.029 A 
ATOM     11  C   UNL d   1      59.792  -2.687  28.984  0.00  0.00     0.028 A 
ENDBRANCH   2   7
TORSDOF 1
ENDMDL
MODEL 9
REMARK VINA RESULT:      -2.3      2.738      3.615
REMARK  1 active torsions:
REMARK  status: ('A' for Active; 'I' for Inactive)
REMARK    1  A    between atoms: C_5  and  C_2 
ROOT
ATOM      1  N   UNL d   1      58.564  -2.097  29.312  0.00  0.00    -0.217 NA
ATOM      2  C   UNL d   1      58.875  -1.348  29.311  0.00  0.00     0.113 A 
ATOM      3  C   UNL d   1      59.124  -2.607  28.976  0.00  0.00     0.215 A 
ATOM      4  S   UNL d   1      59.790  -2.140  28.769  0.00  0.00    -0.045 SA
ATOM      5  C   UNL d   1      59.637  -1.368  28.975  0.00  0.00     0.060 A 
ATOM      6  N   UNL d   1      59.036  -3.434  28.866  0.00  0.00    -0.120 N 
ENDROOT
BRANCH   2   7
ATOM      7  C   UNL d   1      58.513  -0.638  29.597  0.00  0.00     0.118 A 
ATOM      8  O   UNL d   1      57.976  -0.558  30.236  0.00  0.00    -0.304 OA
ATOM      9  C   UNL d   1      57.782   0.255  30.294  0.00  0.00     0.123 A 
ATOM     10  C   UNL d   1      58.194   0.655  29.702  0.00  0.00     0.029 A 
ATOM     11  C   UNL d   1      58.638   0.113  29.279  0.00  0.00     0.028 A 
ENDBRANCH   2   7
TORSDOF 1
ENDMDL
