MODEL 1
REMARK VINA RESULT:      30.1      0.000      0.000
REMARK  5 active torsions:
REMARK  status: ('A' for Active; 'I' for Inactive)
REMARK    1  A    between atoms: C_14  and  N_4 
REMARK    2  A    between atoms: C_12  and  N_6 
REMARK    3  A    between atoms: C_10  and  C_12 
REMARK       I    between atoms: N_11  and  C_10 
REMARK    4  A    between atoms: C_13  and  N_11 
REMARK    5  A    between atoms: O_18  and  C_17 
ROOT
ATOM      1  C   UNL d   1      46.133 -18.331  42.779  0.00  0.00     0.172 A 
ATOM      2  C   UNL d   1      46.298 -18.576  43.549  0.00  0.00     0.113 A 
ATOM      3  N   UNL d   1      45.811 -17.589  42.642  0.00  0.00    -0.206 NA
ATOM      4  N   UNL d   1      46.352 -18.948  42.270  0.00  0.00    -0.212 N 
ATOM      5  C   UNL d   1      46.141 -18.080  44.184  0.00  0.00     0.271 A 
ATOM      6  N   UNL d   1      45.815 -17.331  44.050  0.00  0.00    -0.251 N 
ATOM      7  N   UNL d   1      46.645 -19.559  42.729  0.00  0.00    -0.162 NA
ATOM      8  C   UNL d   1      45.650 -17.085  43.280  0.00  0.00     0.187 A 
ATOM      9  C   UNL d   1      46.616 -19.342  43.503  0.00  0.00     0.129 A 
ATOM     10  O   UNL d   1      46.306 -18.326  44.954  0.00  0.00    -0.266 OA
ENDROOT
BRANCH   6  11
ATOM     11  C   UNL d   1      45.652 -16.820  44.691  0.00  0.00     0.147 C 
BRANCH  11  12
ATOM     12  C   UNL d   1      45.891 -16.023  44.658  0.00  0.00     0.297 C 
ATOM     13  N   UNL d   1      45.355 -15.436  44.880  0.00  0.00    -0.205 NA
ATOM     14  O   UNL d   1      46.647 -15.835  44.411  0.00  0.00    -0.264 OA
BRANCH  13  15
ATOM     15  C   UNL d   1      45.595 -14.639  44.848  0.00  0.00     0.107 A 
ATOM     16  C   UNL d   1      45.025 -14.063  44.738  0.00  0.00     0.112 A 
ATOM     17  C   UNL d   1      45.264 -13.267  44.706  0.00  0.00     0.026 A 
ATOM     18  C   UNL d   1      46.053 -13.069  44.783  0.00  0.00     0.002 A 
ATOM     19  C   UNL d   1      46.623 -13.645  44.893  0.00  0.00     0.002 A 
ATOM     20  C   UNL d   1      46.382 -14.433  44.924  0.00  0.00     0.021 A 
BRANCH  16  21
ATOM     21  O   UNL d   1      44.236 -14.261  44.661  0.00  0.00    -0.327 OA
ATOM     22  C   UNL d   1      43.665 -13.684  44.565  0.00  0.00     0.181 C 
ENDBRANCH  16  21
ENDBRANCH  13  15
ENDBRANCH  11  12
ENDBRANCH   6  11
BRANCH   4  23
ATOM     23  C   UNL d   1      46.301 -18.982  41.457  0.00  0.00     0.085 A 
ATOM     24  C   UNL d   1      46.631 -19.628  41.045  0.00  0.00     0.019 A 
ATOM     25  C   UNL d   1      46.577 -19.657  40.229  0.00  0.00     0.002 A 
ATOM     26  C   UNL d   1      46.191 -19.039  39.806  0.00  0.00     0.000 A 
ATOM     27  C   UNL d   1      45.873 -18.415  40.219  0.00  0.00     0.002 A 
ATOM     28  C   UNL d   1      45.923 -18.378  41.040  0.00  0.00     0.019 A 
ENDBRANCH   4  23
TORSDOF 5
ENDMDL
