MODEL 1
REMARK VINA RESULT:      12.9      0.000      0.000
REMARK  1 active torsions:
REMARK  status: ('A' for Active; 'I' for Inactive)
REMARK    1  A    between atoms: C_5  and  C_1 
ROOT
ATOM      1  N   UNL d   1      46.154 -17.514  43.518  0.00  0.00    -0.242 NA
ATOM      2  C   UNL d   1      46.033 -17.234  44.283  0.00  0.00     0.117 A 
ATOM      3  C   UNL d   1      46.320 -18.325  43.410  0.00  0.00     0.081 A 
ATOM      4  C   UNL d   1      46.071 -17.728  44.924  0.00  0.00     0.022 A 
ATOM      5  C   UNL d   1      46.358 -18.819  44.043  0.00  0.00     0.018 A 
ATOM      6  C   UNL d   1      46.236 -18.527  44.793  0.00  0.00     0.003 A 
ATOM      7  C   UNL d   1      46.442 -18.611  42.648  0.00  0.00     0.019 A 
ATOM      8  C   UNL d   1      46.523 -19.618  43.912  0.00  0.00     0.002 A 
ATOM      9  C   UNL d   1      46.607 -19.416  42.528  0.00  0.00     0.002 A 
ATOM     10  C   UNL d   1      46.645 -19.910  43.167  0.00  0.00     0.000 A 
ENDROOT
BRANCH   2  11
ATOM     11  C   UNL d   1      45.870 -16.443  44.413  0.00  0.00     0.180 A 
ATOM     12  N   UNL d   1      45.147 -16.122  44.675  0.00  0.00    -0.224 NA
ATOM     13  C   UNL d   1      45.236 -15.318  44.726  0.00  0.00     0.101 A 
ATOM     14  C   UNL d   1      44.705 -14.709  44.955  0.00  0.00     0.021 A 
ATOM     15  C   UNL d   1      46.006 -15.122  44.499  0.00  0.00     0.101 A 
ATOM     16  C   UNL d   1      44.948 -13.923  44.955  0.00  0.00     0.002 A 
ATOM     17  C   UNL d   1      45.718 -13.727  44.728  0.00  0.00     0.002 A 
ATOM     18  C   UNL d   1      46.252 -14.315  44.500  0.00  0.00     0.021 A 
ATOM     19  N   UNL d   1      46.402 -15.803  44.306  0.00  0.00    -0.224 NA
ENDBRANCH   2  11
TORSDOF 1
ENDMDL
