MODEL 1
REMARK VINA RESULT:      -2.2      0.000      0.000
REMARK  7 active torsions:
REMARK  status: ('A' for Active; 'I' for Inactive)
REMARK    1  A    between atoms: C_12  and  C_3 
REMARK    2  A    between atoms: N_9  and  C_5 
REMARK    3  A    between atoms: C_17  and  N_9 
REMARK    4  A    between atoms: N_14  and  C_12 
REMARK    5  A    between atoms: C_18  and  N_14 
REMARK    6  A    between atoms: C_16  and  C_18 
REMARK    7  A    between atoms: C_19  and  C_17 
ROOT
ATOM      1  N   UNL d   1      56.834  -0.800  31.855  0.00  0.00    -0.258 N 
ATOM      2  C   UNL d   1      57.000  -1.197  31.143  0.00  0.00     0.270 A 
ATOM      3  C   UNL d   1      57.518  -0.873  30.589  0.00  0.00     0.111 A 
ATOM      4  N   UNL d   1      57.713   0.265  31.462  0.00  0.00    -0.209 NA
ATOM      5  C   UNL d   1      57.875  -0.140  30.748  0.00  0.00     0.170 A 
ATOM      6  C   UNL d   1      57.185  -0.079  32.012  0.00  0.00     0.152 A 
ATOM      7  C   UNL d   1      56.319  -1.138  32.390  0.00  0.00     0.084 A 
ATOM      8  C   UNL d   1      57.031   0.325  32.710  0.00  0.00     0.038 A 
ATOM      9  C   UNL d   1      56.153  -0.753  33.088  0.00  0.00     0.018 A 
ATOM     10  C   UNL d   1      56.510  -0.020  33.248  0.00  0.00     0.005 A 
ATOM     11  O   UNL d   1      56.649  -1.919  30.985  0.00  0.00    -0.266 OA
ATOM     12  C   UNL d   1      55.623  -1.103  33.637  0.00  0.00     0.002 C 
ENDROOT
BRANCH   3  13
ATOM     13  C   UNL d   1      57.667  -1.281  29.894  0.00  0.00     0.107 C 
BRANCH  13  14
ATOM     14  N   UNL d   1      58.225  -1.885  29.874  0.00  0.00    -0.242 NA
BRANCH  14  15
ATOM     15  C   UNL d   1      58.287  -2.369  29.209  0.00  0.00     0.101 C 
BRANCH  15  16
ATOM     16  C   UNL d   1      58.911  -2.891  29.123  0.00  0.00     0.038 A 
ATOM     17  C   UNL d   1      59.587  -2.812  29.602  0.00  0.00     0.101 A 
ATOM     18  N   UNL d   1      60.210  -3.334  29.517  0.00  0.00    -0.242 NA
ATOM     19  C   UNL d   1      60.168  -3.943  28.952  0.00  0.00     0.099 A 
ATOM     20  C   UNL d   1      59.513  -4.027  28.481  0.00  0.00     0.021 A 
ATOM     21  C   UNL d   1      58.879  -3.496  28.568  0.00  0.00     0.005 A 
ENDBRANCH  15  16
ENDBRANCH  14  15
ENDBRANCH  13  14
ENDBRANCH   3  13
BRANCH   5  22
ATOM     22  N   UNL d   1      58.400   0.223  30.222  0.00  0.00    -0.225 NA
BRANCH  22  23
ATOM     23  C   UNL d   1      59.162   0.457  30.460  0.00  0.00     0.101 C 
BRANCH  23  24
ATOM     24  C   UNL d   1      59.763   0.532  29.901  0.00  0.00     0.019 A 
ATOM     25  C   UNL d   1      60.536   0.596  30.134  0.00  0.00     0.002 A 
ATOM     26  C   UNL d   1      61.133   0.671  29.559  0.00  0.00     0.000 A 
ATOM     27  C   UNL d   1      60.957   0.682  28.757  0.00  0.00     0.000 A 
ATOM     28  C   UNL d   1      60.162   0.616  28.523  0.00  0.00     0.000 A 
ATOM     29  C   UNL d   1      59.558   0.541  29.090  0.00  0.00     0.002 A 
ENDBRANCH  23  24
ENDBRANCH  22  23
ENDBRANCH   5  22
TORSDOF 7
ENDMDL
