MODEL 1
REMARK VINA RESULT:      65.6      0.000      0.000
REMARK  5 active torsions:
REMARK  status: ('A' for Active; 'I' for Inactive)
REMARK    1  A    between atoms: N_9  and  C_2 
REMARK    2  A    between atoms: N_12  and  C_6 
REMARK    3  A    between atoms: C_13  and  N_11 
REMARK    4  A    between atoms: C_18  and  N_12 
REMARK    5  A    between atoms: O_28  and  C_23 
ROOT
ATOM      1  N   UNL d   1      45.837 -15.622  38.150  0.00  0.00    -0.041 NA
ATOM      2  C   UNL d   1      45.450 -16.298  38.160  0.00  0.00     0.738 A 
ATOM      3  C   UNL d   1      45.753 -15.135  37.547  0.00  0.00     0.187 A 
ATOM      4  N   UNL d   1      44.978 -16.489  37.563  0.00  0.00    -0.041 NA
ATOM      5  C   UNL d   1      45.282 -15.323  36.948  0.00  0.00     0.094 A 
ATOM      6  C   UNL d   1      44.889 -16.005  36.954  0.00  0.00     0.185 A 
ATOM      7  N   UNL d   1      46.060 -13.959  36.927  0.00  0.00    -0.162 NA
ATOM      8  N   UNL d   1      46.145 -14.453  37.541  0.00  0.00    -0.208 N 
ATOM      9  C   UNL d   1      45.587 -14.151  36.330  0.00  0.00     0.127 A 
ATOM     10  C   UNL d   1      46.616 -14.263  38.135  0.00  0.00     0.123 C 
ENDROOT
BRANCH   2  11
ATOM     11  N   UNL d   1      45.536 -16.816  38.798  0.00  0.00    -0.134 N 
ATOM     12  C   UNL d   1      44.875 -17.049  39.234  0.00  0.00     0.117 A 
ATOM     13  C   UNL d   1      44.970 -17.568  39.871  0.00  0.00     0.100 A 
ATOM     14  N   UNL d   1      45.721 -17.853  40.071  0.00  0.00    -0.301 N 
ATOM     15  C   UNL d   1      46.378 -17.619  39.634  0.00  0.00     0.100 A 
ATOM     16  C   UNL d   1      46.287 -17.101  38.997  0.00  0.00     0.117 A 
BRANCH  14  17
ATOM     17  C   UNL d   1      45.810 -18.372  40.710  0.00  0.00     0.064 A 
ATOM     18  C   UNL d   1      45.370 -18.242  41.403  0.00  0.00     0.020 A 
ATOM     19  C   UNL d   1      45.460 -18.761  42.041  0.00  0.00     0.031 A 
ATOM     20  C   UNL d   1      45.988 -19.407  41.984  0.00  0.00     0.140 A 
ATOM     21  C   UNL d   1      46.419 -19.518  41.278  0.00  0.00     0.031 A 
ATOM     22  F   UNL d   1      46.078 -19.926  42.620  0.00  0.00    -0.204 F 
ATOM     23  C   UNL d   1      46.328 -19.000  40.646  0.00  0.00     0.020 A 
ENDBRANCH  14  17
ENDBRANCH   2  11
BRANCH   6  24
ATOM     24  N   UNL d   1      44.396 -16.210  36.337  0.00  0.00    -0.226 NA
BRANCH  24  25
ATOM     25  C   UNL d   1      43.601 -16.022  36.365  0.00  0.00     0.085 A 
ATOM     26  C   UNL d   1      43.023 -16.614  36.334  0.00  0.00     0.043 A 
ATOM     27  C   UNL d   1      42.224 -16.427  36.363  0.00  0.00     0.096 A 
ATOM     28  C   UNL d   1      41.995 -15.634  36.423  0.00  0.00     0.024 A 
ATOM     29  C   UNL d   1      42.561 -15.045  36.454  0.00  0.00     0.004 A 
ATOM     30  C   UNL d   1      43.366 -15.239  36.425  0.00  0.00     0.019 A 
BRANCH  27  31
ATOM     31  O   UNL d   1      41.654 -17.017  36.332  0.00  0.00    -0.328 OA
ATOM     32  C   UNL d   1      40.836 -17.026  36.440  0.00  0.00     0.181 C 
ENDBRANCH  27  31
ENDBRANCH  24  25
ENDBRANCH   6  24
TORSDOF 5
ENDMDL
