MODEL 1
REMARK VINA RESULT:      61.0      0.000      0.000
REMARK  6 active torsions:
REMARK  status: ('A' for Active; 'I' for Inactive)
REMARK    1  A    between atoms: N_3  and  C_1 
REMARK       I    between atoms: C_4  and  N_3 
REMARK       I    between atoms: N_10  and  C_4 
REMARK    2  A    between atoms: C_7  and  C_5 
REMARK    3  A    between atoms: C_9  and  C_7 
REMARK       I    between atoms: N_12  and  C_9 
REMARK    4  A    between atoms: C_14  and  N_10 
REMARK    5  A    between atoms: C_19  and  N_12 
REMARK    6  A    between atoms: C_17  and  C_19 
ROOT
ATOM      1  C   UNL d   1     -47.470  29.995  35.787  0.00  0.00     0.199 A 
ATOM      2  N   UNL d   1     -48.213  29.763  35.508  0.00  0.00    -0.220 NA
ATOM      3  C   UNL d   1     -48.306  28.965  35.677  0.00  0.00     0.095 A 
ATOM      4  S   UNL d   1     -47.108  29.353  36.123  0.00  0.00    -0.046 SA
ATOM      5  C   UNL d   1     -47.619  28.710  36.060  0.00  0.00     0.058 A 
ENDROOT
BRANCH   1   6
ATOM      6  N   UNL d   1     -47.141  30.763  35.733  0.00  0.00    -0.166 NA
ATOM      7  C   UNL d   1     -47.398  31.285  35.135  0.00  0.00     0.370 C 
ATOM      8  N   UNL d   1     -47.079  32.046  35.073  0.00  0.00    -0.191 NA
ATOM      9  O   UNL d   1     -47.980  31.043  34.592  0.00  0.00    -0.242 OA
BRANCH   8  10
ATOM     10  C   UNL d   1     -47.327  32.564  34.488  0.00  0.00     0.087 A 
ATOM     11  C   UNL d   1     -48.129  32.680  34.339  0.00  0.00     0.031 A 
ATOM     12  C   UNL d   1     -48.378  33.192  33.760  0.00  0.00     0.059 A 
ATOM     13 CL   UNL d   1     -49.186  33.303  33.615  0.00  0.00    -0.082 Cl
ATOM     14  C   UNL d   1     -47.812  33.608  33.308  0.00  0.00     0.011 A 
ATOM     15  C   UNL d   1     -47.010  33.492  33.458  0.00  0.00     0.002 A 
ATOM     16  C   UNL d   1     -46.766  32.969  34.048  0.00  0.00     0.019 A 
ENDBRANCH   8  10
ENDBRANCH   1   6
BRANCH   3  17
ATOM     17  C   UNL d   1     -48.971  28.501  35.496  0.00  0.00     0.082 C 
BRANCH  17  18
ATOM     18  C   UNL d   1     -49.114  28.246  34.709  0.00  0.00     0.281 C 
ATOM     19  N   UNL d   1     -49.603  27.599  34.557  0.00  0.00    -0.205 NA
ATOM     20  O   UNL d   1     -48.755  28.658  34.091  0.00  0.00    -0.265 OA
BRANCH  19  21
ATOM     21  C   UNL d   1     -49.737  27.357  33.784  0.00  0.00     0.121 C 
BRANCH  21  22
ATOM     22  C   UNL d   1     -50.108  26.656  33.627  0.00  0.00     0.101 A 
ATOM     23  N   UNL d   1     -49.660  25.957  33.519  0.00  0.00    -0.242 NA
ATOM     24  C   UNL d   1     -50.047  25.247  33.359  0.00  0.00     0.099 A 
ATOM     25  C   UNL d   1     -50.868  25.218  33.306  0.00  0.00     0.021 A 
ATOM     26  C   UNL d   1     -51.310  25.907  33.413  0.00  0.00     0.003 A 
ATOM     27  C   UNL d   1     -50.920  26.623  33.574  0.00  0.00     0.021 A 
ENDBRANCH  21  22
ENDBRANCH  19  21
ENDBRANCH  17  18
ENDBRANCH   3  17
TORSDOF 6
ENDMDL
MODEL 2
REMARK VINA RESULT:      62.3      1.128      1.825
REMARK  6 active torsions:
REMARK  status: ('A' for Active; 'I' for Inactive)
REMARK    1  A    between atoms: N_3  and  C_1 
REMARK       I    between atoms: C_4  and  N_3 
REMARK       I    between atoms: N_10  and  C_4 
REMARK    2  A    between atoms: C_7  and  C_5 
REMARK    3  A    between atoms: C_9  and  C_7 
REMARK       I    between atoms: N_12  and  C_9 
REMARK    4  A    between atoms: C_14  and  N_10 
REMARK    5  A    between atoms: C_19  and  N_12 
REMARK    6  A    between atoms: C_17  and  C_19 
ROOT
ATOM      1  C   UNL d   1     -48.647  28.619  35.178  0.00  0.00     0.199 A 
ATOM      2  N   UNL d   1     -48.830  28.588  34.372  0.00  0.00    -0.220 NA
ATOM      3  C   UNL d   1     -49.315  27.936  34.252  0.00  0.00     0.095 A 
ATOM      4  S   UNL d   1     -49.011  27.999  35.551  0.00  0.00    -0.046 SA
ATOM      5  C   UNL d   1     -49.428  27.570  34.985  0.00  0.00     0.058 A 
ENDROOT
BRANCH   1   6
ATOM      6  N   UNL d   1     -48.165  29.193  35.552  0.00  0.00    -0.166 NA
ATOM      7  C   UNL d   1     -48.041  29.933  35.187  0.00  0.00     0.370 C 
ATOM      8  N   UNL d   1     -47.567  30.508  35.548  0.00  0.00    -0.191 NA
ATOM      9  O   UNL d   1     -48.393  30.101  34.453  0.00  0.00    -0.242 OA
BRANCH   8  10
ATOM     10  C   UNL d   1     -47.441  31.236  35.195  0.00  0.00     0.087 A 
ATOM     11  C   UNL d   1     -47.938  31.874  35.352  0.00  0.00     0.031 A 
ATOM     12  C   UNL d   1     -47.816  32.597  35.004  0.00  0.00     0.059 A 
ATOM     13 CL   UNL d   1     -48.320  33.234  35.166  0.00  0.00    -0.082 Cl
ATOM     14  C   UNL d   1     -47.175  32.697  34.478  0.00  0.00     0.011 A 
ATOM     15  C   UNL d   1     -46.677  32.059  34.321  0.00  0.00     0.002 A 
ATOM     16  C   UNL d   1     -46.809  31.327  34.679  0.00  0.00     0.019 A 
ENDBRANCH   8  10
ENDBRANCH   1   6
BRANCH   3  17
ATOM     17  C   UNL d   1     -49.633  27.692  33.524  0.00  0.00     0.082 C 
BRANCH  17  18
ATOM     18  C   UNL d   1     -50.350  27.256  33.495  0.00  0.00     0.281 C 
ATOM     19  N   UNL d   1     -50.346  26.446  33.337  0.00  0.00    -0.205 NA
ATOM     20  O   UNL d   1     -51.060  27.656  33.627  0.00  0.00    -0.265 OA
BRANCH  19  21
ATOM     21  C   UNL d   1     -51.052  26.028  33.310  0.00  0.00     0.121 C 
BRANCH  21  22
ATOM     22  C   UNL d   1     -51.057  25.220  33.336  0.00  0.00     0.101 A 
ATOM     23  N   UNL d   1     -50.336  24.793  33.311  0.00  0.00    -0.242 NA
ATOM     24  C   UNL d   1     -50.351  23.970  33.338  0.00  0.00     0.099 A 
ATOM     25  C   UNL d   1     -51.064  23.563  33.388  0.00  0.00     0.021 A 
ATOM     26  C   UNL d   1     -51.775  23.983  33.413  0.00  0.00     0.003 A 
ATOM     27  C   UNL d   1     -51.761  24.813  33.386  0.00  0.00     0.021 A 
ENDBRANCH  21  22
ENDBRANCH  19  21
ENDBRANCH  17  18
ENDBRANCH   3  17
TORSDOF 6
ENDMDL
MODEL 3
REMARK VINA RESULT:      63.6      2.536      6.601
REMARK  6 active torsions:
REMARK  status: ('A' for Active; 'I' for Inactive)
REMARK    1  A    between atoms: N_3  and  C_1 
REMARK       I    between atoms: C_4  and  N_3 
REMARK       I    between atoms: N_10  and  C_4 
REMARK    2  A    between atoms: C_7  and  C_5 
REMARK    3  A    between atoms: C_9  and  C_7 
REMARK       I    between atoms: N_12  and  C_9 
REMARK    4  A    between atoms: C_14  and  N_10 
REMARK    5  A    between atoms: C_19  and  N_12 
REMARK    6  A    between atoms: C_17  and  C_19 
ROOT
ATOM      1  C   UNL d   1     -50.577  27.647  33.745  0.00  0.00     0.199 A 
ATOM      2  N   UNL d   1     -50.078  27.419  34.364  0.00  0.00    -0.220 NA
ATOM      3  C   UNL d   1     -49.404  27.888  34.327  0.00  0.00     0.095 A 
ATOM      4  S   UNL d   1     -50.220  28.245  33.332  0.00  0.00    -0.046 SA
ATOM      5  C   UNL d   1     -49.493  28.402  33.684  0.00  0.00     0.058 A 
ENDROOT
BRANCH   1   6
ATOM      6  N   UNL d   1     -51.326  27.318  33.570  0.00  0.00    -0.166 NA
ATOM      7  C   UNL d   1     -51.422  26.488  33.552  0.00  0.00     0.370 C 
ATOM      8  N   UNL d   1     -52.159  26.153  33.380  0.00  0.00    -0.191 NA
ATOM      9  O   UNL d   1     -50.775  25.990  33.707  0.00  0.00    -0.242 OA
BRANCH   8  10
ATOM     10  C   UNL d   1     -52.260  25.340  33.360  0.00  0.00     0.087 A 
ATOM     11  C   UNL d   1     -51.611  24.834  33.343  0.00  0.00     0.031 A 
ATOM     12  C   UNL d   1     -51.707  24.027  33.323  0.00  0.00     0.059 A 
ATOM     13 CL   UNL d   1     -51.049  23.524  33.306  0.00  0.00    -0.082 Cl
ATOM     14  C   UNL d   1     -52.478  23.706  33.321  0.00  0.00     0.011 A 
ATOM     15  C   UNL d   1     -53.127  24.213  33.338  0.00  0.00     0.002 A 
ATOM     16  C   UNL d   1     -53.020  25.031  33.358  0.00  0.00     0.019 A 
ENDBRANCH   8  10
ENDBRANCH   1   6
BRANCH   3  17
ATOM     17  C   UNL d   1     -48.754  27.851  34.842  0.00  0.00     0.082 C 
BRANCH  17  18
ATOM     18  C   UNL d   1     -48.444  28.547  35.194  0.00  0.00     0.281 C 
ATOM     19  N   UNL d   1     -48.050  29.111  34.738  0.00  0.00    -0.205 NA
ATOM     20  O   UNL d   1     -48.544  28.655  36.006  0.00  0.00    -0.265 OA
BRANCH  19  21
ATOM     21  C   UNL d   1     -47.751  29.790  35.092  0.00  0.00     0.121 C 
BRANCH  21  22
ATOM     22  C   UNL d   1     -47.861  30.516  34.754  0.00  0.00     0.101 A 
ATOM     23  N   UNL d   1     -48.608  30.724  34.437  0.00  0.00    -0.242 NA
ATOM     24  C   UNL d   1     -48.711  31.467  34.095  0.00  0.00     0.099 A 
ATOM     25  C   UNL d   1     -48.089  32.005  34.060  0.00  0.00     0.021 A 
ATOM     26  C   UNL d   1     -47.352  31.799  34.373  0.00  0.00     0.003 A 
ATOM     27  C   UNL d   1     -47.248  31.051  34.718  0.00  0.00     0.021 A 
ENDBRANCH  21  22
ENDBRANCH  19  21
ENDBRANCH  17  18
ENDBRANCH   3  17
TORSDOF 6
ENDMDL
