MODEL 1
REMARK VINA RESULT:      -5.2      0.000      0.000
REMARK  5 active torsions:
REMARK  status: ('A' for Active; 'I' for Inactive)
REMARK    1  A    between atoms: C_6  and  N_1 
REMARK    2  A    between atoms: C_7  and  C_3 
REMARK    3  A    between atoms: C_10  and  C_7 
REMARK    4  A    between atoms: C_16  and  C_8 
REMARK    5  A    between atoms: C_14  and  C_18 
ROOT
ATOM      1  N   UNL d   1      57.388   0.203  31.707  0.00  0.00    -0.252 N 
ATOM      2  C   UNL d   1      58.117   0.489  31.951  0.00  0.00     0.203 A 
ATOM      3  C   UNL d   1      58.092   0.512  30.623  0.00  0.00     0.091 A 
ATOM      4  C   UNL d   1      57.368   0.216  30.885  0.00  0.00     0.272 A 
ATOM      5  S   UNL d   1      58.554   0.681  31.285  0.00  0.00    -0.043 SA
ATOM      6  N   UNL d   1      58.369   0.570  32.738  0.00  0.00    -0.121 N 
ATOM      7  O   UNL d   1      56.745  -0.022  30.407  0.00  0.00    -0.266 OA
ENDROOT
BRANCH   3   8
ATOM      8  C   UNL d   1      58.319   0.623  29.838  0.00  0.00     0.036 C 
BRANCH   8   9
ATOM      9  C   UNL d   1      58.935   0.176  29.506  0.00  0.00     0.101 A 
ATOM     10  O   UNL d   1      59.014  -0.643  29.568  0.00  0.00    -0.307 OA
ATOM     11  C   UNL d   1      59.701  -0.868  29.161  0.00  0.00     0.100 A 
ATOM     12  C   UNL d   1      60.042  -0.177  28.848  0.00  0.00     0.027 A 
ATOM     13  C   UNL d   1      59.563   0.461  29.066  0.00  0.00     0.027 A 
BRANCH  11  14
ATOM     14  C   UNL d   1      59.989  -1.629  29.081  0.00  0.00     0.023 A 
ATOM     15  C   UNL d   1      59.491  -2.243  28.866  0.00  0.00     0.008 A 
ATOM     16  C   UNL d   1      59.792  -3.013  28.788  0.00  0.00     0.065 A 
ATOM     17  C   UNL d   1      60.576  -3.161  28.923  0.00  0.00     0.006 A 
ATOM     18  C   UNL d   1      61.089  -2.557  29.139  0.00  0.00     0.000 A 
ATOM     19  C   UNL d   1      60.784  -1.788  29.216  0.00  0.00     0.002 A 
BRANCH  16  20
ATOM     20  C   UNL d   1      59.272  -3.638  28.566  0.00  0.00     0.211 C 
ATOM     21  O   UNL d   1      58.472  -3.489  28.459  0.00  0.00    -0.644 OA
ATOM     22  O   UNL d   1      59.561  -4.394  28.458  0.00  0.00    -0.644 OA
ENDBRANCH  16  20
ENDBRANCH  11  14
ENDBRANCH   8   9
ENDBRANCH   3   8
BRANCH   1  23
ATOM     23  C   UNL d   1      56.779  -0.054  32.206  0.00  0.00     0.071 A 
ATOM     24  C   UNL d   1      56.294   0.503  32.585  0.00  0.00     0.044 A 
ATOM     25  C   UNL d   1      55.677   0.252  33.089  0.00  0.00     0.121 A 
ATOM     26  O   UNL d   1      55.120   0.680  33.529  0.00  0.00    -0.299 OA
ATOM     27  C   UNL d   1      55.554  -0.549  33.207  0.00  0.00     0.119 A 
ATOM     28  C   UNL d   1      54.649   0.130  33.923  0.00  0.00     0.304 A 
ATOM     29  O   UNL d   1      54.913  -0.635  33.728  0.00  0.00    -0.300 OA
ATOM     30  C   UNL d   1      56.028  -1.107  32.837  0.00  0.00     0.028 A 
ATOM     31  C   UNL d   1      56.645  -0.859  32.333  0.00  0.00     0.020 A 
ENDBRANCH   1  23
TORSDOF 5
ENDMDL
