MODEL 1
REMARK VINA RESULT:       6.7      0.000      0.000
REMARK  8 active torsions:
REMARK  status: ('A' for Active; 'I' for Inactive)
REMARK    1  A    between atoms: N_5  and  C_1 
REMARK    2  A    between atoms: C_2  and  N_5 
REMARK    3  A    between atoms: N_3  and  C_2 
REMARK       I    between atoms: C_6  and  N_3 
REMARK    4  A    between atoms: C_13  and  C_6 
REMARK    5  A    between atoms: C_9  and  C_7 
REMARK    6  A    between atoms: C_11  and  C_9 
REMARK    7  A    between atoms: O_21  and  C_11 
REMARK    8  A    between atoms: C_23  and  O_21 
ROOT
ATOM      1  C   UNL d   1     -41.304-121.893 -51.160  0.00  0.00     0.225 C 
ATOM      2  S   UNL d   1     -41.586-121.130 -51.184  0.00  0.00    -0.037 SA
ENDROOT
BRANCH   1   3
ATOM      3  N   UNL d   1     -41.136-122.242 -50.432  0.00  0.00    -0.192 NA
BRANCH   3   4
ATOM      4  C   UNL d   1     -41.702-122.741 -50.069  0.00  0.00     0.196 A 
ATOM      5  N   UNL d   1     -42.417-122.521 -49.766  0.00  0.00    -0.220 NA
ATOM      6  C   UNL d   1     -42.768-123.184 -49.476  0.00  0.00     0.095 A 
ATOM      7  C   UNL d   1     -42.257-123.817 -49.607  0.00  0.00     0.058 A 
ATOM      8  S   UNL d   1     -41.604-123.532 -49.972  0.00  0.00    -0.046 SA
BRANCH   6   9
ATOM      9  C   UNL d   1     -43.523-123.200 -49.111  0.00  0.00     0.088 C 
BRANCH   9  10
ATOM     10  C   UNL d   1     -44.205-123.095 -49.533  0.00  0.00     0.302 C 
ATOM     11  O   UNL d   1     -44.453-122.356 -49.785  0.00  0.00    -0.259 OA
BRANCH  10  12
ATOM     12  O   UNL d   1     -44.681-123.759 -49.725  0.00  0.00    -0.271 OA
BRANCH  12  13
ATOM     13  C   UNL d   1     -45.488-123.642 -49.869  0.00  0.00     0.126 C 
ATOM     14  C   UNL d   1     -45.708-122.927 -50.211  0.00  0.00     0.029 C 
ENDBRANCH  12  13
ENDBRANCH  10  12
ENDBRANCH   9  10
ENDBRANCH   6   9
ENDBRANCH   3   4
ENDBRANCH   1   3
BRANCH   1  15
ATOM     15  N   UNL d   1     -41.184-122.316 -51.838  0.00  0.00    -0.179 NA
ATOM     16  C   UNL d   1     -41.614-122.119 -52.522  0.00  0.00     0.281 C 
ATOM     17  O   UNL d   1     -42.151-121.502 -52.505  0.00  0.00    -0.265 OA
BRANCH  16  18
ATOM     18  C   UNL d   1     -41.496-122.551 -53.223  0.00  0.00     0.058 A 
ATOM     19  C   UNL d   1     -41.311-123.361 -53.196  0.00  0.00     0.007 A 
ATOM     20  C   UNL d   1     -41.198-123.770 -53.907  0.00  0.00     0.030 A 
ATOM     21  C   UNL d   1     -41.269-123.376 -54.638  0.00  0.00     0.140 A 
ATOM     22  C   UNL d   1     -41.451-122.582 -54.651  0.00  0.00     0.030 A 
ATOM     23  F   UNL d   1     -41.159-123.775 -55.331  0.00  0.00    -0.204 F 
ATOM     24  C   UNL d   1     -41.566-122.163 -53.955  0.00  0.00     0.007 A 
ENDBRANCH  16  18
ENDBRANCH   1  15
TORSDOF 8
ENDMDL
