MODEL 1
REMARK VINA RESULT:      -8.2      0.000      0.000
REMARK  2 active torsions:
REMARK  status: ('A' for Active; 'I' for Inactive)
REMARK    1  A    between atoms: N_3  and  C_1 
REMARK    2  A    between atoms: C_13  and  N_6 
ROOT
ATOM      1  C   UNL d   1      52.254  33.294  53.288  0.00  0.00     0.143 A 
ATOM      2  C   UNL d   1      52.779  33.680  53.809  0.00  0.00     0.297 A 
ATOM      3  C   UNL d   1      52.547  32.556  53.129  0.00  0.00     0.102 A 
ATOM      4  N   UNL d   1      53.259  32.466  53.547  0.00  0.00    -0.238 N 
ATOM      5  N   UNL d   1      53.399  33.159  53.964  0.00  0.00    -0.209 N 
ATOM      6  O   UNL d   1      52.701  34.436  54.114  0.00  0.00    -0.264 OA
ATOM      7  C   UNL d   1      53.737  31.785  53.535  0.00  0.00     0.120 C 
ATOM      8  C   UNL d   1      52.198  31.987  52.636  0.00  0.00     0.022 C 
ENDROOT
BRANCH   1   9
ATOM      9  N   UNL d   1      51.553  33.626  52.991  0.00  0.00    -0.254 N 
ATOM     10  C   UNL d   1      51.504  34.116  52.323  0.00  0.00     0.153 A 
ATOM     11  S   UNL d   1      50.708  34.320  52.225  0.00  0.00    -0.053 SA
ATOM     12  S   UNL d   1      52.133  34.349  51.852  0.00  0.00    -0.052 SA
ATOM     13  C   UNL d   1      50.281  33.957  52.830  0.00  0.00     0.099 A 
ATOM     14  C   UNL d   1      50.803  33.533  53.297  0.00  0.00     0.273 A 
ATOM     15  O   UNL d   1      50.598  33.086  53.966  0.00  0.00    -0.266 OA
ENDBRANCH   1   9
BRANCH   5  16
ATOM     16  C   UNL d   1      54.038  33.328  54.456  0.00  0.00     0.085 A 
ATOM     17  C   UNL d   1      53.989  33.187  55.268  0.00  0.00     0.019 A 
ATOM     18  C   UNL d   1      54.633  33.360  55.749  0.00  0.00     0.002 A 
ATOM     19  C   UNL d   1      55.318  33.667  55.437  0.00  0.00     0.000 A 
ATOM     20  C   UNL d   1      55.374  33.809  54.634  0.00  0.00     0.002 A 
ATOM     21  C   UNL d   1      54.732  33.640  54.137  0.00  0.00     0.019 A 
ENDBRANCH   5  16
TORSDOF 2
ENDMDL
MODEL 2
REMARK VINA RESULT:      -8.0      1.581      3.675
REMARK  2 active torsions:
REMARK  status: ('A' for Active; 'I' for Inactive)
REMARK    1  A    between atoms: N_3  and  C_1 
REMARK    2  A    between atoms: C_13  and  N_6 
ROOT
ATOM      1  C   UNL d   1      53.528  33.117  53.790  0.00  0.00     0.143 A 
ATOM      2  C   UNL d   1      52.976  33.684  53.528  0.00  0.00     0.297 A 
ATOM      3  C   UNL d   1      53.248  32.380  53.603  0.00  0.00     0.102 A 
ATOM      4  N   UNL d   1      52.516  32.472  53.221  0.00  0.00    -0.238 N 
ATOM      5  N   UNL d   1      52.352  33.275  53.176  0.00  0.00    -0.209 N 
ATOM      6  O   UNL d   1      53.034  34.498  53.601  0.00  0.00    -0.264 OA
ATOM      7  C   UNL d   1      52.043  31.849  52.939  0.00  0.00     0.120 C 
ATOM      8  C   UNL d   1      53.624  31.658  53.764  0.00  0.00     0.022 C 
ENDROOT
BRANCH   1   9
ATOM      9  N   UNL d   1      54.242  33.294  54.176  0.00  0.00    -0.254 N 
ATOM     10  C   UNL d   1      54.312  33.487  54.980  0.00  0.00     0.153 A 
ATOM     11  S   UNL d   1      55.114  33.623  55.132  0.00  0.00    -0.053 SA
ATOM     12  S   UNL d   1      53.696  33.533  55.518  0.00  0.00    -0.052 SA
ATOM     13  C   UNL d   1      55.524  33.512  54.425  0.00  0.00     0.099 A 
ATOM     14  C   UNL d   1      54.985  33.311  53.842  0.00  0.00     0.273 A 
ATOM     15  O   UNL d   1      55.170  33.153  53.048  0.00  0.00    -0.266 OA
ENDBRANCH   1   9
BRANCH   5  16
ATOM     16  C   UNL d   1      51.688  33.633  52.845  0.00  0.00     0.085 A 
ATOM     17  C   UNL d   1      51.719  33.945  52.081  0.00  0.00     0.019 A 
ATOM     18  C   UNL d   1      51.051  34.301  51.760  0.00  0.00     0.002 A 
ATOM     19  C   UNL d   1      50.358  34.349  52.185  0.00  0.00     0.000 A 
ATOM     20  C   UNL d   1      50.321  34.043  52.940  0.00  0.00     0.002 A 
ATOM     21  C   UNL d   1      50.987  33.682  53.276  0.00  0.00     0.019 A 
ENDBRANCH   5  16
TORSDOF 2
ENDMDL
MODEL 3
REMARK VINA RESULT:      -7.4      1.557      2.889
REMARK  2 active torsions:
REMARK  status: ('A' for Active; 'I' for Inactive)
REMARK    1  A    between atoms: N_3  and  C_1 
REMARK    2  A    between atoms: C_13  and  N_6 
ROOT
ATOM      1  C   UNL d   1      53.534  33.377  53.889  0.00  0.00     0.143 A 
ATOM      2  C   UNL d   1      53.076  32.680  53.880  0.00  0.00     0.297 A 
ATOM      3  C   UNL d   1      54.278  33.199  53.625  0.00  0.00     0.102 A 
ATOM      4  N   UNL d   1      54.301  32.388  53.446  0.00  0.00    -0.238 N 
ATOM      5  N   UNL d   1      53.561  32.072  53.604  0.00  0.00    -0.209 N 
ATOM      6  O   UNL d   1      52.292  32.603  54.103  0.00  0.00    -0.264 OA
ATOM      7  C   UNL d   1      54.967  31.981  53.157  0.00  0.00     0.120 C 
ATOM      8  C   UNL d   1      54.910  33.731  53.546  0.00  0.00     0.022 C 
ENDROOT
BRANCH   1   9
ATOM      9  N   UNL d   1      53.256  34.121  54.131  0.00  0.00    -0.254 N 
ATOM     10  C   UNL d   1      52.828  34.648  53.654  0.00  0.00     0.153 A 
ATOM     11  S   UNL d   1      52.664  35.318  54.112  0.00  0.00    -0.053 SA
ATOM     12  S   UNL d   1      52.612  34.520  52.875  0.00  0.00    -0.052 SA
ATOM     13  C   UNL d   1      52.991  35.195  54.859  0.00  0.00     0.099 A 
ATOM     14  C   UNL d   1      53.353  34.461  54.866  0.00  0.00     0.273 A 
ATOM     15  O   UNL d   1      53.749  34.125  55.514  0.00  0.00    -0.266 OA
ENDBRANCH   1   9
BRANCH   5  16
ATOM     16  C   UNL d   1      53.319  31.289  53.511  0.00  0.00     0.085 A 
ATOM     17  C   UNL d   1      52.895  31.059  52.842  0.00  0.00     0.019 A 
ATOM     18  C   UNL d   1      52.659  30.275  52.760  0.00  0.00     0.002 A 
ATOM     19  C   UNL d   1      52.838  29.723  53.330  0.00  0.00     0.000 A 
ATOM     20  C   UNL d   1      53.258  29.944  53.995  0.00  0.00     0.002 A 
ATOM     21  C   UNL d   1      53.502  30.731  54.090  0.00  0.00     0.019 A 
ENDBRANCH   5  16
TORSDOF 2
ENDMDL
MODEL 4
REMARK VINA RESULT:      -7.0      1.042      2.287
REMARK  2 active torsions:
REMARK  status: ('A' for Active; 'I' for Inactive)
REMARK    1  A    between atoms: N_3  and  C_1 
REMARK    2  A    between atoms: C_13  and  N_6 
ROOT
ATOM      1  C   UNL d   1      52.296  33.128  53.392  0.00  0.00     0.143 A 
ATOM      2  C   UNL d   1      52.434  32.341  53.152  0.00  0.00     0.297 A 
ATOM      3  C   UNL d   1      52.801  33.303  54.000  0.00  0.00     0.102 A 
ATOM      4  N   UNL d   1      53.265  32.630  54.152  0.00  0.00    -0.238 N 
ATOM      5  N   UNL d   1      53.036  32.041  53.629  0.00  0.00    -0.209 N 
ATOM      6  O   UNL d   1      52.048  31.933  52.555  0.00  0.00    -0.264 OA
ATOM      7  C   UNL d   1      53.854  32.579  54.737  0.00  0.00     0.120 C 
ATOM      8  C   UNL d   1      52.850  34.027  54.402  0.00  0.00     0.022 C 
ENDROOT
BRANCH   1   9
ATOM      9  N   UNL d   1      51.731  33.633  53.053  0.00  0.00    -0.254 N 
ATOM     10  C   UNL d   1      51.893  34.214  52.484  0.00  0.00     0.153 A 
ATOM     11  S   UNL d   1      51.177  34.586  52.300  0.00  0.00    -0.053 SA
ATOM     12  S   UNL d   1      52.630  34.383  52.167  0.00  0.00    -0.052 SA
ATOM     13  C   UNL d   1      50.588  34.232  52.755  0.00  0.00     0.099 A 
ATOM     14  C   UNL d   1      50.932  33.648  53.215  0.00  0.00     0.273 A 
ATOM     15  O   UNL d   1      50.531  33.158  53.752  0.00  0.00    -0.266 OA
ENDBRANCH   1   9
BRANCH   5  16
ATOM     16  C   UNL d   1      53.339  31.277  53.572  0.00  0.00     0.085 A 
ATOM     17  C   UNL d   1      54.015  31.127  53.122  0.00  0.00     0.019 A 
ATOM     18  C   UNL d   1      54.309  30.361  53.072  0.00  0.00     0.002 A 
ATOM     19  C   UNL d   1      53.942  29.746  53.459  0.00  0.00     0.000 A 
ATOM     20  C   UNL d   1      53.273  29.887  53.906  0.00  0.00     0.002 A 
ATOM     21  C   UNL d   1      52.966  30.655  53.965  0.00  0.00     0.019 A 
ENDBRANCH   5  16
TORSDOF 2
ENDMDL
MODEL 5
REMARK VINA RESULT:      -6.8      2.008      3.659
REMARK  2 active torsions:
REMARK  status: ('A' for Active; 'I' for Inactive)
REMARK    1  A    between atoms: N_3  and  C_1 
REMARK    2  A    between atoms: C_13  and  N_6 
ROOT
ATOM      1  C   UNL d   1      52.966  32.074  53.280  0.00  0.00     0.143 A 
ATOM      2  C   UNL d   1      52.185  32.337  53.148  0.00  0.00     0.297 A 
ATOM      3  C   UNL d   1      53.457  32.718  53.280  0.00  0.00     0.102 A 
ATOM      4  N   UNL d   1      52.994  33.396  53.149  0.00  0.00    -0.238 N 
ATOM      5  N   UNL d   1      52.213  33.158  53.069  0.00  0.00    -0.209 N 
ATOM      6  O   UNL d   1      51.511  31.874  53.104  0.00  0.00    -0.264 OA
ATOM      7  C   UNL d   1      53.286  34.173  53.110  0.00  0.00     0.120 C 
ATOM      8  C   UNL d   1      54.279  32.706  53.392  0.00  0.00     0.022 C 
ENDROOT
BRANCH   1   9
ATOM      9  N   UNL d   1      53.185  31.281  53.390  0.00  0.00    -0.254 N 
ATOM     10  C   UNL d   1      53.402  30.943  54.116  0.00  0.00     0.153 A 
ATOM     11  S   UNL d   1      53.577  30.147  53.975  0.00  0.00    -0.053 SA
ATOM     12  S   UNL d   1      53.435  31.334  54.835  0.00  0.00    -0.052 SA
ATOM     13  C   UNL d   1      53.466  30.005  53.171  0.00  0.00     0.099 A 
ATOM     14  C   UNL d   1      53.226  30.703  52.816  0.00  0.00     0.273 A 
ATOM     15  O   UNL d   1      53.054  30.800  52.009  0.00  0.00    -0.266 OA
ENDBRANCH   1   9
BRANCH   5  16
ATOM     16  C   UNL d   1      51.555  33.635  52.932  0.00  0.00     0.085 A 
ATOM     17  C   UNL d   1      51.097  33.907  53.563  0.00  0.00     0.019 A 
ATOM     18  C   UNL d   1      50.443  34.382  53.414  0.00  0.00     0.002 A 
ATOM     19  C   UNL d   1      50.240  34.589  52.653  0.00  0.00     0.000 A 
ATOM     20  C   UNL d   1      50.688  34.323  52.025  0.00  0.00     0.002 A 
ATOM     21  C   UNL d   1      51.351  33.843  52.160  0.00  0.00     0.019 A 
ENDBRANCH   5  16
TORSDOF 2
ENDMDL
