MODEL 1
REMARK VINA RESULT:      -4.7      0.000      0.000
REMARK  5 active torsions:
REMARK  status: ('A' for Active; 'I' for Inactive)
REMARK    1  A    between atoms: C_12  and  C_1 
REMARK    2  A    between atoms: N_7  and  C_2 
REMARK    3  A    between atoms: C_3  and  C_6 
REMARK       I    between atoms: C_6  and  N_7 
REMARK    4  A    between atoms: O_18  and  C_12 
REMARK    5  A    between atoms: C_23  and  O_18 
ROOT
ATOM      1  C   UNL d   1     -40.351  15.015  21.089  0.00  0.00     0.111 A 
ATOM      2  C   UNL d   1     -39.666  15.228  20.752  0.00  0.00     0.096 A 
ATOM      3  S   UNL d   1     -40.258  15.112  21.922  0.00  0.00    -0.080 SA
ATOM      4  C   UNL d   1     -39.126  15.459  21.323  0.00  0.00     0.024 A 
ATOM      5  C   UNL d   1     -39.498  15.386  22.054  0.00  0.00     0.031 A 
ATOM      6  C   UNL d   1     -38.344  15.727  21.274  0.00  0.00     0.002 A 
ATOM      7  C   UNL d   1     -39.098  15.579  22.749  0.00  0.00     0.006 A 
ATOM      8  C   UNL d   1     -37.940  15.922  21.970  0.00  0.00     0.000 A 
ATOM      9  C   UNL d   1     -38.312  15.849  22.701  0.00  0.00     0.001 A 
ENDROOT
BRANCH   2  10
ATOM     10  N   UNL d   1     -39.542  15.206  19.919  0.00  0.00    -0.207 NA
ATOM     11  C   UNL d   1     -39.034  14.641  19.597  0.00  0.00     0.284 C 
ATOM     12  O   UNL d   1     -38.649  14.089  20.151  0.00  0.00    -0.265 OA
BRANCH  11  13
ATOM     13  C   UNL d   1     -38.946  14.660  18.782  0.00  0.00     0.121 A 
ATOM     14  C   UNL d   1     -38.726  13.964  18.400  0.00  0.00     0.204 A 
ATOM     15  C   UNL d   1     -38.627  13.942  17.575  0.00  0.00     0.062 A 
ATOM     16  O   UNL d   1     -38.599  13.261  18.861  0.00  0.00    -0.286 OA
ATOM     17  C   UNL d   1     -38.407  13.243  17.210  0.00  0.00     0.005 A 
ATOM     18  C   UNL d   1     -38.752  14.633  17.132  0.00  0.00     0.103 A 
ATOM     19  C   UNL d   1     -38.313  13.240  16.388  0.00  0.00     0.000 A 
ATOM     20  C   UNL d   1     -38.434  13.916  15.937  0.00  0.00     0.002 A 
ATOM     21  C   UNL d   1     -38.650  14.602  16.308  0.00  0.00     0.025 A 
ATOM     22  O   UNL d   1     -38.972  15.332  17.505  0.00  0.00    -0.305 OA
ATOM     23  C   UNL d   1     -39.071  15.351  18.330  0.00  0.00     0.131 A 
ENDBRANCH  11  13
ENDBRANCH   2  10
BRANCH   1  24
ATOM     24  C   UNL d   1     -41.021  14.751  20.678  0.00  0.00     0.308 C 
ATOM     25  O   UNL d   1     -41.383  15.217  20.117  0.00  0.00    -0.258 OA
BRANCH  24  26
ATOM     26  O   UNL d   1     -41.278  14.024  20.867  0.00  0.00    -0.271 OA
BRANCH  26  27
ATOM     27  C   UNL d   1     -42.104  13.713  20.717  0.00  0.00     0.126 C 
ATOM     28  C   UNL d   1     -42.362  13.049  21.088  0.00  0.00     0.029 C 
ENDBRANCH  26  27
ENDBRANCH  24  26
ENDBRANCH   1  24
TORSDOF 5
ENDMDL
MODEL 2
REMARK VINA RESULT:      -4.5      7.129      9.798
REMARK  5 active torsions:
REMARK  status: ('A' for Active; 'I' for Inactive)
REMARK    1  A    between atoms: C_12  and  C_1 
REMARK    2  A    between atoms: N_7  and  C_2 
REMARK    3  A    between atoms: C_3  and  C_6 
REMARK       I    between atoms: C_6  and  N_7 
REMARK    4  A    between atoms: O_18  and  C_12 
REMARK    5  A    between atoms: C_23  and  O_18 
ROOT
ATOM      1  C   UNL d   1     -49.985  13.248  22.966  0.00  0.00     0.111 A 
ATOM      2  C   UNL d   1     -49.417  13.776  23.128  0.00  0.00     0.096 A 
ATOM      3  S   UNL d   1     -50.718  13.666  22.957  0.00  0.00    -0.080 SA
ATOM      4  C   UNL d   1     -49.741  14.522  23.227  0.00  0.00     0.024 A 
ATOM      5  C   UNL d   1     -50.554  14.451  23.120  0.00  0.00     0.031 A 
ATOM      6  C   UNL d   1     -49.402  15.257  23.401  0.00  0.00     0.002 A 
ATOM      7  C   UNL d   1     -51.044  15.111  23.184  0.00  0.00     0.006 A 
ATOM      8  C   UNL d   1     -49.892  15.922  23.466  0.00  0.00     0.000 A 
ATOM      9  C   UNL d   1     -50.706  15.851  23.358  0.00  0.00     0.001 A 
ENDROOT
BRANCH   2  10
ATOM     10  N   UNL d   1     -48.603  13.567  23.185  0.00  0.00    -0.207 NA
ATOM     11  C   UNL d   1     -48.076  13.820  22.602  0.00  0.00     0.284 C 
ATOM     12  O   UNL d   1     -48.403  14.299  21.949  0.00  0.00    -0.265 OA
BRANCH  11  13
ATOM     13  C   UNL d   1     -47.295  13.592  22.700  0.00  0.00     0.121 A 
ATOM     14  C   UNL d   1     -46.856  13.413  22.026  0.00  0.00     0.204 A 
ATOM     15  C   UNL d   1     -46.061  13.178  22.083  0.00  0.00     0.062 A 
ATOM     16  O   UNL d   1     -47.226  13.472  21.263  0.00  0.00    -0.286 OA
ATOM     17  C   UNL d   1     -45.638  13.004  21.405  0.00  0.00     0.005 A 
ATOM     18  C   UNL d   1     -45.707  13.123  22.833  0.00  0.00     0.103 A 
ATOM     19  C   UNL d   1     -44.847  12.772  21.482  0.00  0.00     0.000 A 
ATOM     20  C   UNL d   1     -44.484  12.713  22.216  0.00  0.00     0.002 A 
ATOM     21  C   UNL d   1     -44.911  12.887  22.881  0.00  0.00     0.025 A 
ATOM     22  O   UNL d   1     -46.137  13.299  23.511  0.00  0.00    -0.305 OA
ATOM     23  C   UNL d   1     -46.932  13.534  23.451  0.00  0.00     0.131 A 
ENDBRANCH  11  13
ENDBRANCH   2  10
BRANCH   1  24
ATOM     24  C   UNL d   1     -49.857  12.439  22.833  0.00  0.00     0.308 C 
ATOM     25  O   UNL d   1     -49.966  12.110  22.095  0.00  0.00    -0.258 OA
BRANCH  24  26
ATOM     26  O   UNL d   1     -49.626  12.016  23.463  0.00  0.00    -0.271 OA
BRANCH  26  27
ATOM     27  C   UNL d   1     -49.747  11.136  23.568  0.00  0.00     0.126 C 
ATOM     28  C   UNL d   1     -49.120  10.652  23.698  0.00  0.00     0.029 C 
ENDBRANCH  26  27
ENDBRANCH  24  26
ENDBRANCH   1  24
TORSDOF 5
ENDMDL
MODEL 3
REMARK VINA RESULT:      -3.4      6.719      9.544
REMARK  5 active torsions:
REMARK  status: ('A' for Active; 'I' for Inactive)
REMARK    1  A    between atoms: C_12  and  C_1 
REMARK    2  A    between atoms: N_7  and  C_2 
REMARK    3  A    between atoms: C_3  and  C_6 
REMARK       I    between atoms: C_6  and  N_7 
REMARK    4  A    between atoms: O_18  and  C_12 
REMARK    5  A    between atoms: C_23  and  O_18 
ROOT
ATOM      1  C   UNL d   1     -49.123  13.610  23.372  0.00  0.00     0.111 A 
ATOM      2  C   UNL d   1     -48.785  12.896  23.435  0.00  0.00     0.096 A 
ATOM      3  S   UNL d   1     -49.958  13.494  23.424  0.00  0.00    -0.080 SA
ATOM      4  C   UNL d   1     -49.355  12.316  23.525  0.00  0.00     0.024 A 
ATOM      5  C   UNL d   1     -50.089  12.692  23.519  0.00  0.00     0.031 A 
ATOM      6  C   UNL d   1     -49.305  11.494  23.613  0.00  0.00     0.002 A 
ATOM      7  C   UNL d   1     -50.783  12.256  23.599  0.00  0.00     0.006 A 
ATOM      8  C   UNL d   1     -50.002  11.053  23.695  0.00  0.00     0.000 A 
ATOM      9  C   UNL d   1     -50.735  11.429  23.688  0.00  0.00     0.001 A 
ENDROOT
BRANCH   2  10
ATOM     10  N   UNL d   1     -47.950  12.784  23.408  0.00  0.00    -0.207 NA
ATOM     11  C   UNL d   1     -47.604  12.459  22.732  0.00  0.00     0.284 C 
ATOM     12  O   UNL d   1     -48.136  12.248  22.074  0.00  0.00    -0.265 OA
BRANCH  11  13
ATOM     13  C   UNL d   1     -46.790  12.370  22.753  0.00  0.00     0.121 A 
ATOM     14  C   UNL d   1     -46.347  12.708  22.146  0.00  0.00     0.204 A 
ATOM     15  C   UNL d   1     -45.519  12.639  22.131  0.00  0.00     0.062 A 
ATOM     16  O   UNL d   1     -46.748  13.132  21.528  0.00  0.00    -0.286 OA
ATOM     17  C   UNL d   1     -45.093  12.980  21.522  0.00  0.00     0.005 A 
ATOM     18  C   UNL d   1     -45.135  12.224  22.739  0.00  0.00     0.103 A 
ATOM     19  C   UNL d   1     -44.270  12.902  21.524  0.00  0.00     0.000 A 
ATOM     20  C   UNL d   1     -43.876  12.494  22.117  0.00  0.00     0.002 A 
ATOM     21  C   UNL d   1     -44.307  12.160  22.716  0.00  0.00     0.025 A 
ATOM     22  O   UNL d   1     -45.569  11.883  23.349  0.00  0.00    -0.305 OA
ATOM     23  C   UNL d   1     -46.397  11.953  23.361  0.00  0.00     0.131 A 
ENDBRANCH  11  13
ENDBRANCH   2  10
BRANCH   1  24
ATOM     24  C   UNL d   1     -48.713  14.324  23.275  0.00  0.00     0.308 C 
ATOM     25  O   UNL d   1     -48.035  14.482  23.698  0.00  0.00    -0.258 OA
BRANCH  24  26
ATOM     26  O   UNL d   1     -49.022  14.832  22.749  0.00  0.00    -0.271 OA
BRANCH  26  27
ATOM     27  C   UNL d   1     -48.695  15.644  22.561  0.00  0.00     0.126 C 
ATOM     28  C   UNL d   1     -48.617  15.884  21.799  0.00  0.00     0.029 C 
ENDBRANCH  26  27
ENDBRANCH  24  26
ENDBRANCH   1  24
TORSDOF 5
ENDMDL
MODEL 4
REMARK VINA RESULT:      -2.3      1.057      2.536
REMARK  5 active torsions:
REMARK  status: ('A' for Active; 'I' for Inactive)
REMARK    1  A    between atoms: C_12  and  C_1 
REMARK    2  A    between atoms: N_7  and  C_2 
REMARK    3  A    between atoms: C_3  and  C_6 
REMARK       I    between atoms: C_6  and  N_7 
REMARK    4  A    between atoms: O_18  and  C_12 
REMARK    5  A    between atoms: C_23  and  O_18 
ROOT
ATOM      1  C   UNL d   1     -40.254  14.556  21.174  0.00  0.00     0.111 A 
ATOM      2  C   UNL d   1     -40.637  14.503  20.482  0.00  0.00     0.096 A 
ATOM      3  S   UNL d   1     -40.721  14.149  21.748  0.00  0.00    -0.080 SA
ATOM      4  C   UNL d   1     -41.333  14.082  20.572  0.00  0.00     0.024 A 
ATOM      5  C   UNL d   1     -41.384  13.861  21.364  0.00  0.00     0.031 A 
ATOM      6  C   UNL d   1     -41.928  13.869  20.037  0.00  0.00     0.002 A 
ATOM      7  C   UNL d   1     -42.029  13.425  21.637  0.00  0.00     0.006 A 
ATOM      8  C   UNL d   1     -42.577  13.431  20.308  0.00  0.00     0.000 A 
ATOM      9  C   UNL d   1     -42.628  13.210  21.100  0.00  0.00     0.001 A 
ENDROOT
BRANCH   2  10
ATOM     10  N   UNL d   1     -40.341  14.845  19.771  0.00  0.00    -0.207 NA
ATOM     11  C   UNL d   1     -40.049  14.355  19.175  0.00  0.00     0.284 C 
ATOM     12  O   UNL d   1     -40.065  13.495  19.321  0.00  0.00    -0.265 OA
BRANCH  11  13
ATOM     13  C   UNL d   1     -39.772  14.733  18.502  0.00  0.00     0.121 A 
ATOM     14  C   UNL d   1     -39.317  14.298  17.972  0.00  0.00     0.204 A 
ATOM     15  C   UNL d   1     -39.018  14.645  17.279  0.00  0.00     0.062 A 
ATOM     16  O   UNL d   1     -39.154  13.481  18.141  0.00  0.00    -0.286 OA
ATOM     17  C   UNL d   1     -38.568  14.199  16.761  0.00  0.00     0.005 A 
ATOM     18  C   UNL d   1     -39.182  15.443  17.121  0.00  0.00     0.103 A 
ATOM     19  C   UNL d   1     -38.279  14.561  16.076  0.00  0.00     0.000 A 
ATOM     20  C   UNL d   1     -38.432  15.350  15.907  0.00  0.00     0.002 A 
ATOM     21  C   UNL d   1     -38.879  15.783  16.426  0.00  0.00     0.025 A 
ATOM     22  O   UNL d   1     -39.635  15.886  17.645  0.00  0.00    -0.305 OA
ATOM     23  C   UNL d   1     -39.933  15.537  18.338  0.00  0.00     0.131 A 
ENDBRANCH  11  13
ENDBRANCH   2  10
BRANCH   1  24
ATOM     24  C   UNL d   1     -39.531  14.944  21.289  0.00  0.00     0.308 C 
ATOM     25  O   UNL d   1     -39.453  15.743  21.150  0.00  0.00    -0.258 OA
BRANCH  24  26
ATOM     26  O   UNL d   1     -38.929  14.490  21.539  0.00  0.00    -0.271 OA
BRANCH  26  27
ATOM     27  C   UNL d   1     -38.213  14.782  21.988  0.00  0.00     0.126 C 
ATOM     28  C   UNL d   1     -37.940  14.378  22.625  0.00  0.00     0.029 C 
ENDBRANCH  26  27
ENDBRANCH  24  26
ENDBRANCH   1  24
TORSDOF 5
ENDMDL
MODEL 5
REMARK VINA RESULT:      -1.8      7.282      9.512
REMARK  5 active torsions:
REMARK  status: ('A' for Active; 'I' for Inactive)
REMARK    1  A    between atoms: C_12  and  C_1 
REMARK    2  A    between atoms: N_7  and  C_2 
REMARK    3  A    between atoms: C_3  and  C_6 
REMARK       I    between atoms: C_6  and  N_7 
REMARK    4  A    between atoms: O_18  and  C_12 
REMARK    5  A    between atoms: C_23  and  O_18 
ROOT
ATOM      1  C   UNL d   1     -45.510  12.523  22.612  0.00  0.00     0.111 A 
ATOM      2  C   UNL d   1     -46.000  12.007  22.962  0.00  0.00     0.096 A 
ATOM      3  S   UNL d   1     -44.744  12.167  22.598  0.00  0.00    -0.080 SA
ATOM      4  C   UNL d   1     -45.594  11.329  23.178  0.00  0.00     0.024 A 
ATOM      5  C   UNL d   1     -44.809  11.431  22.950  0.00  0.00     0.031 A 
ATOM      6  C   UNL d   1     -45.836  10.632  23.554  0.00  0.00     0.002 A 
ATOM      7  C   UNL d   1     -44.252  10.841  23.092  0.00  0.00     0.006 A 
ATOM      8  C   UNL d   1     -45.278  10.037  23.698  0.00  0.00     0.000 A 
ATOM      9  C   UNL d   1     -44.493  10.139  23.470  0.00  0.00     0.001 A 
ENDROOT
BRANCH   2  10
ATOM     10  N   UNL d   1     -46.819  12.165  23.079  0.00  0.00    -0.207 NA
ATOM     11  C   UNL d   1     -47.382  11.720  22.670  0.00  0.00     0.284 C 
ATOM     12  O   UNL d   1     -47.087  11.101  22.131  0.00  0.00    -0.265 OA
BRANCH  11  13
ATOM     13  C   UNL d   1     -48.166  11.910  22.816  0.00  0.00     0.121 A 
ATOM     14  C   UNL d   1     -48.650  12.078  22.172  0.00  0.00     0.204 A 
ATOM     15  C   UNL d   1     -49.451  12.276  22.279  0.00  0.00     0.062 A 
ATOM     16  O   UNL d   1     -48.323  12.048  21.388  0.00  0.00    -0.286 OA
ATOM     17  C   UNL d   1     -49.920  12.440  21.629  0.00  0.00     0.005 A 
ATOM     18  C   UNL d   1     -49.763  12.303  23.048  0.00  0.00     0.103 A 
ATOM     19  C   UNL d   1     -50.714  12.634  21.755  0.00  0.00     0.000 A 
ATOM     20  C   UNL d   1     -51.037  12.665  22.509  0.00  0.00     0.002 A 
ATOM     21  C   UNL d   1     -50.564  12.501  23.145  0.00  0.00     0.025 A 
ATOM     22  O   UNL d   1     -49.287  12.137  23.697  0.00  0.00    -0.305 OA
ATOM     23  C   UNL d   1     -48.487  11.940  23.587  0.00  0.00     0.131 A 
ENDBRANCH  11  13
ENDBRANCH   2  10
BRANCH   1  24
ATOM     24  C   UNL d   1     -45.732  13.267  22.322  0.00  0.00     0.308 C 
ATOM     25  O   UNL d   1     -45.803  13.405  21.522  0.00  0.00    -0.258 OA
BRANCH  24  26
ATOM     26  O   UNL d   1     -45.867  13.826  22.870  0.00  0.00    -0.271 OA
BRANCH  26  27
ATOM     27  C   UNL d   1     -46.210  14.636  22.707  0.00  0.00     0.126 C 
ATOM     28  C   UNL d   1     -45.727  15.264  22.580  0.00  0.00     0.029 C 
ENDBRANCH  26  27
ENDBRANCH  24  26
ENDBRANCH   1  24
TORSDOF 5
ENDMDL
