MODEL 1
REMARK VINA RESULT:      12.9      0.000      0.000
REMARK  2 active torsions:
REMARK  status: ('A' for Active; 'I' for Inactive)
REMARK    1  A    between atoms: C_5  and  N_2 
REMARK    2  A    between atoms: C_4  and  C_5 
ROOT
ATOM      1  C   UNL d   1      56.648  49.536  49.681  0.00  0.00     0.206 A 
ATOM      2  N   UNL d   1      57.368  49.629  50.080  0.00  0.00    -0.279 N 
ATOM      3  N   UNL d   1      56.041  49.513  50.254  0.00  0.00    -0.215 NA
ATOM      4  C   UNL d   1      56.394  49.592  50.993  0.00  0.00     0.120 A 
ATOM      5  C   UNL d   1      57.211  49.663  50.889  0.00  0.00     0.103 A 
ATOM      6  S   UNL d   1      56.547  49.476  48.862  0.00  0.00    -0.038 SA
ENDROOT
BRANCH   2   7
ATOM      7  C   UNL d   1      58.120  49.679  49.727  0.00  0.00     0.089 C 
BRANCH   7   8
ATOM      8  C   UNL d   1      58.792  49.686  50.195  0.00  0.00     0.047 A 
ATOM      9  S   UNL d   1      58.808  49.703  51.016  0.00  0.00    -0.085 SA
ATOM     10  C   UNL d   1      59.596  49.706  51.261  0.00  0.00     0.035 A 
ATOM     11  C   UNL d   1      60.068  49.689  50.579  0.00  0.00     0.007 A 
ATOM     12  C   UNL d   1      59.570  49.678  49.924  0.00  0.00     0.009 A 
ENDBRANCH   7   8
ENDBRANCH   2   7
TORSDOF 2
ENDMDL
MODEL 2
REMARK VINA RESULT:      14.4      0.990      1.380
REMARK  2 active torsions:
REMARK  status: ('A' for Active; 'I' for Inactive)
REMARK    1  A    between atoms: C_5  and  N_2 
REMARK    2  A    between atoms: C_4  and  C_5 
ROOT
ATOM      1  C   UNL d   1      57.094  49.542  50.504  0.00  0.00     0.206 A 
ATOM      2  N   UNL d   1      57.915  49.636  50.429  0.00  0.00    -0.279 N 
ATOM      3  N   UNL d   1      56.766  49.554  49.737  0.00  0.00    -0.215 NA
ATOM      4  C   UNL d   1      57.385  49.655  49.203  0.00  0.00     0.120 A 
ATOM      5  C   UNL d   1      58.093  49.706  49.627  0.00  0.00     0.103 A 
ATOM      6  S   UNL d   1      56.676  49.453  51.212  0.00  0.00    -0.038 SA
ENDROOT
BRANCH   2   7
ATOM      7  C   UNL d   1      58.463  49.657  51.054  0.00  0.00     0.089 C 
BRANCH   7   8
ATOM      8  C   UNL d   1      59.266  49.672  50.893  0.00  0.00     0.047 A 
ATOM      9  S   UNL d   1      59.608  49.680  50.147  0.00  0.00    -0.085 SA
ATOM     10  C   UNL d   1      60.429  49.695  50.236  0.00  0.00     0.035 A 
ATOM     11  C   UNL d   1      60.589  49.696  51.050  0.00  0.00     0.007 A 
ATOM     12  C   UNL d   1      59.872  49.682  51.452  0.00  0.00     0.009 A 
ENDBRANCH   7   8
ENDBRANCH   2   7
TORSDOF 2
ENDMDL
MODEL 3
REMARK VINA RESULT:      15.2      1.585      3.192
REMARK  2 active torsions:
REMARK  status: ('A' for Active; 'I' for Inactive)
REMARK    1  A    between atoms: C_5  and  N_2 
REMARK    2  A    between atoms: C_4  and  C_5 
ROOT
ATOM      1  C   UNL d   1      60.253  49.682  51.558  0.00  0.00     0.206 A 
ATOM      2  N   UNL d   1      59.537  49.693  51.140  0.00  0.00    -0.279 N 
ATOM      3  N   UNL d   1      60.874  49.668  51.000  0.00  0.00    -0.215 NA
ATOM      4  C   UNL d   1      60.534  49.671  50.250  0.00  0.00     0.120 A 
ATOM      5  C   UNL d   1      59.711  49.686  50.333  0.00  0.00     0.103 A 
ATOM      6  S   UNL d   1      60.337  49.684  52.381  0.00  0.00    -0.038 SA
ENDROOT
BRANCH   2   7
ATOM      7  C   UNL d   1      58.776  49.708  51.474  0.00  0.00     0.089 C 
BRANCH   7   8
ATOM      8  C   UNL d   1      58.116  49.645  50.993  0.00  0.00     0.047 A 
ATOM      9  S   UNL d   1      57.334  49.680  51.239  0.00  0.00    -0.085 SA
ATOM     10  C   UNL d   1      56.848  49.592  50.578  0.00  0.00     0.035 A 
ATOM     11  C   UNL d   1      57.341  49.503  49.917  0.00  0.00     0.007 A 
ATOM     12  C   UNL d   1      58.122  49.536  50.175  0.00  0.00     0.009 A 
ENDBRANCH   7   8
ENDBRANCH   2   7
TORSDOF 2
ENDMDL
