MODEL 1
REMARK VINA RESULT:      -3.1      0.000      0.000
REMARK  4 active torsions:
REMARK  status: ('A' for Active; 'I' for Inactive)
REMARK    1  A    between atoms: C_2  and  S_1 
REMARK    2  A    between atoms: N_3  and  S_1 
REMARK    3  A    between atoms: C_16  and  C_7 
REMARK    4  A    between atoms: O_17  and  C_8 
ROOT
ATOM      1  C   UNL d   1      58.121  -0.631  30.180  0.00  0.00     0.126 A 
ATOM      2  C   UNL d   1      57.828  -0.694  30.946  0.00  0.00     0.015 A 
ATOM      3  C   UNL d   1      57.389  -0.079  31.261  0.00  0.00     0.001 A 
ATOM      4  C   UNL d   1      57.981   0.037  29.729  0.00  0.00     0.106 A 
ATOM      5  C   UNL d   1      57.242   0.599  30.815  0.00  0.00     0.002 A 
ATOM      6  C   UNL d   1      57.539   0.655  30.046  0.00  0.00     0.025 A 
ENDROOT
BRANCH   1   7
ATOM      7  S   UNL d   1      58.565  -1.250  29.858  0.00  0.00     0.273 S 
ATOM      8  O   UNL d   1      59.250  -0.791  29.918  0.00  0.00    -0.200 OA
ATOM      9  O   UNL d   1      57.880  -1.710  29.797  0.00  0.00    -0.200 OA
BRANCH   7  10
ATOM     10  N   UNL d   1      59.008  -1.869  29.536  0.00  0.00    -0.226 N 
ATOM     11  C   UNL d   1      59.832  -1.829  29.531  0.00  0.00     0.111 A 
ATOM     12  C   UNL d   1      60.275  -2.440  29.213  0.00  0.00     0.100 A 
ATOM     13  N   UNL d   1      59.899  -3.105  28.893  0.00  0.00    -0.299 N 
ATOM     14  C   UNL d   1      59.071  -3.148  28.896  0.00  0.00     0.100 A 
ATOM     15  C   UNL d   1      60.350  -3.720  28.572  0.00  0.00     0.100 C 
ATOM     16  C   UNL d   1      58.628  -2.529  29.218  0.00  0.00     0.111 A 
ENDBRANCH   7  10
ENDBRANCH   1   7
BRANCH   4  17
ATOM     17  O   UNL d   1      58.283   0.087  28.956  0.00  0.00    -0.327 OA
ATOM     18  C   UNL d   1      58.013   0.682  28.455  0.00  0.00     0.181 C 
ENDBRANCH   4  17
BRANCH   3  19
ATOM     19  C   UNL d   1      57.094  -0.139  32.029  0.00  0.00     0.000 C 
ATOM     20  C   UNL d   1      57.411   0.318  32.633  0.00  0.00     0.000 C 
ATOM     21  C   UNL d   1      56.474  -0.664  32.186  0.00  0.00     0.000 C 
ENDBRANCH   3  19
TORSDOF 4
ENDMDL
MODEL 2
REMARK VINA RESULT:      -3.0      1.368      3.692
REMARK  4 active torsions:
REMARK  status: ('A' for Active; 'I' for Inactive)
REMARK    1  A    between atoms: C_2  and  S_1 
REMARK    2  A    between atoms: N_3  and  S_1 
REMARK    3  A    between atoms: C_16  and  C_7 
REMARK    4  A    between atoms: O_17  and  C_8 
ROOT
ATOM      1  C   UNL d   1      58.442  -0.826  29.852  0.00  0.00     0.126 A 
ATOM      2  C   UNL d   1      58.876  -1.525  29.865  0.00  0.00     0.015 A 
ATOM      3  C   UNL d   1      59.259  -1.774  29.186  0.00  0.00     0.001 A 
ATOM      4  C   UNL d   1      58.388  -0.377  29.170  0.00  0.00     0.106 A 
ATOM      5  C   UNL d   1      59.211  -1.329  28.493  0.00  0.00     0.002 A 
ATOM      6  C   UNL d   1      58.773  -0.627  28.488  0.00  0.00     0.025 A 
ENDROOT
BRANCH   1   7
ATOM      7  S   UNL d   1      58.053  -0.571  30.536  0.00  0.00     0.273 S 
ATOM      8  O   UNL d   1      58.696  -0.084  30.720  0.00  0.00    -0.200 OA
ATOM      9  O   UNL d   1      57.411  -1.058  30.353  0.00  0.00    -0.200 OA
BRANCH   7  10
ATOM     10  N   UNL d   1      57.665  -0.316  31.220  0.00  0.00    -0.226 N 
ATOM     11  C   UNL d   1      57.002  -0.723  31.495  0.00  0.00     0.111 A 
ATOM     12  C   UNL d   1      56.615  -0.474  32.172  0.00  0.00     0.100 A 
ATOM     13  N   UNL d   1      56.886   0.190  32.587  0.00  0.00    -0.299 N 
ATOM     14  C   UNL d   1      57.551   0.600  32.313  0.00  0.00     0.100 A 
ATOM     15  C   UNL d   1      56.492   0.438  33.271  0.00  0.00     0.100 C 
ATOM     16  C   UNL d   1      57.940   0.345  31.629  0.00  0.00     0.111 A 
ENDBRANCH   7  10
ENDBRANCH   1   7
BRANCH   4  17
ATOM     17  O   UNL d   1      57.946   0.327  29.172  0.00  0.00    -0.327 OA
ATOM     18  C   UNL d   1      57.750   0.682  28.455  0.00  0.00     0.181 C 
ENDBRANCH   4  17
BRANCH   3  19
ATOM     19  C   UNL d   1      59.695  -2.474  29.195  0.00  0.00     0.000 C 
ATOM     20  C   UNL d   1      60.515  -2.452  29.211  0.00  0.00     0.000 C 
ATOM     21  C   UNL d   1      59.298  -3.200  29.188  0.00  0.00     0.000 C 
ENDBRANCH   3  19
TORSDOF 4
ENDMDL
MODEL 3
REMARK VINA RESULT:      -2.3      1.860      2.966
REMARK  4 active torsions:
REMARK  status: ('A' for Active; 'I' for Inactive)
REMARK    1  A    between atoms: C_2  and  S_1 
REMARK    2  A    between atoms: N_3  and  S_1 
REMARK    3  A    between atoms: C_16  and  C_7 
REMARK    4  A    between atoms: O_17  and  C_8 
ROOT
ATOM      1  C   UNL d   1      57.234   0.075  32.230  0.00  0.00     0.126 A 
ATOM      2  C   UNL d   1      56.471  -0.205  32.358  0.00  0.00     0.015 A 
ATOM      3  C   UNL d   1      56.144  -0.155  33.106  0.00  0.00     0.001 A 
ATOM      4  C   UNL d   1      57.670   0.403  32.840  0.00  0.00     0.106 A 
ATOM      5  C   UNL d   1      56.574   0.173  33.728  0.00  0.00     0.002 A 
ATOM      6  C   UNL d   1      57.340   0.453  33.593  0.00  0.00     0.025 A 
ENDROOT
BRANCH   1   7
ATOM      7  S   UNL d   1      57.568   0.027  31.475  0.00  0.00     0.273 S 
ATOM      8  O   UNL d   1      58.035  -0.610  31.723  0.00  0.00    -0.200 OA
ATOM      9  O   UNL d   1      57.102   0.663  31.227  0.00  0.00    -0.200 OA
BRANCH   7  10
ATOM     10  N   UNL d   1      57.903  -0.022  30.720  0.00  0.00    -0.226 N 
ATOM     11  C   UNL d   1      57.989   0.658  30.262  0.00  0.00     0.111 A 
ATOM     12  C   UNL d   1      58.320   0.614  29.514  0.00  0.00     0.100 A 
ATOM     13  N   UNL d   1      58.571  -0.115  29.211  0.00  0.00    -0.299 N 
ATOM     14  C   UNL d   1      58.485  -0.800  29.670  0.00  0.00     0.100 A 
ATOM     15  C   UNL d   1      58.904  -0.155  28.455  0.00  0.00     0.100 C 
ATOM     16  C   UNL d   1      58.150  -0.751  30.425  0.00  0.00     0.111 A 
ENDBRANCH   7  10
ENDBRANCH   1   7
BRANCH   4  17
ATOM     17  O   UNL d   1      58.440   0.682  32.697  0.00  0.00    -0.327 OA
ATOM     18  C   UNL d   1      58.990   0.681  33.309  0.00  0.00     0.181 C 
ENDBRANCH   4  17
BRANCH   3  19
ATOM     19  C   UNL d   1      55.379  -0.435  33.238  0.00  0.00     0.000 C 
ATOM     20  C   UNL d   1      54.760   0.090  33.359  0.00  0.00     0.000 C 
ATOM     21  C   UNL d   1      55.241  -1.250  33.247  0.00  0.00     0.000 C 
ENDBRANCH   3  19
TORSDOF 4
ENDMDL
MODEL 4
REMARK VINA RESULT:      -0.9      2.101      3.457
REMARK  4 active torsions:
REMARK  status: ('A' for Active; 'I' for Inactive)
REMARK    1  A    between atoms: C_2  and  S_1 
REMARK    2  A    between atoms: N_3  and  S_1 
REMARK    3  A    between atoms: C_16  and  C_7 
REMARK    4  A    between atoms: O_17  and  C_8 
ROOT
ATOM      1  C   UNL d   1      56.817   0.183  32.747  0.00  0.00     0.126 A 
ATOM      2  C   UNL d   1      56.011   0.070  32.872  0.00  0.00     0.015 A 
ATOM      3  C   UNL d   1      55.697   0.197  33.616  0.00  0.00     0.001 A 
ATOM      4  C   UNL d   1      57.308   0.420  33.357  0.00  0.00     0.106 A 
ATOM      5  C   UNL d   1      56.184   0.437  34.238  0.00  0.00     0.002 A 
ATOM      6  C   UNL d   1      56.992   0.548  34.106  0.00  0.00     0.025 A 
ENDROOT
BRANCH   1   7
ATOM      7  S   UNL d   1      57.138   0.055  31.996  0.00  0.00     0.273 S 
ATOM      8  O   UNL d   1      56.652   0.649  31.687  0.00  0.00    -0.200 OA
ATOM      9  O   UNL d   1      57.624  -0.539  32.304  0.00  0.00    -0.200 OA
BRANCH   7  10
ATOM     10  N   UNL d   1      57.459  -0.072  31.244  0.00  0.00    -0.226 N 
ATOM     11  C   UNL d   1      57.677  -0.833  31.012  0.00  0.00     0.111 A 
ATOM     12  C   UNL d   1      57.996  -0.963  30.269  0.00  0.00     0.100 A 
ATOM     13  N   UNL d   1      58.101  -0.331  29.743  0.00  0.00    -0.299 N 
ATOM     14  C   UNL d   1      57.882   0.434  29.974  0.00  0.00     0.100 A 
ATOM     15  C   UNL d   1      58.423  -0.467  28.993  0.00  0.00     0.100 C 
ATOM     16  C   UNL d   1      57.561   0.561  30.726  0.00  0.00     0.111 A 
ENDBRANCH   7  10
ENDBRANCH   1   7
BRANCH   4  17
ATOM     17  O   UNL d   1      58.120   0.529  33.216  0.00  0.00    -0.327 OA
ATOM     18  C   UNL d   1      58.625   0.666  33.853  0.00  0.00     0.181 C 
ENDBRANCH   4  17
BRANCH   3  19
ATOM     19  C   UNL d   1      54.890   0.086  33.745  0.00  0.00     0.000 C 
ATOM     20  C   UNL d   1      54.448  -0.376  33.231  0.00  0.00     0.000 C 
ATOM     21  C   UNL d   1      54.530   0.444  34.398  0.00  0.00     0.000 C 
ENDBRANCH   3  19
TORSDOF 4
ENDMDL
