MODEL 1
REMARK VINA RESULT:      72.9      0.000      0.000
REMARK  6 active torsions:
REMARK  status: ('A' for Active; 'I' for Inactive)
REMARK    1  A    between atoms: C_18  and  N_1 
REMARK    2  A    between atoms: S_7  and  C_2 
REMARK    3  A    between atoms: C_20  and  S_7 
REMARK    4  A    between atoms: C_10  and  C_20 
REMARK       I    between atoms: N_13  and  C_10 
REMARK    5  A    between atoms: C_16  and  N_13 
REMARK    6  A    between atoms: C_21  and  C_18 
ROOT
ATOM      1  N   UNL d   1     -50.645  24.656  33.658  0.00  0.00    -0.253 N 
ATOM      2  C   UNL d   1     -51.112  25.379  33.821  0.00  0.00     0.182 A 
ATOM      3  C   UNL d   1     -51.024  23.967  33.498  0.00  0.00     0.268 A 
ATOM      4  N   UNL d   1     -51.901  25.331  33.806  0.00  0.00    -0.222 NA
ATOM      5  C   UNL d   1     -51.834  23.937  33.486  0.00  0.00     0.074 A 
ATOM      6  C   UNL d   1     -52.287  24.629  33.642  0.00  0.00     0.088 A 
ATOM      7  O   UNL d   1     -50.536  23.277  33.342  0.00  0.00    -0.267 OA
ATOM      8  C   UNL d   1     -52.216  23.227  33.320  0.00  0.00     0.006 A 
ATOM      9  C   UNL d   1     -53.104  24.585  33.626  0.00  0.00     0.019 A 
ATOM     10  C   UNL d   1     -53.024  23.194  33.307  0.00  0.00     0.000 A 
ATOM     11  C   UNL d   1     -53.483  23.871  33.460  0.00  0.00     0.002 A 
ENDROOT
BRANCH   2  12
ATOM     12  S   UNL d   1     -50.731  26.104  33.991  0.00  0.00    -0.044 SA
BRANCH  12  13
ATOM     13  C   UNL d   1     -50.687  26.408  34.796  0.00  0.00     0.101 C 
BRANCH  13  14
ATOM     14  C   UNL d   1     -50.327  27.144  34.930  0.00  0.00     0.286 C 
ATOM     15  N   UNL d   1     -50.368  27.505  35.656  0.00  0.00    -0.207 NA
ATOM     16  O   UNL d   1     -49.920  27.513  34.314  0.00  0.00    -0.265 OA
BRANCH  15  17
ATOM     17  C   UNL d   1     -50.780  27.136  36.287  0.00  0.00     0.087 A 
ATOM     18  C   UNL d   1     -50.393  27.082  37.019  0.00  0.00     0.045 A 
ATOM     19  C   UNL d   1     -50.785  26.721  37.654  0.00  0.00     0.121 A 
ATOM     20  O   UNL d   1     -50.553  26.585  38.435  0.00  0.00    -0.299 OA
ATOM     21  C   UNL d   1     -51.538  26.426  37.550  0.00  0.00     0.119 A 
ATOM     22  C   UNL d   1     -51.192  26.199  38.799  0.00  0.00     0.304 A 
ATOM     23  O   UNL d   1     -51.791  26.094  38.286  0.00  0.00    -0.300 OA
ATOM     24  C   UNL d   1     -51.920  26.483  36.811  0.00  0.00     0.028 A 
ATOM     25  C   UNL d   1     -51.529  26.843  36.183  0.00  0.00     0.021 A 
ENDBRANCH  15  17
ENDBRANCH  13  14
ENDBRANCH  12  13
ENDBRANCH   2  12
BRANCH   1  26
ATOM     26  C   UNL d   1     -49.797  24.653  33.663  0.00  0.00     0.085 C 
BRANCH  26  27
ATOM     27  C   UNL d   1     -49.374  24.030  33.319  0.00  0.00     0.019 C 
ATOM     28  C   UNL d   1     -48.674  23.784  33.641  0.00  0.00     0.002 C 
ENDBRANCH  26  27
ENDBRANCH   1  26
TORSDOF 6
ENDMDL
MODEL 2
REMARK VINA RESULT:      73.9      1.829      3.264
REMARK  6 active torsions:
REMARK  status: ('A' for Active; 'I' for Inactive)
REMARK    1  A    between atoms: C_18  and  N_1 
REMARK    2  A    between atoms: S_7  and  C_2 
REMARK    3  A    between atoms: C_20  and  S_7 
REMARK    4  A    between atoms: C_10  and  C_20 
REMARK       I    between atoms: N_13  and  C_10 
REMARK    5  A    between atoms: C_16  and  N_13 
REMARK    6  A    between atoms: C_21  and  C_18 
ROOT
ATOM      1  N   UNL d   1     -50.841  25.005  33.332  0.00  0.00    -0.253 N 
ATOM      2  C   UNL d   1     -51.712  25.098  33.343  0.00  0.00     0.182 A 
ATOM      3  C   UNL d   1     -50.373  25.657  33.321  0.00  0.00     0.268 A 
ATOM      4  N   UNL d   1     -52.015  25.828  33.341  0.00  0.00    -0.222 NA
ATOM      5  C   UNL d   1     -50.702  26.398  33.320  0.00  0.00     0.074 A 
ATOM      6  C   UNL d   1     -51.539  26.492  33.330  0.00  0.00     0.088 A 
ATOM      7  O   UNL d   1     -49.523  25.531  33.311  0.00  0.00    -0.267 OA
ATOM      8  C   UNL d   1     -50.216  27.062  33.308  0.00  0.00     0.006 A 
ATOM      9  C   UNL d   1     -51.857  27.246  33.328  0.00  0.00     0.019 A 
ATOM     10  C   UNL d   1     -50.541  27.803  33.307  0.00  0.00     0.000 A 
ATOM     11  C   UNL d   1     -51.366  27.910  33.317  0.00  0.00     0.002 A 
ENDROOT
BRANCH   2  12
ATOM     12  S   UNL d   1     -52.212  24.427  33.354  0.00  0.00    -0.044 SA
BRANCH  12  13
ATOM     13  C   UNL d   1     -52.654  24.212  34.062  0.00  0.00     0.101 C 
BRANCH  13  14
ATOM     14  C   UNL d   1     -53.173  23.565  34.033  0.00  0.00     0.286 C 
ATOM     15  N   UNL d   1     -53.547  23.297  34.701  0.00  0.00    -0.207 NA
ATOM     16  O   UNL d   1     -53.309  23.189  33.311  0.00  0.00    -0.265 OA
BRANCH  15  17
ATOM     17  C   UNL d   1     -53.413  23.674  35.439  0.00  0.00     0.087 A 
ATOM     18  C   UNL d   1     -53.195  24.474  35.429  0.00  0.00     0.045 A 
ATOM     19  C   UNL d   1     -53.059  24.863  36.148  0.00  0.00     0.121 A 
ATOM     20  O   UNL d   1     -52.839  25.640  36.317  0.00  0.00    -0.299 OA
ATOM     21  C   UNL d   1     -53.141  24.455  36.849  0.00  0.00     0.119 A 
ATOM     22  C   UNL d   1     -52.792  25.689  37.145  0.00  0.00     0.304 A 
ATOM     23  O   UNL d   1     -52.969  24.990  37.483  0.00  0.00    -0.300 OA
ATOM     24  C   UNL d   1     -53.361  23.650  36.852  0.00  0.00     0.028 A 
ATOM     25  C   UNL d   1     -53.495  23.269  36.137  0.00  0.00     0.021 A 
ENDBRANCH  15  17
ENDBRANCH  13  14
ENDBRANCH  12  13
ENDBRANCH   2  12
BRANCH   1  26
ATOM     26  C   UNL d   1     -50.465  24.245  33.333  0.00  0.00     0.085 C 
BRANCH  26  27
ATOM     27  C   UNL d   1     -49.826  24.089  33.835  0.00  0.00     0.019 C 
ATOM     28  C   UNL d   1     -49.861  23.480  34.366  0.00  0.00     0.002 C 
ENDBRANCH  26  27
ENDBRANCH   1  26
TORSDOF 6
ENDMDL
