MODEL 1
REMARK VINA RESULT:      18.6      0.000      0.000
REMARK  2 active torsions:
REMARK  status: ('A' for Active; 'I' for Inactive)
REMARK    1  A    between atoms: C_6  and  C_1 
REMARK    2  A    between atoms: O_16  and  C_13 
ROOT
ATOM      1  C   UNL d   1      58.475  49.705  49.991  0.00  0.00     0.148 A 
ATOM      2  N   UNL d   1      57.722  49.704  50.294  0.00  0.00    -0.289 N 
ATOM      3  N   UNL d   1      58.425  49.707  49.174  0.00  0.00    -0.225 NA
ATOM      4  C   UNL d   1      57.172  49.704  49.670  0.00  0.00     0.085 A 
ATOM      5  C   UNL d   1      57.625  49.706  48.967  0.00  0.00     0.118 A 
ATOM      6  C   UNL d   1      57.422  49.702  51.109  0.00  0.00     0.082 A 
ATOM      7  C   UNL d   1      56.371  49.702  49.809  0.00  0.00     0.019 A 
ATOM      8  C   UNL d   1      56.621  49.700  51.248  0.00  0.00     0.019 A 
ATOM      9  C   UNL d   1      56.064  49.700  50.583  0.00  0.00     0.003 A 
ENDROOT
BRANCH   1  10
ATOM     10  C   UNL d   1      59.140  49.706  50.503  0.00  0.00     0.035 A 
ATOM     11  C   UNL d   1      59.039  49.707  51.328  0.00  0.00     0.005 A 
ATOM     12  C   UNL d   1      59.692  49.708  51.823  0.00  0.00     0.024 A 
ATOM     13  C   UNL d   1      60.453  49.706  51.507  0.00  0.00     0.094 A 
ATOM     14  C   UNL d   1      60.556  49.704  50.702  0.00  0.00     0.024 A 
ATOM     15  C   UNL d   1      59.896  49.704  50.187  0.00  0.00     0.005 A 
BRANCH  13  16
ATOM     16  O   UNL d   1      61.145  49.706  51.998  0.00  0.00    -0.328 OA
ATOM     17  C   UNL d   1      61.080  49.619  52.816  0.00  0.00     0.181 C 
ENDBRANCH  13  16
ENDBRANCH   1  10
TORSDOF 2
ENDMDL
MODEL 2
REMARK VINA RESULT:      20.2      1.563      3.569
REMARK  2 active torsions:
REMARK  status: ('A' for Active; 'I' for Inactive)
REMARK    1  A    between atoms: C_6  and  C_1 
REMARK    2  A    between atoms: O_16  and  C_13 
ROOT
ATOM      1  C   UNL d   1      59.894  49.699  50.471  0.00  0.00     0.148 A 
ATOM      2  N   UNL d   1      60.264  49.701  51.193  0.00  0.00    -0.289 N 
ATOM      3  N   UNL d   1      60.467  49.695  49.887  0.00  0.00    -0.225 NA
ATOM      4  C   UNL d   1      61.088  49.698  51.082  0.00  0.00     0.085 A 
ATOM      5  C   UNL d   1      61.207  49.695  50.254  0.00  0.00     0.118 A 
ATOM      6  C   UNL d   1      59.957  49.705  52.005  0.00  0.00     0.082 A 
ATOM      7  C   UNL d   1      61.602  49.699  51.712  0.00  0.00     0.019 A 
ATOM      8  C   UNL d   1      60.471  49.706  52.635  0.00  0.00     0.019 A 
ATOM      9  C   UNL d   1      61.328  49.703  52.497  0.00  0.00     0.003 A 
ENDROOT
BRANCH   1  10
ATOM     10  C   UNL d   1      59.056  49.701  50.422  0.00  0.00     0.035 A 
ATOM     11  C   UNL d   1      58.592  49.702  51.111  0.00  0.00     0.005 A 
ATOM     12  C   UNL d   1      57.774  49.704  51.057  0.00  0.00     0.024 A 
ATOM     13  C   UNL d   1      57.406  49.704  50.320  0.00  0.00     0.094 A 
ATOM     14  C   UNL d   1      57.856  49.704  49.645  0.00  0.00     0.024 A 
ATOM     15  C   UNL d   1      58.692  49.702  49.688  0.00  0.00     0.005 A 
BRANCH  13  16
ATOM     16  O   UNL d   1      56.561  49.706  50.238  0.00  0.00    -0.328 OA
ATOM     17  C   UNL d   1      56.211  49.675  49.492  0.00  0.00     0.181 C 
ENDBRANCH  13  16
ENDBRANCH   1  10
TORSDOF 2
ENDMDL
