MODEL 1
REMARK VINA RESULT:      -8.2      0.000      0.000
REMARK  6 active torsions:
REMARK  status: ('A' for Active; 'I' for Inactive)
REMARK    1  A    between atoms: C_2  and  S_1 
REMARK    2  A    between atoms: N_3  and  S_1 
REMARK    3  A    between atoms: C_10  and  N_3 
REMARK    4  A    between atoms: C_16  and  C_11 
REMARK    5  A    between atoms: C_17  and  C_16 
REMARK    6  A    between atoms: C_18  and  C_17 
ROOT
ATOM      1  C   UNL d   1      53.076  32.094  52.938  0.00  0.00     0.094 A 
ATOM      2  C   UNL d   1      53.146  30.523  53.382  0.00  0.00     0.000 A 
ATOM      3  C   UNL d   1      52.399  31.623  52.892  0.00  0.00     0.020 A 
ATOM      4  C   UNL d   1      53.781  31.772  53.206  0.00  0.00     0.020 A 
ATOM      5  C   UNL d   1      53.815  31.002  53.424  0.00  0.00     0.002 A 
ATOM      6  C   UNL d   1      52.433  30.853  53.110  0.00  0.00     0.002 A 
ENDROOT
BRANCH   1   7
ATOM      7  N   UNL d   1      53.039  32.924  52.703  0.00  0.00    -0.158 NA
BRANCH   7   8
ATOM      8  S   UNL d   1      53.037  33.509  53.281  0.00  0.00     0.291 S 
ATOM      9  O   UNL d   1      53.884  33.522  53.205  0.00  0.00    -0.198 OA
ATOM     10  O   UNL d   1      52.191  33.452  53.313  0.00  0.00    -0.198 OA
BRANCH   8  11
ATOM     11  C   UNL d   1      53.046  34.093  53.857  0.00  0.00     0.135 A 
ATOM     12  S   UNL d   1      53.315  34.121  54.629  0.00  0.00    -0.073 SA
ATOM     13  C   UNL d   1      53.170  34.874  54.937  0.00  0.00     0.036 A 
ATOM     14  C   UNL d   1      52.821  35.304  54.375  0.00  0.00     0.008 A 
ATOM     15  C   UNL d   1      52.735  34.840  53.697  0.00  0.00     0.020 A 
ENDBRANCH   8  11
ENDBRANCH   7   8
ENDBRANCH   1   7
BRANCH   2  16
ATOM     16  C   UNL d   1      53.182  29.692  53.617  0.00  0.00     0.000 C 
BRANCH  16  17
ATOM     17  C   UNL d   1      53.287  29.493  54.412  0.00  0.00     0.000 C 
BRANCH  17  18
ATOM     18  C   UNL d   1      53.349  28.701  54.633  0.00  0.00     0.000 C 
ATOM     19  C   UNL d   1      53.419  28.497  55.424  0.00  0.00     0.000 C 
ENDBRANCH  17  18
ENDBRANCH  16  17
ENDBRANCH   2  16
TORSDOF 6
ENDMDL
MODEL 2
REMARK VINA RESULT:      -8.2      2.451      3.986
REMARK  6 active torsions:
REMARK  status: ('A' for Active; 'I' for Inactive)
REMARK    1  A    between atoms: C_2  and  S_1 
REMARK    2  A    between atoms: N_3  and  S_1 
REMARK    3  A    between atoms: C_10  and  N_3 
REMARK    4  A    between atoms: C_16  and  C_11 
REMARK    5  A    between atoms: C_17  and  C_16 
REMARK    6  A    between atoms: C_18  and  C_17 
ROOT
ATOM      1  C   UNL d   1      52.319  33.194  52.969  0.00  0.00     0.094 A 
ATOM      2  C   UNL d   1      50.907  33.996  52.792  0.00  0.00     0.000 A 
ATOM      3  C   UNL d   1      51.627  32.887  53.299  0.00  0.00     0.020 A 
ATOM      4  C   UNL d   1      52.296  33.901  52.553  0.00  0.00     0.020 A 
ATOM      5  C   UNL d   1      51.604  34.294  52.467  0.00  0.00     0.002 A 
ATOM      6  C   UNL d   1      50.935  33.280  53.212  0.00  0.00     0.002 A 
ENDROOT
BRANCH   1   7
ATOM      7  N   UNL d   1      53.066  32.770  53.063  0.00  0.00    -0.158 NA
BRANCH   7   8
ATOM      8  S   UNL d   1      53.548  32.936  53.709  0.00  0.00     0.291 S 
ATOM      9  O   UNL d   1      53.198  32.257  54.083  0.00  0.00    -0.198 OA
ATOM     10  O   UNL d   1      53.860  33.602  53.284  0.00  0.00    -0.198 OA
BRANCH   8  11
ATOM     11  C   UNL d   1      54.024  33.092  54.358  0.00  0.00     0.135 A 
ATOM     12  S   UNL d   1      53.969  32.916  55.154  0.00  0.00    -0.073 SA
ATOM     13  C   UNL d   1      54.629  33.225  55.545  0.00  0.00     0.036 A 
ATOM     14  C   UNL d   1      55.082  33.585  55.009  0.00  0.00     0.008 A 
ATOM     15  C   UNL d   1      54.726  33.514  54.266  0.00  0.00     0.020 A 
ENDBRANCH   8  11
ENDBRANCH   7   8
ENDBRANCH   1   7
BRANCH   2  16
ATOM     16  C   UNL d   1      50.160  34.420  52.698  0.00  0.00     0.000 C 
BRANCH  16  17
ATOM     17  C   UNL d   1      49.762  34.399  51.975  0.00  0.00     0.000 C 
BRANCH  17  18
ATOM     18  C   UNL d   1      49.028  34.768  51.898  0.00  0.00     0.000 C 
ATOM     19  C   UNL d   1      48.627  34.745  51.183  0.00  0.00     0.000 C 
ENDBRANCH  17  18
ENDBRANCH  16  17
ENDBRANCH   2  16
TORSDOF 6
ENDMDL
MODEL 3
REMARK VINA RESULT:      -7.7      2.323      4.509
REMARK  6 active torsions:
REMARK  status: ('A' for Active; 'I' for Inactive)
REMARK    1  A    between atoms: C_2  and  S_1 
REMARK    2  A    between atoms: N_3  and  S_1 
REMARK    3  A    between atoms: C_10  and  N_3 
REMARK    4  A    between atoms: C_16  and  C_11 
REMARK    5  A    between atoms: C_17  and  C_16 
REMARK    6  A    between atoms: C_18  and  C_17 
ROOT
ATOM      1  C   UNL d   1      52.222  33.469  53.046  0.00  0.00     0.094 A 
ATOM      2  C   UNL d   1      50.784  34.188  52.751  0.00  0.00     0.000 A 
ATOM      3  C   UNL d   1      52.103  33.877  52.338  0.00  0.00     0.020 A 
ATOM      4  C   UNL d   1      51.618  33.426  53.600  0.00  0.00     0.020 A 
ATOM      5  C   UNL d   1      50.914  33.778  53.455  0.00  0.00     0.002 A 
ATOM      6  C   UNL d   1      51.398  34.229  52.193  0.00  0.00     0.002 A 
ENDROOT
BRANCH   1   7
ATOM      7  N   UNL d   1      52.982  33.089  53.202  0.00  0.00    -0.158 NA
BRANCH   7   8
ATOM      8  S   UNL d   1      53.026  32.268  53.230  0.00  0.00     0.291 S 
ATOM      9  O   UNL d   1      53.117  32.349  54.072  0.00  0.00    -0.198 OA
ATOM     10  O   UNL d   1      52.933  32.251  52.386  0.00  0.00    -0.198 OA
BRANCH   8  11
ATOM     11  C   UNL d   1      53.072  31.451  53.268  0.00  0.00     0.135 A 
ATOM     12  S   UNL d   1      52.664  30.844  52.901  0.00  0.00    -0.073 SA
ATOM     13  C   UNL d   1      52.962  30.120  53.166  0.00  0.00     0.036 A 
ATOM     14  C   UNL d   1      53.539  30.269  53.683  0.00  0.00     0.008 A 
ATOM     15  C   UNL d   1      53.624  31.088  53.762  0.00  0.00     0.020 A 
ENDBRANCH   8  11
ENDBRANCH   7   8
ENDBRANCH   1   7
BRANCH   2  16
ATOM     16  C   UNL d   1      50.024  34.567  52.595  0.00  0.00     0.000 C 
BRANCH  16  17
ATOM     17  C   UNL d   1      49.646  34.450  51.870  0.00  0.00     0.000 C 
BRANCH  17  18
ATOM     18  C   UNL d   1      48.893  34.764  51.743  0.00  0.00     0.000 C 
ATOM     19  C   UNL d   1      48.543  34.711  51.004  0.00  0.00     0.000 C 
ENDBRANCH  17  18
ENDBRANCH  16  17
ENDBRANCH   2  16
TORSDOF 6
ENDMDL
MODEL 4
REMARK VINA RESULT:      -6.9      1.750      4.314
REMARK  6 active torsions:
REMARK  status: ('A' for Active; 'I' for Inactive)
REMARK    1  A    between atoms: C_2  and  S_1 
REMARK    2  A    between atoms: N_3  and  S_1 
REMARK    3  A    between atoms: C_10  and  N_3 
REMARK    4  A    between atoms: C_16  and  C_11 
REMARK    5  A    between atoms: C_17  and  C_16 
REMARK    6  A    between atoms: C_18  and  C_17 
ROOT
ATOM      1  C   UNL d   1      52.838  31.653  52.876  0.00  0.00     0.094 A 
ATOM      2  C   UNL d   1      52.680  33.247  53.199  0.00  0.00     0.000 A 
ATOM      3  C   UNL d   1      53.511  32.120  52.986  0.00  0.00     0.020 A 
ATOM      4  C   UNL d   1      52.093  31.991  52.929  0.00  0.00     0.020 A 
ATOM      5  C   UNL d   1      52.015  32.772  53.088  0.00  0.00     0.002 A 
ATOM      6  C   UNL d   1      53.433  32.901  53.144  0.00  0.00     0.002 A 
ENDROOT
BRANCH   1   7
ATOM      7  N   UNL d   1      52.922  30.810  52.705  0.00  0.00    -0.158 NA
BRANCH   7   8
ATOM      8  S   UNL d   1      53.036  30.281  53.325  0.00  0.00     0.291 S 
ATOM      9  O   UNL d   1      52.197  30.143  53.298  0.00  0.00    -0.198 OA
ATOM     10  O   UNL d   1      53.866  30.459  53.303  0.00  0.00    -0.198 OA
BRANCH   8  11
ATOM     11  C   UNL d   1      53.138  29.751  53.942  0.00  0.00     0.135 A 
ATOM     12  S   UNL d   1      52.832  29.699  54.698  0.00  0.00    -0.073 SA
ATOM     13  C   UNL d   1      53.146  29.031  55.071  0.00  0.00     0.036 A 
ATOM     14  C   UNL d   1      53.634  28.676  54.562  0.00  0.00     0.008 A 
ATOM     15  C   UNL d   1      53.644  29.105  53.856  0.00  0.00     0.020 A 
ENDBRANCH   8  11
ENDBRANCH   7   8
ENDBRANCH   1   7
BRANCH   2  16
ATOM     16  C   UNL d   1      52.596  34.090  53.370  0.00  0.00     0.000 C 
BRANCH  16  17
ATOM     17  C   UNL d   1      52.947  34.410  54.046  0.00  0.00     0.000 C 
BRANCH  17  18
ATOM     18  C   UNL d   1      52.973  35.228  54.147  0.00  0.00     0.000 C 
ATOM     19  C   UNL d   1      52.971  35.551  54.901  0.00  0.00     0.000 C 
ENDBRANCH  17  18
ENDBRANCH  16  17
ENDBRANCH   2  16
TORSDOF 6
ENDMDL
