MODEL 1
REMARK VINA RESULT:      -7.6      0.000      0.000
REMARK  7 active torsions:
REMARK  status: ('A' for Active; 'I' for Inactive)
REMARK    1  A    between atoms: C_11  and  C_3 
REMARK    2  A    between atoms: C_10  and  C_4 
REMARK    3  A    between atoms: O_15  and  C_10 
REMARK    4  A    between atoms: N_14  and  C_11 
REMARK    5  A    between atoms: C_20  and  N_14 
REMARK    6  A    between atoms: C_22  and  O_15 
REMARK    7  A    between atoms: C_21  and  C_20 
ROOT
ATOM      1  C   UNL d   1     -47.904  13.142  23.049  0.00  0.00     0.035 A 
ATOM      2  C   UNL d   1     -48.660  13.447  22.923  0.00  0.00     0.100 A 
ATOM      3  C   UNL d   1     -47.813  12.359  23.289  0.00  0.00     0.060 A 
ATOM      4  C   UNL d   1     -47.337  13.731  22.899  0.00  0.00     0.088 A 
ATOM      5  O   UNL d   1     -48.554  14.249  22.687  0.00  0.00    -0.307 OA
ATOM      6  C   UNL d   1     -47.743  14.411  22.676  0.00  0.00     0.105 A 
ATOM      7  C   UNL d   1     -48.479  11.881  23.401  0.00  0.00     0.197 A 
ATOM      8  C   UNL d   1     -49.317  12.974  23.034  0.00  0.00     0.026 A 
ATOM      9  C   UNL d   1     -49.226  12.191  23.273  0.00  0.00     0.041 A 
ATOM     10  O   UNL d   1     -48.387  11.084  23.644  0.00  0.00    -0.286 OA
ATOM     11  C   UNL d   1     -47.376  15.162  22.468  0.00  0.00     0.027 C 
ATOM     12  C   UNL d   1     -50.082  13.278  22.907  0.00  0.00     0.002 A 
ATOM     13  C   UNL d   1     -49.901  11.711  23.386  0.00  0.00     0.003 A 
ATOM     14  C   UNL d   1     -50.643  12.022  23.258  0.00  0.00     0.000 A 
ATOM     15  C   UNL d   1     -50.734  12.805  23.019  0.00  0.00     0.000 A 
ENDROOT
BRANCH   3  16
ATOM     16  C   UNL d   1     -47.037  12.078  23.409  0.00  0.00     0.102 C 
BRANCH  16  17
ATOM     17  N   UNL d   1     -46.902  11.247  23.416  0.00  0.00    -0.239 NA
BRANCH  17  18
ATOM     18  C   UNL d   1     -46.170  10.955  23.696  0.00  0.00     0.144 C 
BRANCH  18  19
ATOM     19  C   UNL d   1     -45.893  10.235  23.417  0.00  0.00     0.255 C 
ATOM     20  O   UNL d   1     -45.169   9.932  23.669  0.00  0.00    -0.281 OA
ENDBRANCH  18  19
ENDBRANCH  17  18
ENDBRANCH  16  17
ENDBRANCH   3  16
BRANCH   4  21
ATOM     21  C   UNL d   1     -46.484  13.680  22.954  0.00  0.00     0.302 C 
ATOM     22  O   UNL d   1     -46.107  13.761  23.682  0.00  0.00    -0.259 OA
BRANCH  21  23
ATOM     23  O   UNL d   1     -46.058  13.551  22.274  0.00  0.00    -0.271 OA
BRANCH  23  24
ATOM     24  C   UNL d   1     -45.274  13.789  22.208  0.00  0.00     0.126 C 
ATOM     25  C   UNL d   1     -44.745  13.348  21.746  0.00  0.00     0.029 C 
ENDBRANCH  23  24
ENDBRANCH  21  23
ENDBRANCH   4  21
TORSDOF 7
ENDMDL
MODEL 2
REMARK VINA RESULT:      -6.2      1.314      4.064
REMARK  7 active torsions:
REMARK  status: ('A' for Active; 'I' for Inactive)
REMARK    1  A    between atoms: C_11  and  C_3 
REMARK    2  A    between atoms: C_10  and  C_4 
REMARK    3  A    between atoms: O_15  and  C_10 
REMARK    4  A    between atoms: N_14  and  C_11 
REMARK    5  A    between atoms: C_20  and  N_14 
REMARK    6  A    between atoms: C_22  and  O_15 
REMARK    7  A    between atoms: C_21  and  C_20 
ROOT
ATOM      1  C   UNL d   1     -48.125  12.236  23.253  0.00  0.00     0.035 A 
ATOM      2  C   UNL d   1     -47.761  11.531  23.477  0.00  0.00     0.100 A 
ATOM      3  C   UNL d   1     -47.665  12.880  23.025  0.00  0.00     0.060 A 
ATOM      4  C   UNL d   1     -48.950  12.152  23.305  0.00  0.00     0.088 A 
ATOM      5  O   UNL d   1     -48.382  10.997  23.673  0.00  0.00    -0.307 OA
ATOM      6  C   UNL d   1     -49.103  11.386  23.564  0.00  0.00     0.105 A 
ATOM      7  C   UNL d   1     -46.840  12.819  23.021  0.00  0.00     0.197 A 
ATOM      8  C   UNL d   1     -46.946  11.471  23.472  0.00  0.00     0.026 A 
ATOM      9  C   UNL d   1     -46.485  12.115  23.244  0.00  0.00     0.041 A 
ATOM     10  O   UNL d   1     -46.372  13.475  22.789  0.00  0.00    -0.286 OA
ATOM     11  C   UNL d   1     -49.887  11.055  23.698  0.00  0.00     0.027 C 
ATOM     12  C   UNL d   1     -46.573  10.761  23.697  0.00  0.00     0.002 A 
ATOM     13  C   UNL d   1     -45.653  12.050  23.242  0.00  0.00     0.003 A 
ATOM     14  C   UNL d   1     -45.302  11.348  23.464  0.00  0.00     0.000 A 
ATOM     15  C   UNL d   1     -45.763  10.704  23.692  0.00  0.00     0.000 A 
ENDROOT
BRANCH   3  16
ATOM     16  C   UNL d   1     -48.061  13.580  22.804  0.00  0.00     0.102 C 
BRANCH  16  17
ATOM     17  N   UNL d   1     -47.610  14.279  22.672  0.00  0.00    -0.239 NA
BRANCH  17  18
ATOM     18  C   UNL d   1     -47.988  15.023  22.718  0.00  0.00     0.144 C 
BRANCH  18  19
ATOM     19  C   UNL d   1     -47.929  15.542  22.085  0.00  0.00     0.255 C 
ATOM     20  O   UNL d   1     -48.603  15.849  21.723  0.00  0.00    -0.281 OA
ENDBRANCH  18  19
ENDBRANCH  17  18
ENDBRANCH  16  17
ENDBRANCH   3  16
BRANCH   4  21
ATOM     21  C   UNL d   1     -49.560  12.728  23.132  0.00  0.00     0.302 C 
ATOM     22  O   UNL d   1     -49.783  13.284  23.698  0.00  0.00    -0.259 OA
BRANCH  21  23
ATOM     23  O   UNL d   1     -49.911  12.713  22.399  0.00  0.00    -0.271 OA
BRANCH  23  24
ATOM     24  C   UNL d   1     -50.593  13.144  22.242  0.00  0.00     0.126 C 
ATOM     25  C   UNL d   1     -51.035  12.985  21.558  0.00  0.00     0.029 C 
ENDBRANCH  23  24
ENDBRANCH  21  23
ENDBRANCH   4  21
TORSDOF 7
ENDMDL
MODEL 3
REMARK VINA RESULT:      -6.0      0.896      1.196
REMARK  7 active torsions:
REMARK  status: ('A' for Active; 'I' for Inactive)
REMARK    1  A    between atoms: C_11  and  C_3 
REMARK    2  A    between atoms: C_10  and  C_4 
REMARK    3  A    between atoms: O_15  and  C_10 
REMARK    4  A    between atoms: N_14  and  C_11 
REMARK    5  A    between atoms: C_20  and  N_14 
REMARK    6  A    between atoms: C_22  and  O_15 
REMARK    7  A    between atoms: C_21  and  C_20 
ROOT
ATOM      1  C   UNL d   1     -48.046  13.883  22.802  0.00  0.00     0.035 A 
ATOM      2  C   UNL d   1     -48.599  14.479  22.660  0.00  0.00     0.100 A 
ATOM      3  C   UNL d   1     -48.301  13.111  22.938  0.00  0.00     0.060 A 
ATOM      4  C   UNL d   1     -47.279  14.203  22.778  0.00  0.00     0.088 A 
ATOM      5  O   UNL d   1     -48.158  15.187  22.546  0.00  0.00    -0.307 OA
ATOM      6  C   UNL d   1     -47.354  15.007  22.620  0.00  0.00     0.105 A 
ATOM      7  C   UNL d   1     -49.109  12.935  22.932  0.00  0.00     0.197 A 
ATOM      8  C   UNL d   1     -49.397  14.303  22.655  0.00  0.00     0.026 A 
ATOM      9  C   UNL d   1     -49.652  13.532  22.790  0.00  0.00     0.041 A 
ATOM     10  O   UNL d   1     -49.368  12.150  23.070  0.00  0.00    -0.286 OA
ATOM     11  C   UNL d   1     -46.699  15.562  22.546  0.00  0.00     0.027 C 
ATOM     12  C   UNL d   1     -49.959  14.902  22.512  0.00  0.00     0.002 A 
ATOM     13  C   UNL d   1     -50.469  13.358  22.783  0.00  0.00     0.003 A 
ATOM     14  C   UNL d   1     -51.007  13.953  22.642  0.00  0.00     0.000 A 
ATOM     15  C   UNL d   1     -50.753  14.725  22.507  0.00  0.00     0.000 A 
ENDROOT
BRANCH   3  16
ATOM     16  C   UNL d   1     -47.719  12.530  23.078  0.00  0.00     0.102 C 
BRANCH  16  17
ATOM     17  N   UNL d   1     -47.963  11.739  23.231  0.00  0.00    -0.239 NA
BRANCH  17  18
ATOM     18  C   UNL d   1     -47.435  11.111  23.070  0.00  0.00     0.144 C 
BRANCH  18  19
ATOM     19  C   UNL d   1     -47.148  10.659  23.691  0.00  0.00     0.255 C 
ATOM     20  O   UNL d   1     -46.393  10.329  23.664  0.00  0.00    -0.281 OA
ENDBRANCH  18  19
ENDBRANCH  17  18
ENDBRANCH  16  17
ENDBRANCH   3  16
BRANCH   4  21
ATOM     21  C   UNL d   1     -46.528  13.806  22.892  0.00  0.00     0.302 C 
ATOM     22  O   UNL d   1     -46.252  13.645  23.651  0.00  0.00    -0.259 OA
BRANCH  21  23
ATOM     23  O   UNL d   1     -46.098  13.595  22.235  0.00  0.00    -0.271 OA
BRANCH  23  24
ATOM     24  C   UNL d   1     -45.280  13.527  22.264  0.00  0.00     0.126 C 
ATOM     25  C   UNL d   1     -44.886  13.037  21.722  0.00  0.00     0.029 C 
ENDBRANCH  23  24
ENDBRANCH  21  23
ENDBRANCH   4  21
TORSDOF 7
ENDMDL
MODEL 4
REMARK VINA RESULT:      -5.7      1.053      2.826
REMARK  7 active torsions:
REMARK  status: ('A' for Active; 'I' for Inactive)
REMARK    1  A    between atoms: C_11  and  C_3 
REMARK    2  A    between atoms: C_10  and  C_4 
REMARK    3  A    between atoms: O_15  and  C_10 
REMARK    4  A    between atoms: N_14  and  C_11 
REMARK    5  A    between atoms: C_20  and  N_14 
REMARK    6  A    between atoms: C_22  and  O_15 
REMARK    7  A    between atoms: C_21  and  C_20 
ROOT
ATOM      1  C   UNL d   1     -47.617  12.509  23.283  0.00  0.00     0.035 A 
ATOM      2  C   UNL d   1     -48.021  11.818  23.480  0.00  0.00     0.100 A 
ATOM      3  C   UNL d   1     -48.040  13.191  23.094  0.00  0.00     0.060 A 
ATOM      4  C   UNL d   1     -46.798  12.373  23.315  0.00  0.00     0.088 A 
ATOM      5  O   UNL d   1     -47.431  11.238  23.639  0.00  0.00    -0.307 OA
ATOM      6  C   UNL d   1     -46.689  11.587  23.536  0.00  0.00     0.105 A 
ATOM      7  C   UNL d   1     -48.867  13.181  23.103  0.00  0.00     0.197 A 
ATOM      8  C   UNL d   1     -48.838  11.809  23.489  0.00  0.00     0.026 A 
ATOM      9  C   UNL d   1     -49.261  12.490  23.300  0.00  0.00     0.041 A 
ATOM     10  O   UNL d   1     -49.297  13.874  22.911  0.00  0.00    -0.286 OA
ATOM     11  C   UNL d   1     -45.925  11.202  23.638  0.00  0.00     0.027 C 
ATOM     12  C   UNL d   1     -49.250  11.113  23.688  0.00  0.00     0.002 A 
ATOM     13  C   UNL d   1     -50.096  12.476  23.310  0.00  0.00     0.003 A 
ATOM     14  C   UNL d   1     -50.486  11.788  23.507  0.00  0.00     0.000 A 
ATOM     15  C   UNL d   1     -50.063  11.106  23.696  0.00  0.00     0.000 A 
ENDROOT
BRANCH   3  16
ATOM     16  C   UNL d   1     -47.604  13.875  22.898  0.00  0.00     0.102 C 
BRANCH  16  17
ATOM     17  N   UNL d   1     -48.003  14.519  22.531  0.00  0.00    -0.239 NA
BRANCH  17  18
ATOM     18  C   UNL d   1     -47.656  15.279  22.554  0.00  0.00     0.144 C 
BRANCH  18  19
ATOM     19  C   UNL d   1     -48.034  15.903  22.179  0.00  0.00     0.255 C 
ATOM     20  O   UNL d   1     -48.144  15.905  21.361  0.00  0.00    -0.281 OA
ENDBRANCH  18  19
ENDBRANCH  17  18
ENDBRANCH  16  17
ENDBRANCH   3  16
BRANCH   4  21
ATOM     21  C   UNL d   1     -46.156  12.918  23.157  0.00  0.00     0.302 C 
ATOM     22  O   UNL d   1     -45.975  13.515  23.694  0.00  0.00    -0.259 OA
BRANCH  21  23
ATOM     23  O   UNL d   1     -45.734  12.831  22.468  0.00  0.00    -0.271 OA
BRANCH  23  24
ATOM     24  C   UNL d   1     -44.999  13.184  22.370  0.00  0.00     0.126 C 
ATOM     25  C   UNL d   1     -44.551  13.026  21.689  0.00  0.00     0.029 C 
ENDBRANCH  23  24
ENDBRANCH  21  23
ENDBRANCH   4  21
TORSDOF 7
ENDMDL
MODEL 5
REMARK VINA RESULT:      -5.6      1.304      3.515
REMARK  7 active torsions:
REMARK  status: ('A' for Active; 'I' for Inactive)
REMARK    1  A    between atoms: C_11  and  C_3 
REMARK    2  A    between atoms: C_10  and  C_4 
REMARK    3  A    between atoms: O_15  and  C_10 
REMARK    4  A    between atoms: N_14  and  C_11 
REMARK    5  A    between atoms: C_20  and  N_14 
REMARK    6  A    between atoms: C_22  and  O_15 
REMARK    7  A    between atoms: C_21  and  C_20 
ROOT
ATOM      1  C   UNL d   1     -47.950  13.898  22.873  0.00  0.00     0.035 A 
ATOM      2  C   UNL d   1     -47.192  14.050  22.586  0.00  0.00     0.100 A 
ATOM      3  C   UNL d   1     -48.111  13.179  23.242  0.00  0.00     0.060 A 
ATOM      4  C   UNL d   1     -48.441  14.552  22.723  0.00  0.00     0.088 A 
ATOM      5  O   UNL d   1     -47.218  14.822  22.248  0.00  0.00    -0.307 OA
ATOM      6  C   UNL d   1     -47.985  15.118  22.338  0.00  0.00     0.105 A 
ATOM      7  C   UNL d   1     -47.515  12.612  23.323  0.00  0.00     0.197 A 
ATOM      8  C   UNL d   1     -46.603  13.490  22.666  0.00  0.00     0.026 A 
ATOM      9  C   UNL d   1     -46.764  12.770  23.035  0.00  0.00     0.041 A 
ATOM     10  O   UNL d   1     -47.679  11.881  23.698  0.00  0.00    -0.286 OA
ATOM     11  C   UNL d   1     -48.268  15.888  22.075  0.00  0.00     0.027 C 
ATOM     12  C   UNL d   1     -45.836  13.639  22.378  0.00  0.00     0.002 A 
ATOM     13  C   UNL d   1     -46.159  12.201  23.115  0.00  0.00     0.003 A 
ATOM     14  C   UNL d   1     -45.413  12.360  22.827  0.00  0.00     0.000 A 
ATOM     15  C   UNL d   1     -45.252  13.080  22.459  0.00  0.00     0.000 A 
ENDROOT
BRANCH   3  16
ATOM     16  C   UNL d   1     -48.887  13.054  23.522  0.00  0.00     0.102 C 
BRANCH  16  17
ATOM     17  N   UNL d   1     -49.152  12.264  23.645  0.00  0.00    -0.239 NA
BRANCH  17  18
ATOM     18  C   UNL d   1     -49.959  12.082  23.525  0.00  0.00     0.144 C 
BRANCH  18  19
ATOM     19  C   UNL d   1     -50.229  11.327  23.698  0.00  0.00     0.255 C 
ATOM     20  O   UNL d   1     -51.031  11.139  23.646  0.00  0.00    -0.281 OA
ENDBRANCH  18  19
ENDBRANCH  17  18
ENDBRANCH  16  17
ENDBRANCH   3  16
BRANCH   4  21
ATOM     21  C   UNL d   1     -49.269  14.656  22.916  0.00  0.00     0.302 C 
ATOM     22  O   UNL d   1     -49.500  14.812  23.691  0.00  0.00    -0.259 OA
BRANCH  21  23
ATOM     23  O   UNL d   1     -49.817  14.597  22.320  0.00  0.00    -0.271 OA
BRANCH  23  24
ATOM     24  C   UNL d   1     -50.595  14.842  22.426  0.00  0.00     0.126 C 
ATOM     25  C   UNL d   1     -51.061  15.038  21.769  0.00  0.00     0.029 C 
ENDBRANCH  23  24
ENDBRANCH  21  23
ENDBRANCH   4  21
TORSDOF 7
ENDMDL
