MODEL 1
REMARK VINA RESULT:      73.6      0.000      0.000
REMARK  8 active torsions:
REMARK  status: ('A' for Active; 'I' for Inactive)
REMARK    1  A    between atoms: C_5  and  C_1 
REMARK    2  A    between atoms: N_6  and  C_2 
REMARK    3  A    between atoms: C_7  and  C_5 
REMARK    4  A    between atoms: C_8  and  C_5 
REMARK    5  A    between atoms: O_13  and  C_7 
REMARK    6  A    between atoms: C_12  and  C_16 
REMARK    7  A    between atoms: C_22  and  O_13 
REMARK    8  A    between atoms: C_25  and  C_22 
ROOT
ATOM      1  C   UNL d   1      40.826 -16.564  37.038  0.00  0.00     0.296 C 
ATOM      2  O   UNL d   1      40.432 -15.930  37.397  0.00  0.00    -0.259 OA
ATOM      3  O   UNL d   1      40.391 -17.169  36.685  0.00  0.00    -0.296 OA
ATOM      4  C   UNL d   1      39.956 -17.774  36.331  0.00  0.00     0.185 C 
ENDROOT
BRANCH   1   5
ATOM      5  C   UNL d   1      41.650 -16.586  37.035  0.00  0.00     0.065 A 
ATOM      6  C   UNL d   1      42.503 -16.864  37.049  0.00  0.00     0.018 A 
ATOM      7  C   UNL d   1      42.900 -15.910  36.986  0.00  0.00     0.057 A 
ATOM      8  N   UNL d   1      43.529 -15.692  36.969  0.00  0.00    -0.192 NA
ATOM      9  C   UNL d   1      42.755 -15.403  36.954  0.00  0.00     0.057 A 
ATOM     10  C   UNL d   1      42.300 -16.407  37.021  0.00  0.00     0.018 A 
BRANCH   8  11
ATOM     11  C   UNL d   1      44.219 -15.238  36.937  0.00  0.00     0.145 A 
ATOM     12  C   UNL d   1      44.819 -15.660  37.305  0.00  0.00     0.117 A 
ATOM     13  N   UNL d   1      45.577 -15.337  37.355  0.00  0.00    -0.241 NA
ATOM     14  C   UNL d   1      45.733 -14.599  37.039  0.00  0.00     0.099 A 
ATOM     15  C   UNL d   1      45.130 -14.168  36.666  0.00  0.00     0.100 A 
ATOM     16  C   UNL d   1      46.484 -14.277  37.087  0.00  0.00     0.021 A 
ATOM     17  C   UNL d   1      45.285 -13.421  36.346  0.00  0.00     0.021 A 
ATOM     18  N   UNL d   1      44.371 -14.491  36.616  0.00  0.00    -0.230 NA
ATOM     19  C   UNL d   1      46.040 -13.109  36.400  0.00  0.00     0.002 A 
ATOM     20  C   UNL d   1      46.647 -13.532  36.771  0.00  0.00     0.002 A 
BRANCH  12  21
ATOM     21  C   UNL d   1      44.503 -16.377  37.567  0.00  0.00     0.104 C 
BRANCH  21  22
ATOM     22  C   UNL d   1      44.423 -16.613  38.361  0.00  0.00     0.303 C 
ATOM     23  O   UNL d   1      43.696 -16.534  38.741  0.00  0.00    -0.259 OA
BRANCH  22  24
ATOM     24  O   UNL d   1      45.071 -16.926  38.765  0.00  0.00    -0.271 OA
BRANCH  24  25
ATOM     25  C   UNL d   1      44.975 -17.569  39.270  0.00  0.00     0.126 C 
BRANCH  25  26
ATOM     26  C   UNL d   1      45.583 -17.793  39.776  0.00  0.00     0.025 C 
ATOM     27  C   UNL d   1      45.422 -17.956  40.564  0.00  0.00     0.002 C 
ATOM     28  C   UNL d   1      46.355 -17.853  39.490  0.00  0.00     0.002 C 
ENDBRANCH  25  26
ENDBRANCH  24  25
ENDBRANCH  22  24
ENDBRANCH  21  22
BRANCH  21  29
ATOM     29  C   UNL d   1      44.284 -16.818  36.909  0.00  0.00     0.129 C 
ATOM     30  N   UNL d   1      44.791 -17.128  36.331  0.00  0.00    -0.146 N 
ENDBRANCH  21  29
ENDBRANCH  12  21
ENDBRANCH   8  11
ENDBRANCH   1   5
TORSDOF 8
ENDMDL
