MODEL 1
REMARK VINA RESULT:      -8.8      0.000      0.000
REMARK  8 active torsions:
REMARK  status: ('A' for Active; 'I' for Inactive)
REMARK    1  A    between atoms: C_13  and  N_1 
REMARK    2  A    between atoms: C_2  and  N_6 
REMARK    3  A    between atoms: C_9  and  C_5 
REMARK       I    between atoms: N_6  and  C_9 
REMARK    4  A    between atoms: S_16  and  C_7 
REMARK    5  A    between atoms: C_14  and  C_27 
REMARK       I    between atoms: N_20  and  C_14 
REMARK    6  A    between atoms: C_15  and  C_28 
REMARK    7  A    between atoms: C_27  and  S_16 
REMARK    8  A    between atoms: C_28  and  N_20 
ROOT
ATOM      1  C   UNL d   1      50.197  34.191  52.547  0.00  0.00     0.219 A 
ATOM      2  S   UNL d   1      49.722  34.710  52.859  0.00  0.00    -0.019 SA
ATOM      3  C   UNL d   1      49.228  34.931  52.323  0.00  0.00     0.165 A 
ATOM      4  N   UNL d   1      49.995  34.089  51.811  0.00  0.00    -0.120 NA
ATOM      5  N   UNL d   1      49.384  34.555  51.669  0.00  0.00    -0.133 NA
ENDROOT
BRANCH   1   6
ATOM      6  N   UNL d   1      50.776  33.833  52.905  0.00  0.00    -0.181 NA
ATOM      7  C   UNL d   1      51.477  33.813  52.585  0.00  0.00     0.283 C 
ATOM      8  O   UNL d   1      51.600  34.153  51.906  0.00  0.00    -0.265 OA
BRANCH   7   9
ATOM      9  C   UNL d   1      52.051  33.455  52.947  0.00  0.00     0.080 A 
ATOM     10  C   UNL d   1      52.588  33.780  53.386  0.00  0.00     0.088 A 
ATOM     11  N   UNL d   1      53.055  33.225  53.640  0.00  0.00    -0.273 N 
ATOM     12  C   UNL d   1      52.808  32.560  53.359  0.00  0.00     0.265 A 
ATOM     13  C   UNL d   1      52.182  32.697  52.927  0.00  0.00     0.067 A 
ATOM     14  O   UNL d   1      53.126  31.865  53.485  0.00  0.00    -0.267 OA
BRANCH  11  15
ATOM     15  C   UNL d   1      53.715  33.335  54.135  0.00  0.00     0.067 A 
ATOM     16  C   UNL d   1      53.605  33.402  54.949  0.00  0.00     0.020 A 
ATOM     17  C   UNL d   1      54.267  33.512  55.433  0.00  0.00     0.031 A 
ATOM     18  C   UNL d   1      55.019  33.554  55.112  0.00  0.00     0.140 A 
ATOM     19  C   UNL d   1      55.122  33.486  54.292  0.00  0.00     0.031 A 
ATOM     20  F   UNL d   1      55.685  33.665  55.602  0.00  0.00    -0.204 F 
ATOM     21  C   UNL d   1      54.477  33.377  53.809  0.00  0.00     0.020 A 
ENDBRANCH  11  15
ENDBRANCH   7   9
ENDBRANCH   1   6
BRANCH   3  22
ATOM     22  S   UNL d   1      48.071  36.082  52.781  0.00  0.00    -0.054 SA
BRANCH  22  23
ATOM     23  C   UNL d   1      47.644  35.986  53.481  0.00  0.00     0.100 C 
BRANCH  23  24
ATOM     24  C   UNL d   1      46.850  36.223  53.517  0.00  0.00     0.286 C 
ATOM     25  N   UNL d   1      46.383  35.969  54.145  0.00  0.00    -0.204 NA
ATOM     26  O   UNL d   1      46.532  36.709  52.927  0.00  0.00    -0.265 OA
BRANCH  25  27
ATOM     27  C   UNL d   1      45.592  36.204  54.183  0.00  0.00     0.127 C 
BRANCH  27  28
ATOM     28  C   UNL d   1      45.116  35.926  54.802  0.00  0.00     0.119 A 
ATOM     29  O   UNL d   1      44.940  36.326  55.506  0.00  0.00    -0.304 OA
ATOM     30  C   UNL d   1      44.446  35.835  55.959  0.00  0.00     0.123 A 
ATOM     31  C   UNL d   1      44.314  35.132  55.542  0.00  0.00     0.029 A 
ATOM     32  C   UNL d   1      44.731  35.188  54.823  0.00  0.00     0.028 A 
ENDBRANCH  27  28
ENDBRANCH  25  27
ENDBRANCH  23  24
ENDBRANCH  22  23
ENDBRANCH   3  22
TORSDOF 8
ENDMDL
MODEL 2
REMARK VINA RESULT:      -8.4      1.899      2.410
REMARK  8 active torsions:
REMARK  status: ('A' for Active; 'I' for Inactive)
REMARK    1  A    between atoms: C_13  and  N_1 
REMARK    2  A    between atoms: C_2  and  N_6 
REMARK    3  A    between atoms: C_9  and  C_5 
REMARK       I    between atoms: N_6  and  C_9 
REMARK    4  A    between atoms: S_16  and  C_7 
REMARK    5  A    between atoms: C_14  and  C_27 
REMARK       I    between atoms: N_20  and  C_14 
REMARK    6  A    between atoms: C_15  and  C_28 
REMARK    7  A    between atoms: C_27  and  S_16 
REMARK    8  A    between atoms: C_28  and  N_20 
ROOT
ATOM      1  C   UNL d   1      50.646  34.126  52.940  0.00  0.00     0.219 A 
ATOM      2  S   UNL d   1      50.079  34.084  52.420  0.00  0.00    -0.019 SA
ATOM      3  C   UNL d   1      49.676  34.730  52.459  0.00  0.00     0.165 A 
ATOM      4  N   UNL d   1      50.592  34.804  53.303  0.00  0.00    -0.120 NA
ATOM      5  N   UNL d   1      49.982  35.184  53.000  0.00  0.00    -0.133 NA
ENDROOT
BRANCH   1   6
ATOM      6  N   UNL d   1      51.176  33.586  53.077  0.00  0.00    -0.181 NA
ATOM      7  C   UNL d   1      51.915  33.715  52.900  0.00  0.00     0.283 C 
ATOM      8  O   UNL d   1      52.125  34.385  52.585  0.00  0.00    -0.265 OA
BRANCH   7   9
ATOM      9  C   UNL d   1      52.440  33.173  53.038  0.00  0.00     0.080 A 
ATOM     10  C   UNL d   1      52.306  32.430  53.171  0.00  0.00     0.088 A 
ATOM     11  N   UNL d   1      52.983  32.082  53.282  0.00  0.00    -0.273 N 
ATOM     12  C   UNL d   1      53.532  32.608  53.218  0.00  0.00     0.265 A 
ATOM     13  C   UNL d   1      53.201  33.290  53.066  0.00  0.00     0.067 A 
ATOM     14  O   UNL d   1      54.293  32.483  53.293  0.00  0.00    -0.267 OA
BRANCH  11  15
ATOM     15  C   UNL d   1      53.091  31.274  53.443  0.00  0.00     0.067 A 
ATOM     16  C   UNL d   1      52.957  30.719  52.848  0.00  0.00     0.020 A 
ATOM     17  C   UNL d   1      53.068  29.917  53.019  0.00  0.00     0.031 A 
ATOM     18  C   UNL d   1      53.305  29.675  53.763  0.00  0.00     0.140 A 
ATOM     19  C   UNL d   1      53.438  30.238  54.358  0.00  0.00     0.031 A 
ATOM     20  F   UNL d   1      53.416  28.866  53.933  0.00  0.00    -0.204 F 
ATOM     21  C   UNL d   1      53.332  31.030  54.199  0.00  0.00     0.020 A 
ENDBRANCH  11  15
ENDBRANCH   7   9
ENDBRANCH   1   6
BRANCH   3  22
ATOM     22  S   UNL d   1      48.361  34.871  51.397  0.00  0.00    -0.054 SA
BRANCH  22  23
ATOM     23  C   UNL d   1      47.832  35.501  51.474  0.00  0.00     0.100 C 
BRANCH  23  24
ATOM     24  C   UNL d   1      47.018  35.367  51.396  0.00  0.00     0.286 C 
ATOM     25  N   UNL d   1      46.502  35.699  51.945  0.00  0.00    -0.204 NA
ATOM     26  O   UNL d   1      46.728  34.905  50.773  0.00  0.00    -0.265 OA
BRANCH  25  27
ATOM     27  C   UNL d   1      45.690  35.567  51.869  0.00  0.00     0.127 C 
BRANCH  27  28
ATOM     28  C   UNL d   1      45.178  35.847  52.457  0.00  0.00     0.119 A 
ATOM     29  O   UNL d   1      44.987  36.640  52.606  0.00  0.00    -0.304 OA
ATOM     30  C   UNL d   1      44.455  36.656  53.245  0.00  0.00     0.123 A 
ATOM     31  C   UNL d   1      44.314  35.878  53.493  0.00  0.00     0.029 A 
ATOM     32  C   UNL d   1      44.763  35.376  53.004  0.00  0.00     0.028 A 
ENDBRANCH  27  28
ENDBRANCH  25  27
ENDBRANCH  23  24
ENDBRANCH  22  23
ENDBRANCH   3  22
TORSDOF 8
ENDMDL
MODEL 3
REMARK VINA RESULT:      -6.7      2.369      7.499
REMARK  8 active torsions:
REMARK  status: ('A' for Active; 'I' for Inactive)
REMARK    1  A    between atoms: C_13  and  N_1 
REMARK    2  A    between atoms: C_2  and  N_6 
REMARK    3  A    between atoms: C_9  and  C_5 
REMARK       I    between atoms: N_6  and  C_9 
REMARK    4  A    between atoms: S_16  and  C_7 
REMARK    5  A    between atoms: C_14  and  C_27 
REMARK       I    between atoms: N_20  and  C_14 
REMARK    6  A    between atoms: C_15  and  C_28 
REMARK    7  A    between atoms: C_27  and  S_16 
REMARK    8  A    between atoms: C_28  and  N_20 
ROOT
ATOM      1  C   UNL d   1      48.482  34.811  51.697  0.00  0.00     0.219 A 
ATOM      2  S   UNL d   1      49.142  34.670  52.068  0.00  0.00    -0.019 SA
ATOM      3  C   UNL d   1      49.665  34.470  51.552  0.00  0.00     0.165 A 
ATOM      4  N   UNL d   1      48.598  34.697  50.944  0.00  0.00    -0.120 NA
ATOM      5  N   UNL d   1      49.343  34.482  50.852  0.00  0.00    -0.133 NA
ENDROOT
BRANCH   1   6
ATOM      6  N   UNL d   1      47.818  35.029  52.019  0.00  0.00    -0.181 NA
ATOM      7  C   UNL d   1      47.559  35.748  51.926  0.00  0.00     0.283 C 
ATOM      8  O   UNL d   1      47.965  36.253  51.510  0.00  0.00    -0.265 OA
BRANCH   7   9
ATOM      9  C   UNL d   1      46.897  35.960  52.250  0.00  0.00     0.080 A 
ATOM     10  C   UNL d   1      46.713  35.908  52.992  0.00  0.00     0.088 A 
ATOM     11  N   UNL d   1      45.999  36.180  53.080  0.00  0.00    -0.273 N 
ATOM     12  C   UNL d   1      45.743  36.399  52.396  0.00  0.00     0.265 A 
ATOM     13  C   UNL d   1      46.298  36.265  51.874  0.00  0.00     0.067 A 
ATOM     14  O   UNL d   1      45.048  36.704  52.246  0.00  0.00    -0.267 OA
BRANCH  11  15
ATOM     15  C   UNL d   1      45.584  36.225  53.799  0.00  0.00     0.067 A 
ATOM     16  C   UNL d   1      45.893  36.671  54.420  0.00  0.00     0.020 A 
ATOM     17  C   UNL d   1      45.471  36.709  55.131  0.00  0.00     0.031 A 
ATOM     18  C   UNL d   1      44.761  36.313  55.220  0.00  0.00     0.140 A 
ATOM     19  C   UNL d   1      44.457  35.865  54.592  0.00  0.00     0.031 A 
ATOM     20  F   UNL d   1      44.338  36.353  55.938  0.00  0.00    -0.204 F 
ATOM     21  C   UNL d   1      44.864  35.822  53.889  0.00  0.00     0.020 A 
ENDBRANCH  11  15
ENDBRANCH   7   9
ENDBRANCH   1   6
BRANCH   3  22
ATOM     22  S   UNL d   1      51.214  34.108  52.137  0.00  0.00    -0.054 SA
BRANCH  22  23
ATOM     23  C   UNL d   1      51.303  33.690  52.844  0.00  0.00     0.100 C 
BRANCH  23  24
ATOM     24  C   UNL d   1      51.994  33.253  52.980  0.00  0.00     0.286 C 
ATOM     25  N   UNL d   1      52.485  33.463  53.607  0.00  0.00    -0.204 NA
ATOM     26  O   UNL d   1      52.188  32.613  52.492  0.00  0.00    -0.265 OA
BRANCH  25  27
ATOM     27  C   UNL d   1      53.174  33.030  53.745  0.00  0.00     0.127 C 
BRANCH  27  28
ATOM     28  C   UNL d   1      53.718  33.302  54.309  0.00  0.00     0.119 A 
ATOM     29  O   UNL d   1      53.724  34.050  54.665  0.00  0.00    -0.304 OA
ATOM     30  C   UNL d   1      54.366  34.074  55.192  0.00  0.00     0.123 A 
ATOM     31  C   UNL d   1      54.759  33.345  55.166  0.00  0.00     0.029 A 
ATOM     32  C   UNL d   1      54.356  32.865  54.617  0.00  0.00     0.028 A 
ENDBRANCH  27  28
ENDBRANCH  25  27
ENDBRANCH  23  24
ENDBRANCH  22  23
ENDBRANCH   3  22
TORSDOF 8
ENDMDL
MODEL 4
REMARK VINA RESULT:      -6.7      2.588      7.585
REMARK  8 active torsions:
REMARK  status: ('A' for Active; 'I' for Inactive)
REMARK    1  A    between atoms: C_13  and  N_1 
REMARK    2  A    between atoms: C_2  and  N_6 
REMARK    3  A    between atoms: C_9  and  C_5 
REMARK       I    between atoms: N_6  and  C_9 
REMARK    4  A    between atoms: S_16  and  C_7 
REMARK    5  A    between atoms: C_14  and  C_27 
REMARK       I    between atoms: N_20  and  C_14 
REMARK    6  A    between atoms: C_15  and  C_28 
REMARK    7  A    between atoms: C_27  and  S_16 
REMARK    8  A    between atoms: C_28  and  N_20 
ROOT
ATOM      1  C   UNL d   1      48.374  34.844  51.804  0.00  0.00     0.219 A 
ATOM      2  S   UNL d   1      49.060  34.798  52.151  0.00  0.00    -0.019 SA
ATOM      3  C   UNL d   1      49.570  34.564  51.636  0.00  0.00     0.165 A 
ATOM      4  N   UNL d   1      48.460  34.635  51.068  0.00  0.00    -0.120 NA
ATOM      5  N   UNL d   1      49.214  34.459  50.961  0.00  0.00    -0.133 NA
ENDROOT
BRANCH   1   6
ATOM      6  N   UNL d   1      47.713  35.059  52.133  0.00  0.00    -0.181 NA
ATOM      7  C   UNL d   1      47.460  35.783  52.057  0.00  0.00     0.283 C 
ATOM      8  O   UNL d   1      47.869  36.294  51.651  0.00  0.00    -0.265 OA
BRANCH   7   9
ATOM      9  C   UNL d   1      46.801  35.993  52.388  0.00  0.00     0.080 A 
ATOM     10  C   UNL d   1      46.634  35.965  53.135  0.00  0.00     0.088 A 
ATOM     11  N   UNL d   1      45.917  36.225  53.230  0.00  0.00    -0.273 N 
ATOM     12  C   UNL d   1      45.641  36.413  52.544  0.00  0.00     0.265 A 
ATOM     13  C   UNL d   1      46.187  36.271  52.015  0.00  0.00     0.067 A 
ATOM     14  O   UNL d   1      44.936  36.698  52.399  0.00  0.00    -0.267 OA
BRANCH  11  15
ATOM     15  C   UNL d   1      45.516  36.288  53.956  0.00  0.00     0.067 A 
ATOM     16  C   UNL d   1      45.889  36.651  54.595  0.00  0.00     0.020 A 
ATOM     17  C   UNL d   1      45.482  36.709  55.313  0.00  0.00     0.031 A 
ATOM     18  C   UNL d   1      44.723  36.412  55.391  0.00  0.00     0.140 A 
ATOM     19  C   UNL d   1      44.354  36.048  54.744  0.00  0.00     0.031 A 
ATOM     20  F   UNL d   1      44.314  36.472  56.116  0.00  0.00    -0.204 F 
ATOM     21  C   UNL d   1      44.747  35.987  54.033  0.00  0.00     0.020 A 
ENDBRANCH  11  15
ENDBRANCH   7   9
ENDBRANCH   1   6
BRANCH   3  22
ATOM     22  S   UNL d   1      51.169  34.388  52.171  0.00  0.00    -0.054 SA
BRANCH  22  23
ATOM     23  C   UNL d   1      51.355  33.820  52.741  0.00  0.00     0.100 C 
BRANCH  23  24
ATOM     24  C   UNL d   1      52.114  33.489  52.761  0.00  0.00     0.286 C 
ATOM     25  N   UNL d   1      52.199  32.687  52.926  0.00  0.00    -0.204 NA
ATOM     26  O   UNL d   1      52.780  33.959  52.615  0.00  0.00    -0.265 OA
BRANCH  25  27
ATOM     27  C   UNL d   1      52.955  32.354  52.946  0.00  0.00     0.127 C 
BRANCH  27  28
ATOM     28  C   UNL d   1      53.035  31.539  53.075  0.00  0.00     0.119 A 
ATOM     29  O   UNL d   1      52.821  30.934  52.551  0.00  0.00    -0.304 OA
ATOM     30  C   UNL d   1      53.002  30.209  52.914  0.00  0.00     0.123 A 
ATOM     31  C   UNL d   1      53.326  30.359  53.661  0.00  0.00     0.029 A 
ATOM     32  C   UNL d   1      53.347  31.185  53.761  0.00  0.00     0.028 A 
ENDBRANCH  27  28
ENDBRANCH  25  27
ENDBRANCH  23  24
ENDBRANCH  22  23
ENDBRANCH   3  22
TORSDOF 8
ENDMDL
MODEL 5
REMARK VINA RESULT:      -6.0      3.096      7.328
REMARK  8 active torsions:
REMARK  status: ('A' for Active; 'I' for Inactive)
REMARK    1  A    between atoms: C_13  and  N_1 
REMARK    2  A    between atoms: C_2  and  N_6 
REMARK    3  A    between atoms: C_9  and  C_5 
REMARK       I    between atoms: N_6  and  C_9 
REMARK    4  A    between atoms: S_16  and  C_7 
REMARK    5  A    between atoms: C_14  and  C_27 
REMARK       I    between atoms: N_20  and  C_14 
REMARK    6  A    between atoms: C_15  and  C_28 
REMARK    7  A    between atoms: C_27  and  S_16 
REMARK    8  A    between atoms: C_28  and  N_20 
ROOT
ATOM      1  C   UNL d   1      51.490  34.526  53.153  0.00  0.00     0.219 A 
ATOM      2  S   UNL d   1      52.014  34.014  52.917  0.00  0.00    -0.019 SA
ATOM      3  C   UNL d   1      52.529  33.929  53.472  0.00  0.00     0.165 A 
ATOM      4  N   UNL d   1      51.683  34.760  53.861  0.00  0.00    -0.120 NA
ATOM      5  N   UNL d   1      52.337  34.385  54.062  0.00  0.00    -0.133 NA
ENDROOT
BRANCH   1   6
ATOM      6  N   UNL d   1      50.878  34.766  52.754  0.00  0.00    -0.181 NA
ATOM      7  C   UNL d   1      50.242  34.332  52.721  0.00  0.00     0.283 C 
ATOM      8  O   UNL d   1      50.218  33.656  53.088  0.00  0.00    -0.265 OA
BRANCH   7   9
ATOM      9  C   UNL d   1      49.635  34.575  52.321  0.00  0.00     0.080 A 
ATOM     10  C   UNL d   1      49.033  34.964  52.595  0.00  0.00     0.088 A 
ATOM     11  N   UNL d   1      48.552  35.098  52.011  0.00  0.00    -0.273 N 
ATOM     12  C   UNL d   1      48.854  34.795  51.380  0.00  0.00     0.265 A 
ATOM     13  C   UNL d   1      49.529  34.468  51.566  0.00  0.00     0.067 A 
ATOM     14  O   UNL d   1      48.541  34.811  50.672  0.00  0.00    -0.267 OA
BRANCH  11  15
ATOM     15  C   UNL d   1      47.828  35.505  52.064  0.00  0.00     0.067 A 
ATOM     16  C   UNL d   1      47.777  36.184  52.529  0.00  0.00     0.020 A 
ATOM     17  C   UNL d   1      47.052  36.581  52.575  0.00  0.00     0.031 A 
ATOM     18  C   UNL d   1      46.397  36.307  52.169  0.00  0.00     0.140 A 
ATOM     19  C   UNL d   1      46.455  35.623  51.704  0.00  0.00     0.031 A 
ATOM     20  F   UNL d   1      45.667  36.709  52.217  0.00  0.00    -0.204 F 
ATOM     21  C   UNL d   1      47.164  35.226  51.652  0.00  0.00     0.020 A 
ENDBRANCH  11  15
ENDBRANCH   7   9
ENDBRANCH   1   6
BRANCH   3  22
ATOM     22  S   UNL d   1      53.794  32.839  53.179  0.00  0.00    -0.054 SA
BRANCH  22  23
ATOM     23  C   UNL d   1      53.893  32.178  53.664  0.00  0.00     0.100 C 
BRANCH  23  24
ATOM     24  C   UNL d   1      53.657  31.430  53.394  0.00  0.00     0.286 C 
ATOM     25  N   UNL d   1      53.594  30.811  53.933  0.00  0.00    -0.204 NA
ATOM     26  O   UNL d   1      53.487  31.308  52.593  0.00  0.00    -0.265 OA
BRANCH  25  27
ATOM     27  C   UNL d   1      53.359  30.065  53.667  0.00  0.00     0.127 C 
BRANCH  27  28
ATOM     28  C   UNL d   1      53.329  29.435  54.205  0.00  0.00     0.119 A 
ATOM     29  O   UNL d   1      52.705  29.255  54.719  0.00  0.00    -0.304 OA
ATOM     30  C   UNL d   1      52.919  28.579  55.151  0.00  0.00     0.123 A 
ATOM     31  C   UNL d   1      53.674  28.337  54.910  0.00  0.00     0.029 A 
ATOM     32  C   UNL d   1      53.929  28.869  54.322  0.00  0.00     0.028 A 
ENDBRANCH  27  28
ENDBRANCH  25  27
ENDBRANCH  23  24
ENDBRANCH  22  23
ENDBRANCH   3  22
TORSDOF 8
ENDMDL
