MODEL 1
REMARK VINA RESULT:      -6.0      0.000      0.000
REMARK  4 active torsions:
REMARK  status: ('A' for Active; 'I' for Inactive)
REMARK    1  A    between atoms: C_3  and  S_1 
REMARK    2  A    between atoms: N_4  and  S_1 
REMARK    3  A    between atoms: C_2  and  C_8 
REMARK       I    between atoms: N_5  and  C_2 
REMARK    4  A    between atoms: C_14  and  N_5 
ROOT
ATOM      1  C   UNL d   1     -41.622-123.052 -50.042  0.00  0.00     0.104 A 
ATOM      2  C   UNL d   1     -41.588-122.582 -51.652  0.00  0.00     0.058 A 
ATOM      3  C   UNL d   1     -41.160-123.425 -50.571  0.00  0.00     0.013 A 
ATOM      4  C   UNL d   1     -42.077-122.436 -50.306  0.00  0.00     0.013 A 
ATOM      5  C   UNL d   1     -42.083-122.180 -51.090  0.00  0.00     0.005 A 
ATOM      6  C   UNL d   1     -41.142-123.194 -51.368  0.00  0.00     0.005 A 
ENDROOT
BRANCH   2   7
ATOM      7  C   UNL d   1     -41.569-122.346 -52.467  0.00  0.00     0.279 C 
ATOM      8  N   UNL d   1     -41.939-122.745 -53.030  0.00  0.00    -0.208 NA
ATOM      9  O   UNL d   1     -41.123-121.644 -52.649  0.00  0.00    -0.265 OA
BRANCH   8  10
ATOM     10  C   UNL d   1     -41.903-122.492 -53.815  0.00  0.00     0.085 A 
ATOM     11  C   UNL d   1     -42.448-121.960 -54.084  0.00  0.00     0.020 A 
ATOM     12  C   UNL d   1     -42.412-121.708 -54.869  0.00  0.00     0.013 A 
ATOM     13  C   UNL d   1     -41.831-121.988 -55.383  0.00  0.00     0.058 A 
ATOM     14  C   UNL d   1     -41.272-122.539 -55.094  0.00  0.00     0.013 A 
ATOM     15 CL   UNL d   1     -41.833-121.691 -56.211  0.00  0.00    -0.082 Cl
ATOM     16  C   UNL d   1     -41.312-122.788 -54.308  0.00  0.00     0.020 A 
ENDBRANCH   8  10
ENDBRANCH   2   7
BRANCH   1  17
ATOM     17  S   UNL d   1     -41.690-123.245 -49.177  0.00  0.00     0.271 S 
ATOM     18  O   UNL d   1     -41.122-122.672 -48.932  0.00  0.00    -0.200 OA
ATOM     19  O   UNL d   1     -42.232-123.792 -49.416  0.00  0.00    -0.200 OA
BRANCH  17  20
ATOM     20  N   UNL d   1     -41.807-123.487 -48.340  0.00  0.00    -0.226 N 
ATOM     21  C   UNL d   1     -41.183-123.395 -47.790  0.00  0.00     0.111 C 
ATOM     22  C   UNL d   1     -42.530-123.802 -48.095  0.00  0.00     0.111 C 
ENDBRANCH  17  20
ENDBRANCH   1  17
TORSDOF 4
ENDMDL
MODEL 2
REMARK VINA RESULT:      -4.3      2.510      5.231
REMARK  4 active torsions:
REMARK  status: ('A' for Active; 'I' for Inactive)
REMARK    1  A    between atoms: C_3  and  S_1 
REMARK    2  A    between atoms: N_4  and  S_1 
REMARK    3  A    between atoms: C_2  and  C_8 
REMARK       I    between atoms: N_5  and  C_2 
REMARK    4  A    between atoms: C_14  and  N_5 
ROOT
ATOM      1  C   UNL d   1     -41.520-122.629 -53.136  0.00  0.00     0.104 A 
ATOM      2  C   UNL d   1     -41.525-122.726 -51.460  0.00  0.00     0.058 A 
ATOM      3  C   UNL d   1     -41.434-121.980 -52.685  0.00  0.00     0.013 A 
ATOM      4  C   UNL d   1     -41.611-123.341 -52.759  0.00  0.00     0.013 A 
ATOM      5  C   UNL d   1     -41.618-123.422 -51.938  0.00  0.00     0.005 A 
ATOM      6  C   UNL d   1     -41.436-122.025 -51.856  0.00  0.00     0.005 A 
ENDROOT
BRANCH   2   7
ATOM      7  C   UNL d   1     -41.528-122.772 -50.613  0.00  0.00     0.279 C 
ATOM      8  N   UNL d   1     -41.879-123.352 -50.223  0.00  0.00    -0.208 NA
ATOM      9  O   UNL d   1     -41.123-122.147 -50.198  0.00  0.00    -0.265 OA
BRANCH   8  10
ATOM     10  C   UNL d   1     -41.866-123.371 -49.398  0.00  0.00     0.085 A 
ATOM     11  C   UNL d   1     -42.560-123.314 -48.990  0.00  0.00     0.020 A 
ATOM     12  C   UNL d   1     -42.546-123.333 -48.165  0.00  0.00     0.013 A 
ATOM     13  C   UNL d   1     -41.837-123.410 -47.750  0.00  0.00     0.058 A 
ATOM     14  C   UNL d   1     -41.124-123.468 -48.183  0.00  0.00     0.013 A 
ATOM     15 CL   UNL d   1     -41.872-123.425 -46.871  0.00  0.00    -0.082 Cl
ATOM     16  C   UNL d   1     -41.143-123.449 -49.008  0.00  0.00     0.020 A 
ENDBRANCH   8  10
ENDBRANCH   2   7
BRANCH   1  17
ATOM     17  S   UNL d   1     -41.527-122.654 -54.024  0.00  0.00     0.271 S 
ATOM     18  O   UNL d   1     -41.344-123.475 -54.073  0.00  0.00    -0.200 OA
ATOM     19  O   UNL d   1     -41.701-121.869 -53.972  0.00  0.00    -0.200 OA
BRANCH  17  20
ATOM     20  N   UNL d   1     -41.550-122.607 -54.902  0.00  0.00    -0.226 N 
ATOM     21  C   UNL d   1     -41.368-123.284 -55.358  0.00  0.00     0.111 C 
ATOM     22  C   UNL d   1     -41.749-121.898 -55.275  0.00  0.00     0.111 C 
ENDBRANCH  17  20
ENDBRANCH   1  17
TORSDOF 4
ENDMDL
MODEL 3
REMARK VINA RESULT:      -4.3      2.538      5.233
REMARK  4 active torsions:
REMARK  status: ('A' for Active; 'I' for Inactive)
REMARK    1  A    between atoms: C_3  and  S_1 
REMARK    2  A    between atoms: N_4  and  S_1 
REMARK    3  A    between atoms: C_2  and  C_8 
REMARK       I    between atoms: N_5  and  C_2 
REMARK    4  A    between atoms: C_14  and  N_5 
ROOT
ATOM      1  C   UNL d   1     -41.618-122.576 -53.432  0.00  0.00     0.104 A 
ATOM      2  C   UNL d   1     -41.581-122.674 -51.758  0.00  0.00     0.058 A 
ATOM      3  C   UNL d   1     -41.613-123.278 -53.060  0.00  0.00     0.013 A 
ATOM      4  C   UNL d   1     -41.604-121.907 -52.975  0.00  0.00     0.013 A 
ATOM      5  C   UNL d   1     -41.586-121.921 -52.150  0.00  0.00     0.005 A 
ATOM      6  C   UNL d   1     -41.595-123.330 -52.232  0.00  0.00     0.005 A 
ENDROOT
BRANCH   2   7
ATOM      7  C   UNL d   1     -41.563-122.727 -50.910  0.00  0.00     0.279 C 
ATOM      8  N   UNL d   1     -41.821-123.355 -50.522  0.00  0.00    -0.208 NA
ATOM      9  O   UNL d   1     -41.245-122.055 -50.495  0.00  0.00    -0.265 OA
BRANCH   8  10
ATOM     10  C   UNL d   1     -41.791-123.379 -49.698  0.00  0.00     0.085 A 
ATOM     11  C   UNL d   1     -41.152-123.717 -49.335  0.00  0.00     0.020 A 
ATOM     12  C   UNL d   1     -41.123-123.740 -48.511  0.00  0.00     0.013 A 
ATOM     13  C   UNL d   1     -41.731-123.427 -48.050  0.00  0.00     0.058 A 
ATOM     14  C   UNL d   1     -42.388-123.080 -48.436  0.00  0.00     0.013 A 
ATOM     15 CL   UNL d   1     -41.655-123.476 -47.176  0.00  0.00    -0.082 Cl
ATOM     16  C   UNL d   1     -42.412-123.059 -49.261  0.00  0.00     0.020 A 
ENDBRANCH   8  10
ENDBRANCH   2   7
BRANCH   1  17
ATOM     17  S   UNL d   1     -41.637-122.448 -54.312  0.00  0.00     0.271 S 
ATOM     18  O   UNL d   1     -41.123-123.092 -54.487  0.00  0.00    -0.200 OA
ATOM     19  O   UNL d   1     -42.128-121.832 -54.139  0.00  0.00    -0.200 OA
BRANCH  17  20
ATOM     20  N   UNL d   1     -41.699-122.265 -55.169  0.00  0.00    -0.226 N 
ATOM     21  C   UNL d   1     -42.191-121.639 -55.425  0.00  0.00     0.111 C 
ATOM     22  C   UNL d   1     -41.275-122.710 -55.721  0.00  0.00     0.111 C 
ENDBRANCH  17  20
ENDBRANCH   1  17
TORSDOF 4
ENDMDL
