MODEL 1
REMARK VINA RESULT:      80.7      0.000      0.000
REMARK  5 active torsions:
REMARK  status: ('A' for Active; 'I' for Inactive)
REMARK    1  A    between atoms: O_8  and  C_1 
REMARK    2  A    between atoms: C_10  and  C_5 
REMARK    3  A    between atoms: C_12  and  O_8 
REMARK    4  A    between atoms: N_9  and  C_10 
REMARK    5  A    between atoms: O_24  and  C_17 
ROOT
ATOM      1  C   UNL d   1      58.685  49.539  51.031  0.00  0.00     0.161 A 
ATOM      2  C   UNL d   1      60.313  49.209  50.995  0.00  0.00     0.108 A 
ATOM      3  C   UNL d   1      59.936  49.378  51.723  0.00  0.00     0.064 A 
ATOM      4  C   UNL d   1      59.131  49.541  51.741  0.00  0.00     0.222 A 
ATOM      5  C   UNL d   1      61.128  49.045  50.976  0.00  0.00     0.079 A 
ATOM      6  O   UNL d   1      59.880  49.205  50.287  0.00  0.00    -0.305 OA
ATOM      7  C   UNL d   1      59.059  49.371  50.310  0.00  0.00     0.126 A 
ATOM      8  C   UNL d   1      60.387  49.378  52.422  0.00  0.00     0.009 A 
ATOM      9  C   UNL d   1      61.561  49.049  51.680  0.00  0.00     0.199 A 
ATOM     10  O   UNL d   1      58.756  49.708  52.456  0.00  0.00    -0.284 OA
ATOM     11  C   UNL d   1      61.193  49.214  52.400  0.00  0.00     0.042 A 
ATOM     12  O   UNL d   1      62.369  48.885  51.658  0.00  0.00    -0.286 OA
ATOM     13  C   UNL d   1      58.621  49.369  49.613  0.00  0.00     0.029 C 
ENDROOT
BRANCH   1  14
ATOM     14  O   UNL d   1      57.879  49.702  51.054  0.00  0.00    -0.300 OA
BRANCH  14  15
ATOM     15  C   UNL d   1      57.409  49.539  50.398  0.00  0.00     0.122 A 
ATOM     16  C   UNL d   1      56.651  49.229  50.508  0.00  0.00     0.117 A 
ATOM     17  C   UNL d   1      56.179  49.065  49.856  0.00  0.00     0.026 A 
ATOM     18  C   UNL d   1      56.458  49.209  49.093  0.00  0.00     0.002 A 
ATOM     19  C   UNL d   1      57.223  49.522  48.989  0.00  0.00     0.002 A 
ATOM     20  C   UNL d   1      57.692  49.684  49.645  0.00  0.00     0.027 A 
BRANCH  16  21
ATOM     21  O   UNL d   1      56.371  49.085  51.262  0.00  0.00    -0.326 OA
ATOM     22  C   UNL d   1      56.033  48.354  51.450  0.00  0.00     0.181 C 
ENDBRANCH  16  21
ENDBRANCH  14  15
ENDBRANCH   1  14
BRANCH   5  23
ATOM     23  C   UNL d   1      61.490  48.882  50.268  0.00  0.00     0.086 C 
BRANCH  23  24
ATOM     24  N   UNL d   1      61.640  48.097  50.052  0.00  0.00    -0.300 N 
ATOM     25  C   UNL d   1      62.269  47.927  49.546  0.00  0.00     0.100 A 
ATOM     26  C   UNL d   1      62.419  47.146  49.330  0.00  0.00     0.100 A 
ATOM     27  N   UNL d   1      61.941  46.538  49.620  0.00  0.00    -0.299 N 
ATOM     28  C   UNL d   1      61.314  46.713  50.126  0.00  0.00     0.100 A 
ATOM     29  C   UNL d   1      62.091  45.757  49.404  0.00  0.00     0.100 C 
ATOM     30  C   UNL d   1      61.164  47.496  50.342  0.00  0.00     0.100 A 
ENDBRANCH  23  24
ENDBRANCH   5  23
TORSDOF 5
ENDMDL
