MODEL 1
REMARK VINA RESULT:      29.0      0.000      0.000
REMARK  4 active torsions:
REMARK  status: ('A' for Active; 'I' for Inactive)
REMARK    1  A    between atoms: C_9  and  N_1 
REMARK    2  A    between atoms: C_2  and  N_5 
REMARK    3  A    between atoms: N_5  and  O_12 
REMARK    4  A    between atoms: O_12  and  C_16 
ROOT
ATOM      1  N   UNL d   1     -55.347 -99.353 -44.731  0.00  0.00    -0.126 NA
ENDROOT
BRANCH   1   2
ATOM      2  C   UNL d   1     -55.188-100.047 -44.315  0.00  0.00     0.108 A 
ATOM      3  C   UNL d   1     -55.357-100.785 -44.668  0.00  0.00     0.023 A 
ATOM      4  C   UNL d   1     -55.201-101.462 -44.262  0.00  0.00     0.044 A 
ATOM      5  C   UNL d   1     -55.700-100.825 -45.469  0.00  0.00     0.002 C 
ATOM      6  C   UNL d   1     -54.871-101.422 -43.490  0.00  0.00     0.196 A 
ATOM      7  C   UNL d   1     -54.715-100.693 -43.168  0.00  0.00     0.044 A 
ATOM      8  O   UNL d   1     -54.711-102.116 -43.074  0.00  0.00    -0.287 OA
ATOM      9  C   UNL d   1     -54.874 -99.999 -43.584  0.00  0.00     0.023 A 
ATOM     10  C   UNL d   1     -54.718 -99.325 -43.258  0.00  0.00     0.002 C 
ENDBRANCH   1   2
BRANCH   1  11
ATOM     11  O   UNL d   1     -55.787 -98.756 -44.400  0.00  0.00    -0.211 OA
BRANCH  11  12
ATOM     12  C   UNL d   1     -56.595 -98.776 -44.412  0.00  0.00     0.125 A 
ATOM     13  C   UNL d   1     -57.026 -98.817 -43.696  0.00  0.00     0.029 A 
ATOM     14  C   UNL d   1     -57.851 -98.836 -43.708  0.00  0.00     0.026 A 
ATOM     15  C   UNL d   1     -58.256 -98.816 -44.436  0.00  0.00     0.127 A 
ATOM     16  C   UNL d   1     -57.831 -98.775 -45.141  0.00  0.00     0.026 A 
ATOM     17  C   UNL d   1     -56.990 -98.755 -45.129  0.00  0.00     0.029 A 
BRANCH  15  18
ATOM     18  N   UNL d   1     -59.069 -98.835 -44.447  0.00  0.00    -0.114 N 
ATOM     19  O   UNL d   1     -59.561 -98.758 -43.791  0.00  0.00    -0.532 OA
ATOM     20  O   UNL d   1     -59.510 -98.936 -45.122  0.00  0.00    -0.532 OA
ENDBRANCH  15  18
ENDBRANCH  11  12
ENDBRANCH   1  11
TORSDOF 4
ENDMDL
MODEL 2
REMARK VINA RESULT:      30.4      3.062      4.902
REMARK  4 active torsions:
REMARK  status: ('A' for Active; 'I' for Inactive)
REMARK    1  A    between atoms: C_9  and  N_1 
REMARK    2  A    between atoms: C_2  and  N_5 
REMARK    3  A    between atoms: N_5  and  O_12 
REMARK    4  A    between atoms: O_12  and  C_16 
ROOT
ATOM      1  N   UNL d   1     -54.842-100.741 -41.861  0.00  0.00    -0.126 NA
ENDROOT
BRANCH   1   2
ATOM      2  C   UNL d   1     -54.810-100.503 -42.651  0.00  0.00     0.108 A 
ATOM      3  C   UNL d   1     -54.748-101.082 -43.250  0.00  0.00     0.023 A 
ATOM      4  C   UNL d   1     -54.716-100.851 -44.020  0.00  0.00     0.044 A 
ATOM      5  C   UNL d   1     -54.717-101.930 -43.047  0.00  0.00     0.002 C 
ATOM      6  C   UNL d   1     -54.745-100.034 -44.214  0.00  0.00     0.196 A 
ATOM      7  C   UNL d   1     -54.805 -99.490 -43.615  0.00  0.00     0.044 A 
ATOM      8  O   UNL d   1     -54.712 -99.797 -45.004  0.00  0.00    -0.287 OA
ATOM      9  C   UNL d   1     -54.838 -99.727 -42.825  0.00  0.00     0.023 A 
ATOM     10  C   UNL d   1     -54.895 -99.194 -42.279  0.00  0.00     0.002 C 
ENDBRANCH   1   2
BRANCH   1  11
ATOM     11  O   UNL d   1     -54.728-101.516 -41.650  0.00  0.00    -0.211 OA
BRANCH  11  12
ATOM     12  C   UNL d   1     -54.874-101.771 -40.897  0.00  0.00     0.125 A 
ATOM     13  C   UNL d   1     -55.186-102.535 -40.763  0.00  0.00     0.029 A 
ATOM     14  C   UNL d   1     -55.335-102.795 -39.995  0.00  0.00     0.026 A 
ATOM     15  C   UNL d   1     -55.174-102.294 -39.349  0.00  0.00     0.127 A 
ATOM     16  C   UNL d   1     -54.867-101.541 -39.480  0.00  0.00     0.026 A 
ATOM     17  C   UNL d   1     -54.715-101.276 -40.265  0.00  0.00     0.029 A 
BRANCH  15  18
ATOM     18  N   UNL d   1     -55.321-102.551 -38.591  0.00  0.00    -0.114 N 
ATOM     19  O   UNL d   1     -56.029-102.875 -38.322  0.00  0.00    -0.532 OA
ATOM     20  O   UNL d   1     -54.777-102.519 -37.988  0.00  0.00    -0.532 OA
ENDBRANCH  15  18
ENDBRANCH  11  12
ENDBRANCH   1  11
TORSDOF 4
ENDMDL
MODEL 3
REMARK VINA RESULT:      31.6      3.330      4.861
REMARK  4 active torsions:
REMARK  status: ('A' for Active; 'I' for Inactive)
REMARK    1  A    between atoms: C_9  and  N_1 
REMARK    2  A    between atoms: C_2  and  N_5 
REMARK    3  A    between atoms: N_5  and  O_12 
REMARK    4  A    between atoms: O_12  and  C_16 
ROOT
ATOM      1  N   UNL d   1     -54.837-101.278 -40.417  0.00  0.00    -0.126 NA
ENDROOT
BRANCH   1   2
ATOM      2  C   UNL d   1     -54.907-101.661 -39.690  0.00  0.00     0.108 A 
ATOM      3  C   UNL d   1     -54.981-101.207 -38.992  0.00  0.00     0.023 A 
ATOM      4  C   UNL d   1     -55.049-101.580 -38.284  0.00  0.00     0.044 A 
ATOM      5  C   UNL d   1     -54.984-100.335 -39.029  0.00  0.00     0.002 C 
ATOM      6  C   UNL d   1     -55.046-102.420 -38.249  0.00  0.00     0.196 A 
ATOM      7  C   UNL d   1     -54.973-102.841 -38.940  0.00  0.00     0.044 A 
ATOM      8  O   UNL d   1     -55.116-102.803 -37.522  0.00  0.00    -0.287 OA
ATOM      9  C   UNL d   1     -54.903-102.457 -39.667  0.00  0.00     0.023 A 
ATOM     10  C   UNL d   1     -54.836-102.877 -40.304  0.00  0.00     0.002 C 
ENDBRANCH   1   2
BRANCH   1  11
ATOM     11  O   UNL d   1     -54.712-101.697 -41.102  0.00  0.00    -0.211 OA
BRANCH  11  12
ATOM     12  C   UNL d   1     -54.736-101.334 -41.824  0.00  0.00     0.125 A 
ATOM     13  C   UNL d   1     -54.774-101.790 -42.523  0.00  0.00     0.029 A 
ATOM     14  C   UNL d   1     -54.799-101.419 -43.260  0.00  0.00     0.026 A 
ATOM     15  C   UNL d   1     -54.786-100.588 -43.308  0.00  0.00     0.127 A 
ATOM     16  C   UNL d   1     -54.748-100.138 -42.618  0.00  0.00     0.026 A 
ATOM     17  C   UNL d   1     -54.723-100.516 -41.866  0.00  0.00     0.029 A 
BRANCH  15  18
ATOM     18  N   UNL d   1     -54.810-100.223 -44.035  0.00  0.00    -0.114 N 
ATOM     19  O   UNL d   1     -54.821 -99.409 -44.163  0.00  0.00    -0.532 OA
ATOM     20  O   UNL d   1     -54.827-100.622 -44.742  0.00  0.00    -0.532 OA
ENDBRANCH  15  18
ENDBRANCH  11  12
ENDBRANCH   1  11
TORSDOF 4
ENDMDL
