MODEL 1
REMARK VINA RESULT:      25.3      0.000      0.000
REMARK  2 active torsions:
REMARK  status: ('A' for Active; 'I' for Inactive)
REMARK    1  A    between atoms: C_10  and  N_1 
REMARK    2  A    between atoms: C_13  and  C_10 
ROOT
ATOM      1  N   UNL d   1      45.290 -14.066  44.720  0.00  0.00    -0.260 N 
ATOM      2  C   UNL d   1      44.697 -14.618  44.831  0.00  0.00     0.174 A 
ATOM      3  C   UNL d   1      46.101 -14.105  44.619  0.00  0.00     0.348 A 
ATOM      4  N   UNL d   1      46.646 -14.701  44.587  0.00  0.00    -0.216 NA
ATOM      5  C   UNL d   1      46.614 -15.522  44.644  0.00  0.00     0.137 A 
ATOM      6  O   UNL d   1      44.661 -15.429  44.888  0.00  0.00    -0.316 OA
ATOM      7  C   UNL d   1      45.845 -14.762  44.694  0.00  0.00     0.079 A 
ATOM      8  C   UNL d   1      46.021 -16.064  44.754  0.00  0.00     0.022 A 
ATOM      9  C   UNL d   1      45.218 -16.026  44.855  0.00  0.00     0.094 A 
ATOM     10  O   UNL d   1      46.432 -13.373  44.530  0.00  0.00    -0.245 OA
ATOM     11  C   UNL d   1      43.903 -14.422  44.921  0.00  0.00     0.055 C 
ATOM     12  C   UNL d   1      46.409 -16.784  44.751  0.00  0.00    -0.001 A 
ATOM     13  C   UNL d   1      44.791 -16.725  44.954  0.00  0.00     0.024 A 
ATOM     14  C   UNL d   1      45.982 -17.474  44.849  0.00  0.00    -0.000 A 
ATOM     15  C   UNL d   1      45.171 -17.444  44.951  0.00  0.00     0.002 A 
ENDROOT
BRANCH   1  16
ATOM     16  C   UNL d   1      45.195 -13.238  44.679  0.00  0.00     0.082 C 
BRANCH  16  17
ATOM     17  C   UNL d   1      45.123 -12.861  43.920  0.00  0.00     0.017 A 
ATOM     18  C   UNL d   1      44.389 -12.882  43.505  0.00  0.00     0.002 A 
ATOM     19  C   UNL d   1      44.317 -12.506  42.745  0.00  0.00     0.000 A 
ATOM     20  C   UNL d   1      44.982 -12.111  42.405  0.00  0.00     0.000 A 
ATOM     21  C   UNL d   1      45.728 -12.089  42.825  0.00  0.00     0.000 A 
ATOM     22  C   UNL d   1      45.789 -12.467  43.580  0.00  0.00     0.002 A 
ENDBRANCH  16  17
ENDBRANCH   1  16
TORSDOF 2
ENDMDL
MODEL 2
REMARK VINA RESULT:      26.6      2.968      4.502
REMARK  2 active torsions:
REMARK  status: ('A' for Active; 'I' for Inactive)
REMARK    1  A    between atoms: C_10  and  N_1 
REMARK    2  A    between atoms: C_13  and  C_10 
ROOT
ATOM      1  N   UNL d   1      46.386 -18.150  43.834  0.00  0.00    -0.260 N 
ATOM      2  C   UNL d   1      46.458 -17.845  43.079  0.00  0.00     0.174 A 
ATOM      3  C   UNL d   1      46.346 -18.904  44.150  0.00  0.00     0.348 A 
ATOM      4  N   UNL d   1      46.359 -19.653  43.845  0.00  0.00    -0.216 NA
ATOM      5  C   UNL d   1      46.420 -19.973  43.089  0.00  0.00     0.137 A 
ATOM      6  O   UNL d   1      46.518 -18.158  42.330  0.00  0.00    -0.316 OA
ATOM      7  C   UNL d   1      46.407 -18.951  43.444  0.00  0.00     0.079 A 
ATOM      8  C   UNL d   1      46.491 -19.664  42.342  0.00  0.00     0.022 A 
ATOM      9  C   UNL d   1      46.531 -18.918  42.030  0.00  0.00     0.094 A 
ATOM     10  O   UNL d   1      46.275 -18.893  44.954  0.00  0.00    -0.245 OA
ATOM     11  C   UNL d   1      46.486 -17.040  42.913  0.00  0.00     0.055 C 
ATOM     12  C   UNL d   1      46.522 -20.323  41.859  0.00  0.00    -0.001 A 
ATOM     13  C   UNL d   1      46.605 -18.827  41.213  0.00  0.00     0.024 A 
ATOM     14  C   UNL d   1      46.595 -20.228  41.051  0.00  0.00    -0.000 A 
ATOM     15  C   UNL d   1      46.636 -19.478  40.727  0.00  0.00     0.002 A 
ENDROOT
BRANCH   1  16
ATOM     16  C   UNL d   1      46.332 -17.711  44.542  0.00  0.00     0.082 C 
BRANCH  16  17
ATOM     17  C   UNL d   1      45.919 -16.967  44.543  0.00  0.00     0.017 A 
ATOM     18  C   UNL d   1      46.314 -16.265  44.292  0.00  0.00     0.002 A 
ATOM     19  C   UNL d   1      45.902 -15.520  44.292  0.00  0.00     0.000 A 
ATOM     20  C   UNL d   1      45.097 -15.484  44.545  0.00  0.00     0.000 A 
ATOM     21  C   UNL d   1      44.695 -16.196  44.800  0.00  0.00     0.000 A 
ATOM     22  C   UNL d   1      45.114 -16.931  44.796  0.00  0.00     0.002 A 
ENDBRANCH  16  17
ENDBRANCH   1  16
TORSDOF 2
ENDMDL
