MODEL 1
REMARK VINA RESULT:      -5.9      0.000      0.000
REMARK  4 active torsions:
REMARK  status: ('A' for Active; 'I' for Inactive)
REMARK    1  A    between atoms: C_5  and  S_1 
REMARK    2  A    between atoms: N_8  and  S_1 
REMARK    3  A    between atoms: C_6  and  C_14 
REMARK    4  A    between atoms: C_14  and  N_8 
ROOT
ATOM      1  N   UNL d   1     -41.483-122.886 -52.595  0.00  0.00    -0.155 NA
ENDROOT
BRANCH   1   2
ATOM      2  S   UNL d   1     -41.583-122.668 -53.379  0.00  0.00     0.291 S 
ATOM      3  O   UNL d   1     -41.875-123.431 -53.519  0.00  0.00    -0.198 OA
ATOM      4  O   UNL d   1     -41.292-121.912 -53.229  0.00  0.00    -0.198 OA
BRANCH   2   5
ATOM      5  C   UNL d   1     -41.688-122.449 -54.185  0.00  0.00     0.135 A 
ATOM      6  S   UNL d   1     -41.212-122.689 -54.815  0.00  0.00    -0.073 SA
ATOM      7  C   UNL d   1     -41.516-122.340 -55.521  0.00  0.00     0.036 A 
ATOM      8  C   UNL d   1     -42.184-121.883 -55.310  0.00  0.00     0.008 A 
ATOM      9  C   UNL d   1     -42.298-121.946 -54.480  0.00  0.00     0.020 A 
ENDBRANCH   2   5
ENDBRANCH   1   2
BRANCH   1  10
ATOM     10  C   UNL d   1     -41.524-122.319 -52.004  0.00  0.00     0.133 C 
BRANCH  10  11
ATOM     11  C   UNL d   1     -41.660-122.541 -51.226  0.00  0.00     0.121 A 
ATOM     12  N   UNL d   1     -42.348-122.413 -50.798  0.00  0.00    -0.219 NA
ATOM     13  C   UNL d   1     -42.245-122.724 -50.044  0.00  0.00     0.180 A 
ATOM     14  S   UNL d   1     -42.602-122.839 -49.314  0.00  0.00    -0.048 SA
ATOM     15  N   UNL d   1     -41.480-123.051 -50.004  0.00  0.00    -0.282 N 
ATOM     16  C   UNL d   1     -42.065-123.233 -48.826  0.00  0.00     0.057 A 
ATOM     17  C   UNL d   1     -41.381-123.359 -49.255  0.00  0.00     0.089 A 
ATOM     18  C   UNL d   1     -41.123-122.935 -50.739  0.00  0.00     0.103 A 
ENDBRANCH  10  11
ENDBRANCH   1  10
TORSDOF 4
ENDMDL
MODEL 2
REMARK VINA RESULT:      -5.5      1.230      4.456
REMARK  4 active torsions:
REMARK  status: ('A' for Active; 'I' for Inactive)
REMARK    1  A    between atoms: C_5  and  S_1 
REMARK    2  A    between atoms: N_8  and  S_1 
REMARK    3  A    between atoms: C_6  and  C_14 
REMARK    4  A    between atoms: C_14  and  N_8 
ROOT
ATOM      1  N   UNL d   1     -42.031-122.628 -51.525  0.00  0.00    -0.155 NA
ENDROOT
BRANCH   1   2
ATOM      2  S   UNL d   1     -41.933-122.819 -50.733  0.00  0.00     0.291 S 
ATOM      3  O   UNL d   1     -41.741-122.024 -50.600  0.00  0.00    -0.198 OA
ATOM      4  O   UNL d   1     -42.125-123.607 -50.878  0.00  0.00    -0.198 OA
BRANCH   2   5
ATOM      5  C   UNL d   1     -41.831-123.011 -49.921  0.00  0.00     0.135 A 
ATOM      6  S   UNL d   1     -42.405-122.936 -49.332  0.00  0.00    -0.073 SA
ATOM      7  C   UNL d   1     -42.067-123.189 -48.601  0.00  0.00     0.036 A 
ATOM      8  C   UNL d   1     -41.277-123.420 -48.755  0.00  0.00     0.008 A 
ATOM      9  C   UNL d   1     -41.123-123.312 -49.574  0.00  0.00     0.020 A 
ENDBRANCH   2   5
ENDBRANCH   1   2
BRANCH   1  10
ATOM     10  C   UNL d   1     -41.381-122.603 -52.025  0.00  0.00     0.133 C 
BRANCH  10  11
ATOM     11  C   UNL d   1     -41.484-122.524 -52.834  0.00  0.00     0.121 A 
ATOM     12  N   UNL d   1     -41.962-121.974 -53.210  0.00  0.00    -0.219 NA
ATOM     13  C   UNL d   1     -41.902-122.090 -54.022  0.00  0.00     0.180 A 
ATOM     14  S   UNL d   1     -42.157-121.826 -54.756  0.00  0.00    -0.048 SA
ATOM     15  N   UNL d   1     -41.378-122.725 -54.151  0.00  0.00    -0.282 N 
ATOM     16  C   UNL d   1     -41.795-122.291 -55.334  0.00  0.00     0.057 A 
ATOM     17  C   UNL d   1     -41.320-122.839 -54.957  0.00  0.00     0.089 A 
ATOM     18  C   UNL d   1     -41.123-122.989 -53.412  0.00  0.00     0.103 A 
ENDBRANCH  10  11
ENDBRANCH   1  10
TORSDOF 4
ENDMDL
MODEL 3
REMARK VINA RESULT:      -4.8      0.928      1.339
REMARK  4 active torsions:
REMARK  status: ('A' for Active; 'I' for Inactive)
REMARK    1  A    between atoms: C_5  and  S_1 
REMARK    2  A    between atoms: N_8  and  S_1 
REMARK    3  A    between atoms: C_6  and  C_14 
REMARK    4  A    between atoms: C_14  and  N_8 
ROOT
ATOM      1  N   UNL d   1     -41.297-122.885 -51.600  0.00  0.00    -0.155 NA
ENDROOT
BRANCH   1   2
ATOM      2  S   UNL d   1     -41.373-122.825 -52.414  0.00  0.00     0.291 S 
ATOM      3  O   UNL d   1     -41.123-122.038 -52.346  0.00  0.00    -0.198 OA
ATOM      4  O   UNL d   1     -41.621-123.609 -52.470  0.00  0.00    -0.198 OA
BRANCH   2   5
ATOM      5  C   UNL d   1     -41.449-122.759 -53.249  0.00  0.00     0.135 A 
ATOM      6  S   UNL d   1     -41.168-123.303 -53.803  0.00  0.00    -0.073 SA
ATOM      7  C   UNL d   1     -41.364-123.019 -54.573  0.00  0.00     0.036 A 
ATOM      8  C   UNL d   1     -41.770-122.293 -54.479  0.00  0.00     0.008 A 
ATOM      9  C   UNL d   1     -41.827-122.125 -53.658  0.00  0.00     0.020 A 
ENDBRANCH   2   5
ENDBRANCH   1   2
BRANCH   1  10
ATOM     10  C   UNL d   1     -41.893-122.604 -51.110  0.00  0.00     0.133 C 
BRANCH  10  11
ATOM     11  C   UNL d   1     -41.895-122.792 -50.312  0.00  0.00     0.121 A 
ATOM     12  N   UNL d   1     -41.257-123.067 -49.878  0.00  0.00    -0.219 NA
ATOM     13  C   UNL d   1     -41.503-123.184 -49.101  0.00  0.00     0.180 A 
ATOM     14  S   UNL d   1     -41.265-123.424 -48.354  0.00  0.00    -0.048 SA
ATOM     15  N   UNL d   1     -42.308-122.976 -49.055  0.00  0.00    -0.282 N 
ATOM     16  C   UNL d   1     -41.915-123.367 -47.848  0.00  0.00     0.057 A 
ATOM     17  C   UNL d   1     -42.550-123.092 -48.284  0.00  0.00     0.089 A 
ATOM     18  C   UNL d   1     -42.545-122.734 -49.807  0.00  0.00     0.103 A 
ENDBRANCH  10  11
ENDBRANCH   1  10
TORSDOF 4
ENDMDL
MODEL 4
REMARK VINA RESULT:      -3.6      1.421      4.523
REMARK  4 active torsions:
REMARK  status: ('A' for Active; 'I' for Inactive)
REMARK    1  A    between atoms: C_5  and  S_1 
REMARK    2  A    between atoms: N_8  and  S_1 
REMARK    3  A    between atoms: C_6  and  C_14 
REMARK    4  A    between atoms: C_14  and  N_8 
ROOT
ATOM      1  N   UNL d   1     -42.137-122.553 -50.781  0.00  0.00    -0.155 NA
ENDROOT
BRANCH   1   2
ATOM      2  S   UNL d   1     -42.164-122.820 -50.006  0.00  0.00     0.291 S 
ATOM      3  O   UNL d   1     -41.369-123.040 -50.089  0.00  0.00    -0.198 OA
ATOM      4  O   UNL d   1     -42.954-122.598 -49.934  0.00  0.00    -0.198 OA
BRANCH   2   5
ATOM      5  C   UNL d   1     -42.187-123.095 -49.211  0.00  0.00     0.135 A 
ATOM      6  S   UNL d   1     -41.591-122.993 -48.648  0.00  0.00    -0.073 SA
ATOM      7  C   UNL d   1     -41.845-123.355 -47.929  0.00  0.00     0.036 A 
ATOM      8  C   UNL d   1     -42.605-123.680 -48.063  0.00  0.00     0.008 A 
ATOM      9  C   UNL d   1     -42.824-123.522 -48.859  0.00  0.00     0.020 A 
ENDBRANCH   2   5
ENDBRANCH   1   2
BRANCH   1  10
ATOM     10  C   UNL d   1     -41.447-122.628 -51.218  0.00  0.00     0.133 C 
BRANCH  10  11
ATOM     11  C   UNL d   1     -41.458-122.515 -52.030  0.00  0.00     0.121 A 
ATOM     12  N   UNL d   1     -41.550-121.798 -52.418  0.00  0.00    -0.219 NA
ATOM     13  C   UNL d   1     -41.527-121.938 -53.228  0.00  0.00     0.180 A 
ATOM     14  S   UNL d   1     -41.569-121.587 -53.968  0.00  0.00    -0.048 SA
ATOM     15  N   UNL d   1     -41.418-122.756 -53.343  0.00  0.00    -0.282 N 
ATOM     16  C   UNL d   1     -41.487-122.179 -54.537  0.00  0.00     0.057 A 
ATOM     17  C   UNL d   1     -41.395-122.892 -54.148  0.00  0.00     0.089 A 
ATOM     18  C   UNL d   1     -41.376-123.108 -52.598  0.00  0.00     0.103 A 
ENDBRANCH  10  11
ENDBRANCH   1  10
TORSDOF 4
ENDMDL
