MODEL 1
REMARK VINA RESULT:      -3.2      0.000      0.000
REMARK  6 active torsions:
REMARK  status: ('A' for Active; 'I' for Inactive)
REMARK    1  A    between atoms: C_7  and  C_4 
REMARK    2  A    between atoms: O_17  and  C_6 
REMARK    3  A    between atoms: C_8  and  C_7 
REMARK    4  A    between atoms: C_12  and  C_8 
REMARK    5  A    between atoms: O_21  and  C_11 
REMARK    6  A    between atoms: O_22  and  C_18 
ROOT
ATOM      1  C   UNL d   1      33.014  21.779 -22.275  0.00  0.00     0.090 A 
ATOM      2  C   UNL d   1      33.147  21.876 -23.080  0.00  0.00     0.302 A 
ATOM      3  O   UNL d   1      33.241  21.138 -23.351  0.00  0.00    -0.273 OA
ATOM      4  C   UNL d   1      33.174  20.613 -22.769  0.00  0.00     0.107 A 
ATOM      5  C   UNL d   1      33.030  21.001 -22.081  0.00  0.00     0.030 A 
ATOM      6  C   UNL d   1      32.873  22.361 -21.677  0.00  0.00     0.121 A 
ATOM      7  C   UNL d   1      32.911  20.759 -21.308  0.00  0.00     0.004 A 
ATOM      8  O   UNL d   1      33.176  22.610 -23.517  0.00  0.00    -0.259 OA
ATOM      9  C   UNL d   1      32.754  22.104 -20.896  0.00  0.00     0.117 A 
ATOM     10  C   UNL d   1      32.774  21.326 -20.724  0.00  0.00     0.026 A 
ENDROOT
BRANCH   4  11
ATOM     11  C   UNL d   1      33.241  19.779 -22.851  0.00  0.00     0.067 C 
BRANCH  11  12
ATOM     12  C   UNL d   1      33.065  19.350 -23.538  0.00  0.00     0.198 C 
ATOM     13  O   UNL d   1      33.222  19.772 -24.280  0.00  0.00    -0.286 OA
BRANCH  12  14
ATOM     14  C   UNL d   1      32.786  18.638 -23.558  0.00  0.00     0.039 A 
ATOM     15  C   UNL d   1      32.330  18.428 -24.173  0.00  0.00     0.005 A 
ATOM     16  C   UNL d   1      32.024  17.650 -24.196  0.00  0.00     0.024 A 
ATOM     17  C   UNL d   1      32.159  17.050 -23.610  0.00  0.00     0.094 A 
ATOM     18  C   UNL d   1      32.649  17.315 -22.975  0.00  0.00     0.024 A 
ATOM     19  C   UNL d   1      32.918  18.053 -22.986  0.00  0.00     0.005 A 
BRANCH  17  20
ATOM     20  O   UNL d   1      31.851  16.296 -23.652  0.00  0.00    -0.328 OA
ATOM     21  C   UNL d   1      30.994  16.085 -24.041  0.00  0.00     0.181 C 
ENDBRANCH  17  20
ENDBRANCH  12  14
ENDBRANCH  11  12
ENDBRANCH   4  11
BRANCH   6  22
ATOM     22  O   UNL d   1      32.851  23.156 -21.840  0.00  0.00    -0.326 OA
ATOM     23  C   UNL d   1      32.187  23.567 -21.714  0.00  0.00     0.181 C 
ENDBRANCH   6  22
BRANCH   9  24
ATOM     24  O   UNL d   1      32.613  22.626 -20.270  0.00  0.00    -0.326 OA
ATOM     25  C   UNL d   1      33.006  22.549 -19.570  0.00  0.00     0.181 C 
ENDBRANCH   9  24
TORSDOF 6
ENDMDL
MODEL 2
REMARK VINA RESULT:      -2.6      0.746      4.930
REMARK  6 active torsions:
REMARK  status: ('A' for Active; 'I' for Inactive)
REMARK    1  A    between atoms: C_7  and  C_4 
REMARK    2  A    between atoms: O_17  and  C_6 
REMARK    3  A    between atoms: C_8  and  C_7 
REMARK    4  A    between atoms: C_12  and  C_8 
REMARK    5  A    between atoms: O_21  and  C_11 
REMARK    6  A    between atoms: O_22  and  C_18 
ROOT
ATOM      1  C   UNL d   1      32.694  18.420 -23.801  0.00  0.00     0.090 A 
ATOM      2  C   UNL d   1      32.527  19.052 -24.299  0.00  0.00     0.302 A 
ATOM      3  O   UNL d   1      32.716  19.691 -23.872  0.00  0.00    -0.273 OA
ATOM      4  C   UNL d   1      32.981  19.485 -23.160  0.00  0.00     0.107 A 
ATOM      5  C   UNL d   1      32.974  18.685 -23.098  0.00  0.00     0.030 A 
ATOM      6  C   UNL d   1      32.610  17.589 -23.936  0.00  0.00     0.121 A 
ATOM      7  C   UNL d   1      33.182  18.161 -22.504  0.00  0.00     0.004 A 
ATOM      8  O   UNL d   1      32.220  19.018 -25.097  0.00  0.00    -0.259 OA
ATOM      9  C   UNL d   1      32.824  17.066 -23.327  0.00  0.00     0.117 A 
ATOM     10  C   UNL d   1      33.100  17.351 -22.635  0.00  0.00     0.026 A 
ENDROOT
BRANCH   4  11
ATOM     11  C   UNL d   1      33.232  20.017 -22.559  0.00  0.00     0.067 C 
BRANCH  11  12
ATOM     12  C   UNL d   1      33.146  20.842 -22.582  0.00  0.00     0.198 C 
ATOM     13  O   UNL d   1      33.238  21.194 -23.369  0.00  0.00    -0.286 OA
BRANCH  12  14
ATOM     14  C   UNL d   1      32.998  21.290 -21.981  0.00  0.00     0.039 A 
ATOM     15  C   UNL d   1      32.914  22.069 -22.102  0.00  0.00     0.005 A 
ATOM     16  C   UNL d   1      32.752  22.561 -21.445  0.00  0.00     0.024 A 
ATOM     17  C   UNL d   1      32.666  22.298 -20.642  0.00  0.00     0.094 A 
ATOM     18  C   UNL d   1      32.763  21.463 -20.558  0.00  0.00     0.024 A 
ATOM     19  C   UNL d   1      32.915  21.032 -21.197  0.00  0.00     0.005 A 
BRANCH  17  20
ATOM     20  O   UNL d   1      32.508  22.794 -20.015  0.00  0.00    -0.328 OA
ATOM     21  C   UNL d   1      33.026  22.815 -19.201  0.00  0.00     0.181 C 
ENDBRANCH  17  20
ENDBRANCH  12  14
ENDBRANCH  11  12
ENDBRANCH   4  11
BRANCH   6  22
ATOM     22  O   UNL d   1      32.330  17.288 -24.636  0.00  0.00    -0.326 OA
ATOM     23  C   UNL d   1      31.700  16.809 -24.637  0.00  0.00     0.181 C 
ENDBRANCH   6  22
BRANCH   9  24
ATOM     24  O   UNL d   1      32.764  16.245 -23.401  0.00  0.00    -0.326 OA
ATOM     25  C   UNL d   1      32.942  15.759 -22.782  0.00  0.00     0.181 C 
ENDBRANCH   9  24
TORSDOF 6
ENDMDL
MODEL 3
REMARK VINA RESULT:      -0.5      1.604      5.194
REMARK  6 active torsions:
REMARK  status: ('A' for Active; 'I' for Inactive)
REMARK    1  A    between atoms: C_7  and  C_4 
REMARK    2  A    between atoms: O_17  and  C_6 
REMARK    3  A    between atoms: C_8  and  C_7 
REMARK    4  A    between atoms: C_12  and  C_8 
REMARK    5  A    between atoms: O_21  and  C_11 
REMARK    6  A    between atoms: O_22  and  C_18 
ROOT
ATOM      1  C   UNL d   1      30.410  17.405 -24.230  0.00  0.00     0.090 A 
ATOM      2  C   UNL d   1      30.382  18.100 -24.666  0.00  0.00     0.302 A 
ATOM      3  O   UNL d   1      31.110  18.404 -24.595  0.00  0.00    -0.273 OA
ATOM      4  C   UNL d   1      31.565  17.942 -24.150  0.00  0.00     0.107 A 
ATOM      5  C   UNL d   1      31.139  17.305 -23.911  0.00  0.00     0.030 A 
ATOM      6  C   UNL d   1      29.806  16.829 -24.091  0.00  0.00     0.121 A 
ATOM      7  C   UNL d   1      31.309  16.651 -23.449  0.00  0.00     0.004 A 
ATOM      8  O   UNL d   1      29.714  18.417 -25.097  0.00  0.00    -0.259 OA
ATOM      9  C   UNL d   1      29.989  16.169 -23.622  0.00  0.00     0.117 A 
ATOM     10  C   UNL d   1      30.720  16.089 -23.313  0.00  0.00     0.026 A 
ENDROOT
BRANCH   4  11
ATOM     11  C   UNL d   1      32.370  18.089 -23.956  0.00  0.00     0.067 C 
BRANCH  11  12
ATOM     12  C   UNL d   1      32.721  18.838 -23.903  0.00  0.00     0.198 C 
ATOM     13  O   UNL d   1      32.959  19.181 -24.664  0.00  0.00    -0.286 OA
BRANCH  12  14
ATOM     14  C   UNL d   1      32.841  19.228 -23.257  0.00  0.00     0.039 A 
ATOM     15  C   UNL d   1      32.928  20.015 -23.301  0.00  0.00     0.005 A 
ATOM     16  C   UNL d   1      33.060  20.443 -22.594  0.00  0.00     0.024 A 
ATOM     17  C   UNL d   1      33.111  20.106 -21.817  0.00  0.00     0.094 A 
ATOM     18  C   UNL d   1      33.014  19.267 -21.815  0.00  0.00     0.024 A 
ATOM     19  C   UNL d   1      32.891  18.898 -22.498  0.00  0.00     0.005 A 
BRANCH  17  20
ATOM     20  O   UNL d   1      33.241  20.541 -21.139  0.00  0.00    -0.328 OA
ATOM     21  C   UNL d   1      32.548  21.016 -20.664  0.00  0.00     0.181 C 
ENDBRANCH  17  20
ENDBRANCH  12  14
ENDBRANCH  11  12
ENDBRANCH   4  11
BRANCH   6  22
ATOM     22  O   UNL d   1      29.058  16.900 -24.399  0.00  0.00    -0.326 OA
ATOM     23  C   UNL d   1      28.793  16.369 -24.922  0.00  0.00     0.181 C 
ENDBRANCH   6  22
BRANCH   9  24
ATOM     24  O   UNL d   1      29.440  15.575 -23.451  0.00  0.00    -0.326 OA
ATOM     25  C   UNL d   1      29.181  15.453 -22.697  0.00  0.00     0.181 C 
ENDBRANCH   9  24
TORSDOF 6
ENDMDL
