MODEL 1
REMARK VINA RESULT:      -4.4      0.000      0.000
REMARK  4 active torsions:
REMARK  status: ('A' for Active; 'I' for Inactive)
REMARK    1  A    between atoms: N_2  and  S_1 
REMARK    2  A    between atoms: C_6  and  S_1 
REMARK    3  A    between atoms: C_3  and  C_11 
REMARK       I    between atoms: N_4  and  C_3 
REMARK    4  A    between atoms: C_17  and  N_5 
ROOT
ATOM      1  C   UNL d   1     -47.801  13.327  22.867  0.00  0.00     0.104 A 
ATOM      2  C   UNL d   1     -46.378  12.449  22.983  0.00  0.00     0.057 A 
ATOM      3  C   UNL d   1     -47.151  13.617  23.327  0.00  0.00     0.013 A 
ATOM      4  C   UNL d   1     -47.701  12.613  22.491  0.00  0.00     0.013 A 
ATOM      5  C   UNL d   1     -46.454  13.193  23.387  0.00  0.00     0.005 A 
ATOM      6  C   UNL d   1     -46.997  12.186  22.553  0.00  0.00     0.005 A 
ENDROOT
BRANCH   2   7
ATOM      7  C   UNL d   1     -45.698  12.050  23.050  0.00  0.00     0.265 C 
ATOM      8  N   UNL d   1     -45.066  12.324  22.628  0.00  0.00    -0.269 N 
ATOM      9  C   UNL d   1     -44.365  11.915  22.696  0.00  0.00     0.102 A 
ATOM     10  C   UNL d   1     -45.100  12.992  22.139  0.00  0.00     0.102 A 
ATOM     11  C   UNL d   1     -43.688  12.156  22.283  0.00  0.00     0.100 A 
ATOM     12  N   UNL d   1     -43.736  12.813  21.807  0.00  0.00    -0.301 N 
ATOM     13  C   UNL d   1     -44.418  13.237  21.722  0.00  0.00     0.100 A 
ATOM     14  O   UNL d   1     -45.635  11.379  23.532  0.00  0.00    -0.267 OA
BRANCH  12  15
ATOM     15  C   UNL d   1     -43.063  13.051  21.399  0.00  0.00     0.064 A 
ATOM     16  C   UNL d   1     -42.374  13.285  21.780  0.00  0.00     0.018 A 
ATOM     17  C   UNL d   1     -41.720  13.516  21.382  0.00  0.00     0.002 A 
ATOM     18  C   UNL d   1     -41.742  13.518  20.538  0.00  0.00     0.000 A 
ATOM     19  C   UNL d   1     -42.410  13.291  20.178  0.00  0.00     0.002 A 
ATOM     20  C   UNL d   1     -43.083  13.053  20.587  0.00  0.00     0.018 A 
ENDBRANCH  12  15
ENDBRANCH   2   7
BRANCH   1  21
ATOM     21  S   UNL d   1     -48.485  13.747  22.811  0.00  0.00     0.271 S 
ATOM     22  O   UNL d   1     -48.829  13.275  23.367  0.00  0.00    -0.200 OA
ATOM     23  O   UNL d   1     -48.127  14.251  22.220  0.00  0.00    -0.200 OA
BRANCH  21  24
ATOM     24  N   UNL d   1     -49.194  14.181  22.753  0.00  0.00    -0.229 N 
ATOM     25  C   UNL d   1     -49.295  14.817  23.234  0.00  0.00     0.092 A 
ATOM     26  C   UNL d   1     -49.996  15.257  23.186  0.00  0.00     0.018 A 
ATOM     27  C   UNL d   1     -50.150  15.921  23.659  0.00  0.00     0.002 C 
ATOM     28  C   UNL d   1     -50.588  15.035  22.638  0.00  0.00     0.003 A 
ATOM     29  C   UNL d   1     -50.478  14.371  22.138  0.00  0.00     0.018 A 
ATOM     30  C   UNL d   1     -49.790  13.955  22.200  0.00  0.00     0.092 A 
ATOM     31  C   UNL d   1     -51.055  14.134  21.587  0.00  0.00     0.002 C 
ENDBRANCH  21  24
ENDBRANCH   1  21
TORSDOF 4
ENDMDL
MODEL 2
REMARK VINA RESULT:      -4.2      1.481      2.389
REMARK  4 active torsions:
REMARK  status: ('A' for Active; 'I' for Inactive)
REMARK    1  A    between atoms: N_2  and  S_1 
REMARK    2  A    between atoms: C_6  and  S_1 
REMARK    3  A    between atoms: C_3  and  C_11 
REMARK       I    between atoms: N_4  and  C_3 
REMARK    4  A    between atoms: C_17  and  N_5 
ROOT
ATOM      1  C   UNL d   1     -45.828  13.075  22.348  0.00  0.00     0.104 A 
ATOM      2  C   UNL d   1     -44.253  12.618  22.000  0.00  0.00     0.057 A 
ATOM      3  C   UNL d   1     -45.346  12.701  22.937  0.00  0.00     0.013 A 
ATOM      4  C   UNL d   1     -45.492  13.199  21.617  0.00  0.00     0.013 A 
ATOM      5  C   UNL d   1     -44.577  12.476  22.772  0.00  0.00     0.005 A 
ATOM      6  C   UNL d   1     -44.716  12.971  21.454  0.00  0.00     0.005 A 
ENDROOT
BRANCH   2   7
ATOM      7  C   UNL d   1     -43.507  12.395  21.856  0.00  0.00     0.265 C 
ATOM      8  N   UNL d   1     -43.004  12.957  21.567  0.00  0.00    -0.269 N 
ATOM      9  C   UNL d   1     -42.236  12.730  21.418  0.00  0.00     0.102 A 
ATOM     10  C   UNL d   1     -43.230  13.740  21.420  0.00  0.00     0.102 A 
ATOM     11  C   UNL d   1     -41.681  13.269  21.122  0.00  0.00     0.100 A 
ATOM     12  N   UNL d   1     -41.917  14.034  20.982  0.00  0.00    -0.301 N 
ATOM     13  C   UNL d   1     -42.672  14.285  21.121  0.00  0.00     0.100 A 
ATOM     14  O   UNL d   1     -43.252  11.619  21.994  0.00  0.00    -0.267 OA
BRANCH  12  15
ATOM     15  C   UNL d   1     -41.365  14.567  20.688  0.00  0.00     0.064 A 
ATOM     16  C   UNL d   1     -40.903  14.407  20.028  0.00  0.00     0.018 A 
ATOM     17  C   UNL d   1     -40.366  14.927  19.742  0.00  0.00     0.002 A 
ATOM     18  C   UNL d   1     -40.273  15.666  20.137  0.00  0.00     0.000 A 
ATOM     19  C   UNL d   1     -40.722  15.813  20.773  0.00  0.00     0.002 A 
ATOM     20  C   UNL d   1     -41.274  15.280  21.067  0.00  0.00     0.018 A 
ENDBRANCH  12  15
ENDBRANCH   2   7
BRANCH   1  21
ATOM     21  S   UNL d   1     -46.584  13.295  22.513  0.00  0.00     0.271 S 
ATOM     22  O   UNL d   1     -46.828  13.021  21.794  0.00  0.00    -0.200 OA
ATOM     23  O   UNL d   1     -46.332  13.587  23.276  0.00  0.00    -0.200 OA
BRANCH  21  24
ATOM     24  N   UNL d   1     -47.368  13.523  22.683  0.00  0.00    -0.229 N 
ATOM     25  C   UNL d   1     -47.575  14.291  22.575  0.00  0.00     0.092 A 
ATOM     26  C   UNL d   1     -48.352  14.530  22.741  0.00  0.00     0.018 A 
ATOM     27  C   UNL d   1     -48.618  15.311  22.647  0.00  0.00     0.002 C 
ATOM     28  C   UNL d   1     -48.908  13.969  23.017  0.00  0.00     0.003 A 
ATOM     29  C   UNL d   1     -48.686  13.169  23.128  0.00  0.00     0.018 A 
ATOM     30  C   UNL d   1     -47.926  12.956  22.961  0.00  0.00     0.092 A 
ATOM     31  C   UNL d   1     -49.224  12.595  23.401  0.00  0.00     0.002 C 
ENDBRANCH  21  24
ENDBRANCH   1  21
TORSDOF 4
ENDMDL
MODEL 3
REMARK VINA RESULT:      -4.0      2.756      6.820
REMARK  4 active torsions:
REMARK  status: ('A' for Active; 'I' for Inactive)
REMARK    1  A    between atoms: N_2  and  S_1 
REMARK    2  A    between atoms: C_6  and  S_1 
REMARK    3  A    between atoms: C_3  and  C_11 
REMARK       I    between atoms: N_4  and  C_3 
REMARK    4  A    between atoms: C_17  and  N_5 
ROOT
ATOM      1  C   UNL d   1     -41.767  13.813  20.714  0.00  0.00     0.104 A 
ATOM      2  C   UNL d   1     -42.881  12.821  21.479  0.00  0.00     0.057 A 
ATOM      3  C   UNL d   1     -41.718  13.671  21.549  0.00  0.00     0.013 A 
ATOM      4  C   UNL d   1     -42.373  13.450  20.311  0.00  0.00     0.013 A 
ATOM      5  C   UNL d   1     -42.259  13.187  21.927  0.00  0.00     0.005 A 
ATOM      6  C   UNL d   1     -42.917  12.963  20.694  0.00  0.00     0.005 A 
ENDROOT
BRANCH   2   7
ATOM      7  C   UNL d   1     -43.397  12.356  21.859  0.00  0.00     0.265 C 
ATOM      8  N   UNL d   1     -44.137  12.653  21.987  0.00  0.00    -0.269 N 
ATOM      9  C   UNL d   1     -44.669  12.177  22.377  0.00  0.00     0.102 A 
ATOM     10  C   UNL d   1     -44.373  13.409  21.743  0.00  0.00     0.102 A 
ATOM     11  C   UNL d   1     -45.441  12.436  22.533  0.00  0.00     0.100 A 
ATOM     12  N   UNL d   1     -45.659  13.180  22.287  0.00  0.00    -0.301 N 
ATOM     13  C   UNL d   1     -45.150  13.672  21.899  0.00  0.00     0.100 A 
ATOM     14  O   UNL d   1     -43.189  11.596  22.115  0.00  0.00    -0.267 OA
BRANCH  12  15
ATOM     15  C   UNL d   1     -46.424  13.435  22.443  0.00  0.00     0.064 A 
ATOM     16  C   UNL d   1     -47.088  13.015  22.203  0.00  0.00     0.018 A 
ATOM     17  C   UNL d   1     -47.833  13.264  22.355  0.00  0.00     0.002 A 
ATOM     18  C   UNL d   1     -47.937  13.986  22.777  0.00  0.00     0.000 A 
ATOM     19  C   UNL d   1     -47.292  14.386  23.005  0.00  0.00     0.002 A 
ATOM     20  C   UNL d   1     -46.526  14.131  22.850  0.00  0.00     0.018 A 
ENDBRANCH  12  15
ENDBRANCH   2   7
BRANCH   1  21
ATOM     21  S   UNL d   1     -41.234  14.289  20.345  0.00  0.00     0.271 S 
ATOM     22  O   UNL d   1     -41.050  13.696  19.831  0.00  0.00    -0.200 OA
ATOM     23  O   UNL d   1     -41.424  14.923  20.888  0.00  0.00    -0.200 OA
BRANCH  21  24
ATOM     24  N   UNL d   1     -40.681  14.782  19.963  0.00  0.00    -0.229 N 
ATOM     25  C   UNL d   1     -39.984  14.934  20.331  0.00  0.00     0.092 A 
ATOM     26  C   UNL d   1     -39.425  15.423  19.961  0.00  0.00     0.018 A 
ATOM     27  C   UNL d   1     -38.690  15.612  20.298  0.00  0.00     0.002 C 
ATOM     28  C   UNL d   1     -39.595  15.750  19.210  0.00  0.00     0.003 A 
ATOM     29  C   UNL d   1     -40.324  15.588  18.829  0.00  0.00     0.018 A 
ATOM     30  C   UNL d   1     -40.854  15.111  19.205  0.00  0.00     0.092 A 
ATOM     31  C   UNL d   1     -40.511  15.904  18.082  0.00  0.00     0.002 C 
ENDBRANCH  21  24
ENDBRANCH   1  21
TORSDOF 4
ENDMDL
MODEL 4
REMARK VINA RESULT:      -3.0      5.029      9.098
REMARK  4 active torsions:
REMARK  status: ('A' for Active; 'I' for Inactive)
REMARK    1  A    between atoms: N_2  and  S_1 
REMARK    2  A    between atoms: C_6  and  S_1 
REMARK    3  A    between atoms: C_3  and  C_11 
REMARK       I    between atoms: N_4  and  C_3 
REMARK    4  A    between atoms: C_17  and  N_5 
ROOT
ATOM      1  C   UNL d   1     -39.353  14.911  18.142  0.00  0.00     0.104 A 
ATOM      2  C   UNL d   1     -40.076  15.136  19.637  0.00  0.00     0.057 A 
ATOM      3  C   UNL d   1     -38.998  14.597  18.846  0.00  0.00     0.013 A 
ATOM      4  C   UNL d   1     -40.050  15.320  18.229  0.00  0.00     0.013 A 
ATOM      5  C   UNL d   1     -39.347  14.704  19.578  0.00  0.00     0.005 A 
ATOM      6  C   UNL d   1     -40.401  15.427  18.968  0.00  0.00     0.005 A 
ENDROOT
BRANCH   2   7
ATOM      7  C   UNL d   1     -40.402  15.232  20.353  0.00  0.00     0.265 C 
ATOM      8  N   UNL d   1     -40.981  14.710  20.566  0.00  0.00    -0.269 N 
ATOM      9  C   UNL d   1     -41.318  14.806  21.302  0.00  0.00     0.102 A 
ATOM     10  C   UNL d   1     -41.242  14.093  20.078  0.00  0.00     0.102 A 
ATOM     11  C   UNL d   1     -41.916  14.298  21.568  0.00  0.00     0.100 A 
ATOM     12  N   UNL d   1     -42.162  13.697  21.078  0.00  0.00    -0.301 N 
ATOM     13  C   UNL d   1     -41.845  13.580  20.345  0.00  0.00     0.100 A 
ATOM     14  O   UNL d   1     -40.161  15.839  20.861  0.00  0.00    -0.267 OA
BRANCH  12  15
ATOM     15  C   UNL d   1     -42.755  13.194  21.344  0.00  0.00     0.064 A 
ATOM     16  C   UNL d   1     -42.599  12.524  21.792  0.00  0.00     0.018 A 
ATOM     17  C   UNL d   1     -43.176  12.034  22.050  0.00  0.00     0.002 A 
ATOM     18  C   UNL d   1     -43.976  12.217  21.853  0.00  0.00     0.000 A 
ATOM     19  C   UNL d   1     -44.119  12.865  21.420  0.00  0.00     0.002 A 
ATOM     20  C   UNL d   1     -43.526  13.368  21.155  0.00  0.00     0.018 A 
ENDBRANCH  12  15
ENDBRANCH   2   7
BRANCH   1  21
ATOM     21  S   UNL d   1     -39.007  14.804  17.424  0.00  0.00     0.271 S 
ATOM     22  O   UNL d   1     -39.727  14.845  17.063  0.00  0.00    -0.200 OA
ATOM     23  O   UNL d   1     -38.240  14.760  17.800  0.00  0.00    -0.200 OA
BRANCH  21  24
ATOM     24  N   UNL d   1     -38.649  14.694  16.679  0.00  0.00    -0.229 N 
ATOM     25  C   UNL d   1     -38.487  13.944  16.440  0.00  0.00     0.092 A 
ATOM     26  C   UNL d   1     -38.131  13.821  15.700  0.00  0.00     0.018 A 
ATOM     27  C   UNL d   1     -37.943  13.068  15.406  0.00  0.00     0.002 C 
ATOM     28  C   UNL d   1     -37.947  14.477  15.215  0.00  0.00     0.003 A 
ATOM     29  C   UNL d   1     -38.118  15.256  15.469  0.00  0.00     0.018 A 
ATOM     30  C   UNL d   1     -38.464  15.356  16.191  0.00  0.00     0.092 A 
ATOM     31  C   UNL d   1     -37.942  15.922  15.001  0.00  0.00     0.002 C 
ENDBRANCH  21  24
ENDBRANCH   1  21
TORSDOF 4
ENDMDL
MODEL 5
REMARK VINA RESULT:      -2.8      1.475      2.395
REMARK  4 active torsions:
REMARK  status: ('A' for Active; 'I' for Inactive)
REMARK    1  A    between atoms: N_2  and  S_1 
REMARK    2  A    between atoms: C_6  and  S_1 
REMARK    3  A    between atoms: C_3  and  C_11 
REMARK       I    between atoms: N_4  and  C_3 
REMARK    4  A    between atoms: C_17  and  N_5 
ROOT
ATOM      1  C   UNL d   1     -47.706  13.959  22.366  0.00  0.00     0.104 A 
ATOM      2  C   UNL d   1     -46.058  13.652  22.359  0.00  0.00     0.057 A 
ATOM      3  C   UNL d   1     -47.349  13.529  21.728  0.00  0.00     0.013 A 
ATOM      4  C   UNL d   1     -47.216  14.210  22.964  0.00  0.00     0.013 A 
ATOM      5  C   UNL d   1     -46.545  13.377  21.720  0.00  0.00     0.005 A 
ATOM      6  C   UNL d   1     -46.406  14.055  22.954  0.00  0.00     0.005 A 
ENDROOT
BRANCH   2   7
ATOM      7  C   UNL d   1     -45.282  13.497  22.338  0.00  0.00     0.265 C 
ATOM      8  N   UNL d   1     -45.047  12.760  22.569  0.00  0.00    -0.269 N 
ATOM      9  C   UNL d   1     -44.249  12.598  22.548  0.00  0.00     0.102 A 
ATOM     10  C   UNL d   1     -45.573  12.171  22.822  0.00  0.00     0.102 A 
ATOM     11  C   UNL d   1     -43.957  11.856  22.775  0.00  0.00     0.100 A 
ATOM     12  N   UNL d   1     -44.485  11.289  23.021  0.00  0.00    -0.301 N 
ATOM     13  C   UNL d   1     -45.281  11.423  23.052  0.00  0.00     0.100 A 
ATOM     14  O   UNL d   1     -44.733  14.065  22.089  0.00  0.00    -0.267 OA
BRANCH  12  15
ATOM     15  C   UNL d   1     -44.193  10.554  23.246  0.00  0.00     0.064 A 
ATOM     16  C   UNL d   1     -44.677   9.899  23.349  0.00  0.00     0.018 A 
ATOM     17  C   UNL d   1     -44.393   9.184  23.568  0.00  0.00     0.002 A 
ATOM     18  C   UNL d   1     -43.563   9.104  23.698  0.00  0.00     0.000 A 
ATOM     19  C   UNL d   1     -43.103   9.741  23.597  0.00  0.00     0.002 A 
ATOM     20  C   UNL d   1     -43.395  10.476  23.372  0.00  0.00     0.018 A 
ENDBRANCH  12  15
ENDBRANCH   2   7
BRANCH   1  21
ATOM     21  S   UNL d   1     -48.497  14.107  22.371  0.00  0.00     0.271 S 
ATOM     22  O   UNL d   1     -48.648  13.333  22.539  0.00  0.00    -0.200 OA
ATOM     23  O   UNL d   1     -48.344  14.930  22.192  0.00  0.00    -0.200 OA
BRANCH  21  24
ATOM     24  N   UNL d   1     -49.316  14.260  22.376  0.00  0.00    -0.229 N 
ATOM     25  C   UNL d   1     -49.627  14.663  22.997  0.00  0.00     0.092 A 
ATOM     26  C   UNL d   1     -50.441  14.822  23.014  0.00  0.00     0.018 A 
ATOM     27  C   UNL d   1     -50.812  15.235  23.631  0.00  0.00     0.002 C 
ATOM     28  C   UNL d   1     -50.927  14.559  22.385  0.00  0.00     0.003 A 
ATOM     29  C   UNL d   1     -50.598  14.138  21.739  0.00  0.00     0.018 A 
ATOM     30  C   UNL d   1     -49.804  13.994  21.741  0.00  0.00     0.092 A 
ATOM     31  C   UNL d   1     -51.064  13.869  21.105  0.00  0.00     0.002 C 
ENDBRANCH  21  24
ENDBRANCH   1  21
TORSDOF 4
ENDMDL
