MODEL 1
REMARK VINA RESULT:      40.8      0.000      0.000
REMARK  6 active torsions:
REMARK  status: ('A' for Active; 'I' for Inactive)
REMARK    1  A    between atoms: C_2  and  C_1 
REMARK    2  A    between atoms: N_13  and  C_8 
REMARK    3  A    between atoms: C_12  and  C_20 
REMARK    4  A    between atoms: C_20  and  N_13 
REMARK    5  A    between atoms: O_21  and  C_16 
REMARK    6  A    between atoms: C_25  and  O_21 
ROOT
ATOM      1  C   UNL d   1      45.468 -16.994  38.765  0.00  0.00     0.089 A 
ATOM      2  C   UNL d   1      44.716 -17.193  38.494  0.00  0.00     0.302 A 
ATOM      3  O   UNL d   1      44.378 -16.774  37.858  0.00  0.00    -0.271 OA
ATOM      4  C   UNL d   1      45.886 -16.375  38.402  0.00  0.00     0.009 A 
ATOM      5  C   UNL d   1      44.800 -16.161  37.503  0.00  0.00     0.126 A 
ATOM      6  C   UNL d   1      45.552 -15.962  37.774  0.00  0.00     0.025 A 
ATOM      7  O   UNL d   1      44.281 -17.815  38.850  0.00  0.00    -0.259 OA
ATOM      8  C   UNL d   1      44.461 -15.748  36.873  0.00  0.00     0.123 A 
ATOM      9  C   UNL d   1      45.970 -15.349  37.417  0.00  0.00     0.002 A 
ATOM     10  C   UNL d   1      45.629 -14.931  36.781  0.00  0.00     0.002 A 
ATOM     11  C   UNL d   1      44.885 -15.128  36.512  0.00  0.00     0.027 A 
ENDROOT
BRANCH   1  12
ATOM     12  C   UNL d   1      45.802 -17.407  39.393  0.00  0.00     0.140 A 
ATOM     13  S   UNL d   1      45.535 -17.457  40.183  0.00  0.00    -0.026 SA
ATOM     14  C   UNL d   1      46.058 -17.938  40.600  0.00  0.00     0.216 A 
ATOM     15  N   UNL d   1      46.646 -18.185  40.066  0.00  0.00    -0.121 NA
ATOM     16  N   UNL d   1      46.487 -17.858  39.324  0.00  0.00    -0.139 NA
BRANCH  14  17
ATOM     17  N   UNL d   1      46.013 -18.143  41.398  0.00  0.00    -0.216 NA
BRANCH  17  18
ATOM     18  C   UNL d   1      46.584 -18.646  41.728  0.00  0.00     0.126 C 
BRANCH  18  19
ATOM     19  C   UNL d   1      46.483 -18.945  42.490  0.00  0.00     0.119 A 
ATOM     20  O   UNL d   1      46.348 -18.583  43.217  0.00  0.00    -0.304 OA
ATOM     21  C   UNL d   1      46.293 -19.168  43.790  0.00  0.00     0.123 A 
ATOM     22  C   UNL d   1      46.393 -19.893  43.428  0.00  0.00     0.029 A 
ATOM     23  C   UNL d   1      46.512 -19.763  42.618  0.00  0.00     0.028 A 
ENDBRANCH  18  19
ENDBRANCH  17  18
ENDBRANCH  14  17
ENDBRANCH   1  12
BRANCH   8  24
ATOM     24  O   UNL d   1      43.708 -15.953  36.607  0.00  0.00    -0.303 OA
BRANCH  24  25
ATOM     25  C   UNL d   1      43.118 -15.369  36.567  0.00  0.00     0.123 C 
ATOM     26  C   UNL d   1      42.356 -15.578  36.331  0.00  0.00     0.029 C 
ENDBRANCH  24  25
ENDBRANCH   8  24
TORSDOF 6
ENDMDL
MODEL 2
REMARK VINA RESULT:      42.0      4.379      5.414
REMARK  6 active torsions:
REMARK  status: ('A' for Active; 'I' for Inactive)
REMARK    1  A    between atoms: C_2  and  C_1 
REMARK    2  A    between atoms: N_13  and  C_8 
REMARK    3  A    between atoms: C_12  and  C_20 
REMARK    4  A    between atoms: C_20  and  N_13 
REMARK    5  A    between atoms: O_21  and  C_16 
REMARK    6  A    between atoms: C_25  and  O_21 
ROOT
ATOM      1  C   UNL d   1      45.773 -15.182  43.536  0.00  0.00     0.089 A 
ATOM      2  C   UNL d   1      45.428 -14.838  44.201  0.00  0.00     0.302 A 
ATOM      3  O   UNL d   1      45.262 -14.022  44.210  0.00  0.00    -0.271 OA
ATOM      4  C   UNL d   1      45.954 -14.711  42.877  0.00  0.00     0.009 A 
ATOM      5  C   UNL d   1      45.445 -13.561  43.550  0.00  0.00     0.126 A 
ATOM      6  C   UNL d   1      45.790 -13.905  42.885  0.00  0.00     0.025 A 
ATOM      7  O   UNL d   1      45.240 -15.300  44.875  0.00  0.00    -0.259 OA
ATOM      8  C   UNL d   1      45.280 -12.752  43.562  0.00  0.00     0.123 A 
ATOM      9  C   UNL d   1      45.971 -13.442  42.229  0.00  0.00     0.002 A 
ATOM     10  C   UNL d   1      45.804 -12.625  42.240  0.00  0.00     0.002 A 
ATOM     11  C   UNL d   1      45.463 -12.284  42.898  0.00  0.00     0.027 A 
ENDROOT
BRANCH   1  12
ATOM     12  C   UNL d   1      45.936 -15.987  43.528  0.00  0.00     0.140 A 
ATOM     13  S   UNL d   1      46.137 -16.470  42.877  0.00  0.00    -0.026 SA
ATOM     14  C   UNL d   1      46.248 -17.239  43.153  0.00  0.00     0.216 A 
ATOM     15  N   UNL d   1      46.115 -17.229  43.974  0.00  0.00    -0.121 NA
ATOM     16  N   UNL d   1      45.924 -16.458  44.203  0.00  0.00    -0.139 NA
BRANCH  14  17
ATOM     17  N   UNL d   1      46.452 -17.901  42.705  0.00  0.00    -0.216 NA
BRANCH  17  18
ATOM     18  C   UNL d   1      45.857 -18.398  42.408  0.00  0.00     0.126 C 
BRANCH  18  19
ATOM     19  C   UNL d   1      45.683 -19.109  42.789  0.00  0.00     0.119 A 
ATOM     20  O   UNL d   1      44.986 -19.420  43.097  0.00  0.00    -0.304 OA
ATOM     21  C   UNL d   1      45.151 -20.159  43.414  0.00  0.00     0.123 A 
ATOM     22  C   UNL d   1      45.947 -20.313  43.308  0.00  0.00     0.029 A 
ATOM     23  C   UNL d   1      46.285 -19.663  42.919  0.00  0.00     0.028 A 
ENDBRANCH  18  19
ENDBRANCH  17  18
ENDBRANCH  14  17
ENDBRANCH   1  12
BRANCH   8  24
ATOM     24  O   UNL d   1      44.934 -12.415  44.231  0.00  0.00    -0.303 OA
BRANCH  24  25
ATOM     25  C   UNL d   1      45.356 -12.411  44.947  0.00  0.00     0.123 C 
ATOM     26  C   UNL d   1      46.160 -12.227  44.943  0.00  0.00     0.029 C 
ENDBRANCH  24  25
ENDBRANCH   8  24
TORSDOF 6
ENDMDL
