MODEL 1
REMARK VINA RESULT:      76.0      0.000      0.000
REMARK  4 active torsions:
REMARK  status: ('A' for Active; 'I' for Inactive)
REMARK    1  A    between atoms: C_17  and  N_3 
REMARK    2  A    between atoms: C_9  and  C_5 
REMARK    3  A    between atoms: O_21  and  C_12 
REMARK    4  A    between atoms: C_19  and  C_17 
ROOT
ATOM      1  C   UNL d   1     -51.055  25.662  33.385  0.00  0.00     0.083 A 
ATOM      2  C   UNL d   1     -50.519  25.039  33.382  0.00  0.00     0.161 A 
ATOM      3  N   UNL d   1     -49.797  26.181  33.343  0.00  0.00    -0.272 N 
ATOM      4  C   UNL d   1     -49.753  25.349  33.356  0.00  0.00     0.288 A 
ATOM      5  C   UNL d   1     -50.603  26.386  33.361  0.00  0.00     0.072 A 
ATOM      6  C   UNL d   1     -51.868  25.524  33.410  0.00  0.00     0.201 A 
ATOM      7  O   UNL d   1     -50.809  24.256  33.404  0.00  0.00    -0.302 OA
ATOM      8  C   UNL d   1     -52.151  24.746  33.431  0.00  0.00     0.062 A 
ATOM      9  C   UNL d   1     -51.617  24.107  33.428  0.00  0.00     0.103 A 
ATOM     10  O   UNL d   1     -49.051  24.910  33.345  0.00  0.00    -0.264 OA
ATOM     11  O   UNL d   1     -52.397  26.158  33.412  0.00  0.00    -0.286 OA
ATOM     12  C   UNL d   1     -52.967  24.601  33.455  0.00  0.00     0.005 A 
ATOM     13  C   UNL d   1     -51.905  23.329  33.449  0.00  0.00     0.025 A 
ATOM     14  C   UNL d   1     -53.245  23.822  33.476  0.00  0.00     0.000 A 
ATOM     15  C   UNL d   1     -52.716  23.189  33.473  0.00  0.00     0.002 A 
ENDROOT
BRANCH   5  16
ATOM     16  C   UNL d   1     -50.913  27.148  33.355  0.00  0.00     0.019 A 
ATOM     17  C   UNL d   1     -51.723  27.260  33.375  0.00  0.00     0.029 A 
ATOM     18  C   UNL d   1     -52.044  28.016  33.370  0.00  0.00     0.133 A 
ATOM     19  C   UNL d   1     -51.541  28.669  33.345  0.00  0.00     0.218 A 
ATOM     20  C   UNL d   1     -50.717  28.558  33.326  0.00  0.00     0.044 A 
ATOM     21  O   UNL d   1     -51.851  29.434  33.340  0.00  0.00    -0.284 OA
ATOM     22  C   UNL d   1     -50.412  27.800  33.331  0.00  0.00     0.005 A 
BRANCH  18  23
ATOM     23  O   UNL d   1     -52.855  28.129  33.389  0.00  0.00    -0.325 OA
ATOM     24  C   UNL d   1     -53.363  27.477  33.451  0.00  0.00     0.181 C 
ENDBRANCH  18  23
ENDBRANCH   5  16
BRANCH   3  25
ATOM     25  C   UNL d   1     -49.165  26.709  33.317  0.00  0.00     0.083 C 
BRANCH  25  26
ATOM     26  C   UNL d   1     -48.661  26.783  33.964  0.00  0.00     0.019 C 
ATOM     27  C   UNL d   1     -48.182  27.449  34.040  0.00  0.00     0.002 C 
ENDBRANCH  25  26
ENDBRANCH   3  25
TORSDOF 4
ENDMDL
MODEL 2
REMARK VINA RESULT:      76.1      1.140      2.759
REMARK  4 active torsions:
REMARK  status: ('A' for Active; 'I' for Inactive)
REMARK    1  A    between atoms: C_17  and  N_3 
REMARK    2  A    between atoms: C_9  and  C_5 
REMARK    3  A    between atoms: O_21  and  C_12 
REMARK    4  A    between atoms: C_19  and  C_17 
ROOT
ATOM      1  C   UNL d   1     -51.509  25.948  33.590  0.00  0.00     0.083 A 
ATOM      2  C   UNL d   1     -52.283  26.189  33.456  0.00  0.00     0.161 A 
ATOM      3  N   UNL d   1     -51.534  27.309  33.569  0.00  0.00    -0.272 N 
ATOM      4  C   UNL d   1     -52.304  27.016  33.442  0.00  0.00     0.288 A 
ATOM      5  C   UNL d   1     -51.032  26.653  33.662  0.00  0.00     0.072 A 
ATOM      6  C   UNL d   1     -51.314  25.147  33.634  0.00  0.00     0.201 A 
ATOM      7  O   UNL d   1     -52.877  25.609  33.363  0.00  0.00    -0.302 OA
ATOM      8  C   UNL d   1     -51.906  24.576  33.540  0.00  0.00     0.062 A 
ATOM      9  C   UNL d   1     -52.694  24.809  33.404  0.00  0.00     0.103 A 
ATOM     10  O   UNL d   1     -52.977  27.483  33.322  0.00  0.00    -0.264 OA
ATOM     11  O   UNL d   1     -50.533  24.916  33.769  0.00  0.00    -0.286 OA
ATOM     12  C   UNL d   1     -51.716  23.770  33.583  0.00  0.00     0.005 A 
ATOM     13  C   UNL d   1     -53.284  24.233  33.311  0.00  0.00     0.025 A 
ATOM     14  C   UNL d   1     -52.312  23.203  33.489  0.00  0.00     0.000 A 
ATOM     15  C   UNL d   1     -53.092  23.433  33.354  0.00  0.00     0.002 A 
ENDROOT
BRANCH   5  16
ATOM     16  C   UNL d   1     -50.222  26.674  33.799  0.00  0.00     0.019 A 
ATOM     17  C   UNL d   1     -49.922  27.116  34.419  0.00  0.00     0.029 A 
ATOM     18  C   UNL d   1     -49.114  27.145  34.566  0.00  0.00     0.133 A 
ATOM     19  C   UNL d   1     -48.600  26.721  34.079  0.00  0.00     0.218 A 
ATOM     20  C   UNL d   1     -48.902  26.271  33.448  0.00  0.00     0.044 A 
ATOM     21  O   UNL d   1     -47.786  26.741  34.216  0.00  0.00    -0.284 OA
ATOM     22  C   UNL d   1     -49.707  26.252  33.315  0.00  0.00     0.005 A 
BRANCH  18  23
ATOM     23  O   UNL d   1     -48.815  27.587  35.186  0.00  0.00    -0.325 OA
ATOM     24  C   UNL d   1     -49.288  27.749  35.846  0.00  0.00     0.181 C 
ENDBRANCH  18  23
ENDBRANCH   5  16
BRANCH   3  25
ATOM     25  C   UNL d   1     -51.305  28.100  33.597  0.00  0.00     0.083 C 
BRANCH  25  26
ATOM     26  C   UNL d   1     -51.858  28.695  33.464  0.00  0.00     0.019 C 
ATOM     27  C   UNL d   1     -51.760  29.436  33.811  0.00  0.00     0.002 C 
ENDBRANCH  25  26
ENDBRANCH   3  25
TORSDOF 4
ENDMDL
