MODEL 1
REMARK VINA RESULT:      -8.2      0.000      0.000
REMARK  5 active torsions:
REMARK  status: ('A' for Active; 'I' for Inactive)
REMARK    1  A    between atoms: C_7  and  N_2 
REMARK    2  A    between atoms: C_14  and  C_7 
REMARK    3  A    between atoms: C_8  and  O_16 
REMARK    4  A    between atoms: C_18  and  C_14 
REMARK    5  A    between atoms: O_16  and  C_18 
ROOT
ATOM      1  C   UNL d   1      52.139  34.173  52.879  0.00  0.00     0.086 C 
ENDROOT
BRANCH   1   2
ATOM      2  N   UNL d   1      52.639  34.149  53.533  0.00  0.00    -0.268 N 
ATOM      3  C   UNL d   1      52.789  34.776  54.047  0.00  0.00     0.296 A 
ATOM      4  S   UNL d   1      53.325  34.505  54.625  0.00  0.00    -0.025 SA
ATOM      5  O   UNL d   1      52.471  35.535  54.007  0.00  0.00    -0.259 OA
ATOM      6  C   UNL d   1      53.496  33.715  54.455  0.00  0.00     0.050 A 
ATOM      7  C   UNL d   1      53.992  33.159  54.834  0.00  0.00     0.008 A 
ATOM      8  C   UNL d   1      53.077  33.493  53.786  0.00  0.00     0.073 A 
ATOM      9  C   UNL d   1      54.054  32.396  54.533  0.00  0.00     0.001 A 
ATOM     10  C   UNL d   1      53.627  32.181  53.856  0.00  0.00     0.002 A 
ATOM     11  C   UNL d   1      53.137  32.728  53.480  0.00  0.00     0.018 A 
ENDBRANCH   1   2
BRANCH   1  12
ATOM     12  C   UNL d   1      51.322  34.284  52.980  0.00  0.00     0.046 C 
BRANCH  12  13
ATOM     13  C   UNL d   1      50.792  34.076  52.384  0.00  0.00     0.124 C 
BRANCH  13  14
ATOM     14  O   UNL d   1      50.069  34.455  52.325  0.00  0.00    -0.305 OA
BRANCH  14  15
ATOM     15  C   UNL d   1      49.337  34.838  52.263  0.00  0.00     0.100 A 
ATOM     16  C   UNL d   1      48.915  34.773  51.573  0.00  0.00     0.025 A 
ATOM     17  C   UNL d   1      48.180  35.154  51.501  0.00  0.00     0.002 A 
ATOM     18  C   UNL d   1      47.886  35.597  52.135  0.00  0.00     0.000 A 
ATOM     19  C   UNL d   1      48.324  35.656  52.831  0.00  0.00     0.002 A 
ATOM     20  C   UNL d   1      47.162  35.975  52.071  0.00  0.00     0.000 C 
ATOM     21  C   UNL d   1      49.048  35.278  52.896  0.00  0.00     0.025 A 
ENDBRANCH  14  15
ENDBRANCH  13  14
ENDBRANCH  12  13
ENDBRANCH   1  12
TORSDOF 5
ENDMDL
MODEL 2
REMARK VINA RESULT:      -7.7      1.156      1.506
REMARK  5 active torsions:
REMARK  status: ('A' for Active; 'I' for Inactive)
REMARK    1  A    between atoms: C_7  and  N_2 
REMARK    2  A    between atoms: C_14  and  C_7 
REMARK    3  A    between atoms: C_8  and  O_16 
REMARK    4  A    between atoms: C_18  and  C_14 
REMARK    5  A    between atoms: O_16  and  C_18 
ROOT
ATOM      1  C   UNL d   1      52.519  33.565  52.672  0.00  0.00     0.086 C 
ENDROOT
BRANCH   1   2
ATOM      2  N   UNL d   1      52.921  33.058  53.180  0.00  0.00    -0.268 N 
ATOM      3  C   UNL d   1      52.971  32.239  53.102  0.00  0.00     0.296 A 
ATOM      4  S   UNL d   1      53.430  31.953  53.736  0.00  0.00    -0.025 SA
ATOM      5  O   UNL d   1      52.632  31.777  52.510  0.00  0.00    -0.259 OA
ATOM      6  C   UNL d   1      53.655  32.603  54.193  0.00  0.00     0.050 A 
ATOM      7  C   UNL d   1      54.114  32.662  54.890  0.00  0.00     0.008 A 
ATOM      8  C   UNL d   1      53.345  33.283  53.855  0.00  0.00     0.073 A 
ATOM      9  C   UNL d   1      54.249  33.399  55.229  0.00  0.00     0.001 A 
ATOM     10  C   UNL d   1      53.931  34.081  54.880  0.00  0.00     0.002 A 
ATOM     11  C   UNL d   1      53.478  34.025  54.193  0.00  0.00     0.018 A 
ENDBRANCH   1   2
BRANCH   1  12
ATOM     12  C   UNL d   1      51.691  33.623  52.706  0.00  0.00     0.046 C 
BRANCH  12  13
ATOM     13  C   UNL d   1      51.266  33.957  52.083  0.00  0.00     0.124 C 
BRANCH  13  14
ATOM     14  O   UNL d   1      50.546  34.321  52.225  0.00  0.00    -0.305 OA
BRANCH  14  15
ATOM     15  C   UNL d   1      49.818  34.690  52.365  0.00  0.00     0.100 A 
ATOM     16  C   UNL d   1      49.261  34.700  51.775  0.00  0.00     0.025 A 
ATOM     17  C   UNL d   1      48.527  35.068  51.906  0.00  0.00     0.002 A 
ATOM     18  C   UNL d   1      48.372  35.420  52.638  0.00  0.00     0.000 A 
ATOM     19  C   UNL d   1      48.947  35.404  53.230  0.00  0.00     0.002 A 
ATOM     20  C   UNL d   1      47.652  35.784  52.774  0.00  0.00     0.000 C 
ATOM     21  C   UNL d   1      49.668  35.040  53.095  0.00  0.00     0.025 A 
ENDBRANCH  14  15
ENDBRANCH  13  14
ENDBRANCH  12  13
ENDBRANCH   1  12
TORSDOF 5
ENDMDL
MODEL 3
REMARK VINA RESULT:      -7.3      2.480      4.954
REMARK  5 active torsions:
REMARK  status: ('A' for Active; 'I' for Inactive)
REMARK    1  A    between atoms: C_7  and  N_2 
REMARK    2  A    between atoms: C_14  and  C_7 
REMARK    3  A    between atoms: C_8  and  O_16 
REMARK    4  A    between atoms: C_18  and  C_14 
REMARK    5  A    between atoms: O_16  and  C_18 
ROOT
ATOM      1  C   UNL d   1      52.865  33.081  52.731  0.00  0.00     0.086 C 
ENDROOT
BRANCH   1   2
ATOM      2  N   UNL d   1      52.621  33.784  53.081  0.00  0.00    -0.268 N 
ATOM      3  C   UNL d   1      51.989  34.251  52.833  0.00  0.00     0.296 A 
ATOM      4  S   UNL d   1      51.943  34.906  53.346  0.00  0.00    -0.025 SA
ATOM      5  O   UNL d   1      51.488  34.106  52.194  0.00  0.00    -0.259 OA
ATOM      6  C   UNL d   1      52.548  34.830  53.902  0.00  0.00     0.050 A 
ATOM      7  C   UNL d   1      52.776  35.311  54.547  0.00  0.00     0.008 A 
ATOM      8  C   UNL d   1      52.966  34.142  53.743  0.00  0.00     0.073 A 
ATOM      9  C   UNL d   1      53.415  35.090  55.015  0.00  0.00     0.001 A 
ATOM     10  C   UNL d   1      53.832  34.394  54.847  0.00  0.00     0.002 A 
ATOM     11  C   UNL d   1      53.609  33.918  54.211  0.00  0.00     0.018 A 
ENDBRANCH   1   2
BRANCH   1  12
ATOM     12  C   UNL d   1      52.487  32.365  52.917  0.00  0.00     0.046 C 
BRANCH  12  13
ATOM     13  C   UNL d   1      52.719  31.660  52.557  0.00  0.00     0.124 C 
BRANCH  13  14
ATOM     14  O   UNL d   1      52.865  30.995  53.012  0.00  0.00    -0.305 OA
BRANCH  14  15
ATOM     15  C   UNL d   1      53.014  30.320  53.469  0.00  0.00     0.100 A 
ATOM     16  C   UNL d   1      52.558  29.659  53.358  0.00  0.00     0.025 A 
ATOM     17  C   UNL d   1      52.701  28.978  53.812  0.00  0.00     0.002 A 
ATOM     18  C   UNL d   1      53.308  28.982  54.374  0.00  0.00     0.000 A 
ATOM     19  C   UNL d   1      53.765  29.660  54.479  0.00  0.00     0.002 A 
ATOM     20  C   UNL d   1      53.453  28.313  54.825  0.00  0.00     0.000 C 
ATOM     21  C   UNL d   1      53.619  30.328  54.028  0.00  0.00     0.025 A 
ENDBRANCH  14  15
ENDBRANCH  13  14
ENDBRANCH  12  13
ENDBRANCH   1  12
TORSDOF 5
ENDMDL
MODEL 4
REMARK VINA RESULT:      -6.6      2.050      4.883
REMARK  5 active torsions:
REMARK  status: ('A' for Active; 'I' for Inactive)
REMARK    1  A    between atoms: C_7  and  N_2 
REMARK    2  A    between atoms: C_14  and  C_7 
REMARK    3  A    between atoms: C_8  and  O_16 
REMARK    4  A    between atoms: C_18  and  C_14 
REMARK    5  A    between atoms: O_16  and  C_18 
ROOT
ATOM      1  C   UNL d   1      53.790  33.648  53.515  0.00  0.00     0.086 C 
ENDROOT
BRANCH   1   2
ATOM      2  N   UNL d   1      53.178  34.159  53.721  0.00  0.00    -0.268 N 
ATOM      3  C   UNL d   1      53.185  34.690  54.351  0.00  0.00     0.296 A 
ATOM      4  S   UNL d   1      52.455  35.091  54.351  0.00  0.00    -0.025 SA
ATOM      5  O   UNL d   1      53.798  34.809  54.889  0.00  0.00    -0.259 OA
ATOM      6  C   UNL d   1      52.011  34.799  53.719  0.00  0.00     0.050 A 
ATOM      7  C   UNL d   1      51.244  34.988  53.443  0.00  0.00     0.008 A 
ATOM      8  C   UNL d   1      52.451  34.227  53.330  0.00  0.00     0.073 A 
ATOM      9  C   UNL d   1      50.939  34.598  52.786  0.00  0.00     0.001 A 
ATOM     10  C   UNL d   1      51.392  34.021  52.399  0.00  0.00     0.002 A 
ATOM     11  C   UNL d   1      52.148  33.834  52.669  0.00  0.00     0.018 A 
ENDBRANCH   1   2
BRANCH   1  12
ATOM     12  C   UNL d   1      53.930  32.961  53.961  0.00  0.00     0.046 C 
BRANCH  12  13
ATOM     13  C   UNL d   1      54.326  32.318  53.629  0.00  0.00     0.124 C 
BRANCH  13  14
ATOM     14  O   UNL d   1      53.979  31.577  53.629  0.00  0.00    -0.305 OA
BRANCH  14  15
ATOM     15  C   UNL d   1      53.626  30.827  53.632  0.00  0.00     0.100 A 
ATOM     16  C   UNL d   1      53.211  30.584  52.979  0.00  0.00     0.025 A 
ATOM     17  C   UNL d   1      52.854  29.834  52.973  0.00  0.00     0.002 A 
ATOM     18  C   UNL d   1      52.926  29.341  53.634  0.00  0.00     0.000 A 
ATOM     19  C   UNL d   1      53.351  29.599  54.292  0.00  0.00     0.002 A 
ATOM     20  C   UNL d   1      52.577  28.601  53.634  0.00  0.00     0.000 C 
ATOM     21  C   UNL d   1      53.701  30.340  54.292  0.00  0.00     0.025 A 
ENDBRANCH  14  15
ENDBRANCH  13  14
ENDBRANCH  12  13
ENDBRANCH   1  12
TORSDOF 5
ENDMDL
MODEL 5
REMARK VINA RESULT:      -6.2      2.407      5.901
REMARK  5 active torsions:
REMARK  status: ('A' for Active; 'I' for Inactive)
REMARK    1  A    between atoms: C_7  and  N_2 
REMARK    2  A    between atoms: C_14  and  C_7 
REMARK    3  A    between atoms: C_8  and  O_16 
REMARK    4  A    between atoms: C_18  and  C_14 
REMARK    5  A    between atoms: O_16  and  C_18 
ROOT
ATOM      1  C   UNL d   1      48.348  35.779  52.342  0.00  0.00     0.086 C 
ENDROOT
BRANCH   1   2
ATOM      2  N   UNL d   1      47.611  35.689  51.986  0.00  0.00    -0.268 N 
ATOM      3  C   UNL d   1      47.459  35.267  51.294  0.00  0.00     0.296 A 
ATOM      4  S   UNL d   1      46.641  35.323  51.140  0.00  0.00    -0.025 SA
ATOM      5  O   UNL d   1      48.007  34.862  50.833  0.00  0.00    -0.259 OA
ATOM      6  C   UNL d   1      46.305  35.779  51.740  0.00  0.00     0.050 A 
ATOM      7  C   UNL d   1      45.517  36.022  51.881  0.00  0.00     0.008 A 
ATOM      8  C   UNL d   1      46.896  36.005  52.262  0.00  0.00     0.073 A 
ATOM      9  C   UNL d   1      45.343  36.484  52.539  0.00  0.00     0.001 A 
ATOM     10  C   UNL d   1      45.948  36.707  53.060  0.00  0.00     0.002 A 
ATOM     11  C   UNL d   1      46.726  36.469  52.924  0.00  0.00     0.018 A 
ENDBRANCH   1   2
BRANCH   1  12
ATOM     12  C   UNL d   1      48.808  35.113  52.527  0.00  0.00     0.046 C 
BRANCH  12  13
ATOM     13  C   UNL d   1      49.401  35.158  53.098  0.00  0.00     0.124 C 
BRANCH  13  14
ATOM     14  O   UNL d   1      50.052  34.662  53.055  0.00  0.00    -0.305 OA
BRANCH  14  15
ATOM     15  C   UNL d   1      50.711  34.163  53.009  0.00  0.00     0.100 A 
ATOM     16  C   UNL d   1      50.658  33.410  53.309  0.00  0.00     0.025 A 
ATOM     17  C   UNL d   1      51.314  32.902  53.267  0.00  0.00     0.002 A 
ATOM     18  C   UNL d   1      52.016  33.169  52.920  0.00  0.00     0.000 A 
ATOM     19  C   UNL d   1      52.058  33.936  52.619  0.00  0.00     0.002 A 
ATOM     20  C   UNL d   1      52.666  32.673  52.876  0.00  0.00     0.000 C 
ATOM     21  C   UNL d   1      51.408  34.432  52.663  0.00  0.00     0.025 A 
ENDBRANCH  14  15
ENDBRANCH  13  14
ENDBRANCH  12  13
ENDBRANCH   1  12
TORSDOF 5
ENDMDL
MODEL 6
REMARK VINA RESULT:      -6.1      3.417      4.572
REMARK  5 active torsions:
REMARK  status: ('A' for Active; 'I' for Inactive)
REMARK    1  A    between atoms: C_7  and  N_2 
REMARK    2  A    between atoms: C_14  and  C_7 
REMARK    3  A    between atoms: C_8  and  O_16 
REMARK    4  A    between atoms: C_18  and  C_14 
REMARK    5  A    between atoms: O_16  and  C_18 
ROOT
ATOM      1  C   UNL d   1      53.969  31.234  53.522  0.00  0.00     0.086 C 
ENDROOT
BRANCH   1   2
ATOM      2  N   UNL d   1      53.460  30.595  53.425  0.00  0.00    -0.268 N 
ATOM      3  C   UNL d   1      52.912  30.504  52.817  0.00  0.00     0.296 A 
ATOM      4  S   UNL d   1      52.519  29.778  52.937  0.00  0.00    -0.025 SA
ATOM      5  O   UNL d   1      52.770  31.029  52.197  0.00  0.00    -0.259 OA
ATOM      6  C   UNL d   1      52.834  29.436  53.619  0.00  0.00     0.050 A 
ATOM      7  C   UNL d   1      52.663  28.716  54.011  0.00  0.00     0.008 A 
ATOM      8  C   UNL d   1      53.412  29.933  53.922  0.00  0.00     0.073 A 
ATOM      9  C   UNL d   1      53.075  28.516  54.694  0.00  0.00     0.001 A 
ATOM     10  C   UNL d   1      53.657  29.026  54.993  0.00  0.00     0.002 A 
ATOM     11  C   UNL d   1      53.827  29.735  54.608  0.00  0.00     0.018 A 
ENDBRANCH   1   2
BRANCH   1  12
ATOM     12  C   UNL d   1      53.667  31.987  53.705  0.00  0.00     0.046 C 
BRANCH  12  13
ATOM     13  C   UNL d   1      54.174  32.624  53.830  0.00  0.00     0.124 C 
BRANCH  13  14
ATOM     14  O   UNL d   1      53.870  33.359  54.024  0.00  0.00    -0.305 OA
BRANCH  14  15
ATOM     15  C   UNL d   1      53.561  34.102  54.223  0.00  0.00     0.100 A 
ATOM     16  C   UNL d   1      53.672  34.388  54.974  0.00  0.00     0.025 A 
ATOM     17  C   UNL d   1      53.365  35.131  55.182  0.00  0.00     0.002 A 
ATOM     18  C   UNL d   1      52.948  35.573  54.620  0.00  0.00     0.000 A 
ATOM     19  C   UNL d   1      52.841  35.272  53.859  0.00  0.00     0.002 A 
ATOM     20  C   UNL d   1      52.643  36.307  54.819  0.00  0.00     0.000 C 
ATOM     21  C   UNL d   1      53.146  34.538  53.661  0.00  0.00     0.025 A 
ENDBRANCH  14  15
ENDBRANCH  13  14
ENDBRANCH  12  13
ENDBRANCH   1  12
TORSDOF 5
ENDMDL
MODEL 7
REMARK VINA RESULT:      -5.8      1.747      5.306
REMARK  5 active torsions:
REMARK  status: ('A' for Active; 'I' for Inactive)
REMARK    1  A    between atoms: C_7  and  N_2 
REMARK    2  A    between atoms: C_14  and  C_7 
REMARK    3  A    between atoms: C_8  and  O_16 
REMARK    4  A    between atoms: C_18  and  C_14 
REMARK    5  A    between atoms: O_16  and  C_18 
ROOT
ATOM      1  C   UNL d   1      50.248  34.824  52.822  0.00  0.00     0.086 C 
ENDROOT
BRANCH   1   2
ATOM      2  N   UNL d   1      49.568  34.888  52.362  0.00  0.00    -0.268 N 
ATOM      3  C   UNL d   1      49.468  34.579  51.604  0.00  0.00     0.296 A 
ATOM      4  S   UNL d   1      48.699  34.775  51.351  0.00  0.00    -0.025 SA
ATOM      5  O   UNL d   1      50.022  34.152  51.168  0.00  0.00    -0.259 OA
ATOM      6  C   UNL d   1      48.338  35.202  51.959  0.00  0.00     0.050 A 
ATOM      7  C   UNL d   1      47.577  35.543  52.025  0.00  0.00     0.008 A 
ATOM      8  C   UNL d   1      48.868  35.274  52.581  0.00  0.00     0.073 A 
ATOM      9  C   UNL d   1      47.368  35.945  52.712  0.00  0.00     0.001 A 
ATOM     10  C   UNL d   1      47.910  36.012  53.335  0.00  0.00     0.002 A 
ATOM     11  C   UNL d   1      48.662  35.677  53.272  0.00  0.00     0.018 A 
ENDBRANCH   1   2
BRANCH   1  12
ATOM     12  C   UNL d   1      50.712  34.136  52.789  0.00  0.00     0.046 C 
BRANCH  12  13
ATOM     13  C   UNL d   1      51.425  34.090  53.202  0.00  0.00     0.124 C 
BRANCH  13  14
ATOM     14  O   UNL d   1      51.850  33.390  53.212  0.00  0.00    -0.305 OA
BRANCH  14  15
ATOM     15  C   UNL d   1      52.281  32.683  53.219  0.00  0.00     0.100 A 
ATOM     16  C   UNL d   1      53.044  32.689  53.497  0.00  0.00     0.025 A 
ATOM     17  C   UNL d   1      53.484  31.984  53.508  0.00  0.00     0.002 A 
ATOM     18  C   UNL d   1      53.140  31.283  53.235  0.00  0.00     0.000 A 
ATOM     19  C   UNL d   1      52.365  31.290  52.954  0.00  0.00     0.002 A 
ATOM     20  C   UNL d   1      53.569  30.586  53.243  0.00  0.00     0.000 C 
ATOM     21  C   UNL d   1      51.936  31.987  52.946  0.00  0.00     0.025 A 
ENDBRANCH  14  15
ENDBRANCH  13  14
ENDBRANCH  12  13
ENDBRANCH   1  12
TORSDOF 5
ENDMDL
MODEL 8
REMARK VINA RESULT:      -5.8      9.935     10.622
REMARK  5 active torsions:
REMARK  status: ('A' for Active; 'I' for Inactive)
REMARK    1  A    between atoms: C_7  and  N_2 
REMARK    2  A    between atoms: C_14  and  C_7 
REMARK    3  A    between atoms: C_8  and  O_16 
REMARK    4  A    between atoms: C_18  and  C_14 
REMARK    5  A    between atoms: O_16  and  C_18 
ROOT
ATOM      1  C   UNL d   1      45.269  29.885  58.040  0.00  0.00     0.086 C 
ENDROOT
BRANCH   1   2
ATOM      2  N   UNL d   1      44.994  29.358  57.471  0.00  0.00    -0.268 N 
ATOM      3  C   UNL d   1      44.556  29.559  56.801  0.00  0.00     0.296 A 
ATOM      4  S   UNL d   1      44.398  28.856  56.383  0.00  0.00    -0.025 SA
ATOM      5  O   UNL d   1      44.314  30.314  56.578  0.00  0.00    -0.259 OA
ATOM      6  C   UNL d   1      44.743  28.234  56.803  0.00  0.00     0.050 A 
ATOM      7  C   UNL d   1      44.769  27.410  56.658  0.00  0.00     0.008 A 
ATOM      8  C   UNL d   1      45.109  28.538  57.471  0.00  0.00     0.073 A 
ATOM      9  C   UNL d   1      45.160  26.915  57.185  0.00  0.00     0.001 A 
ATOM     10  C   UNL d   1      45.528  27.232  57.857  0.00  0.00     0.002 A 
ATOM     11  C   UNL d   1      45.503  28.044  58.003  0.00  0.00     0.018 A 
ENDBRANCH   1   2
BRANCH   1  12
ATOM     12  C   UNL d   1      44.767  30.145  58.649  0.00  0.00     0.046 C 
BRANCH  12  13
ATOM     13  C   UNL d   1      44.993  30.762  59.146  0.00  0.00     0.124 C 
BRANCH  13  14
ATOM     14  O   UNL d   1      44.857  30.712  59.952  0.00  0.00    -0.305 OA
BRANCH  14  15
ATOM     15  C   UNL d   1      44.722  30.662  60.768  0.00  0.00     0.100 A 
ATOM     16  C   UNL d   1      44.452  31.316  61.164  0.00  0.00     0.025 A 
ATOM     17  C   UNL d   1      44.314  31.276  61.982  0.00  0.00     0.002 A 
ATOM     18  C   UNL d   1      44.454  30.567  62.386  0.00  0.00     0.000 A 
ATOM     19  C   UNL d   1      44.728  29.908  61.972  0.00  0.00     0.002 A 
ATOM     20  C   UNL d   1      44.319  30.520  63.192  0.00  0.00     0.000 C 
ATOM     21  C   UNL d   1      44.862  29.955  61.166  0.00  0.00     0.025 A 
ENDBRANCH  14  15
ENDBRANCH  13  14
ENDBRANCH  12  13
ENDBRANCH   1  12
TORSDOF 5
ENDMDL
MODEL 9
REMARK VINA RESULT:      -5.6      2.545      3.487
REMARK  5 active torsions:
REMARK  status: ('A' for Active; 'I' for Inactive)
REMARK    1  A    between atoms: C_7  and  N_2 
REMARK    2  A    between atoms: C_14  and  C_7 
REMARK    3  A    between atoms: C_8  and  O_16 
REMARK    4  A    between atoms: C_18  and  C_14 
REMARK    5  A    between atoms: O_16  and  C_18 
ROOT
ATOM      1  C   UNL d   1      53.305  31.431  53.444  0.00  0.00     0.086 C 
ENDROOT
BRANCH   1   2
ATOM      2  N   UNL d   1      53.242  30.610  53.455  0.00  0.00    -0.268 N 
ATOM      3  C   UNL d   1      53.114  30.129  52.798  0.00  0.00     0.296 A 
ATOM      4  S   UNL d   1      53.088  29.340  53.065  0.00  0.00    -0.025 SA
ATOM      5  O   UNL d   1      53.026  30.374  52.016  0.00  0.00    -0.259 OA
ATOM      6  C   UNL d   1      53.201  29.350  53.883  0.00  0.00     0.050 A 
ATOM      7  C   UNL d   1      53.231  28.735  54.449  0.00  0.00     0.008 A 
ATOM      8  C   UNL d   1      53.296  30.128  54.126  0.00  0.00     0.073 A 
ATOM      9  C   UNL d   1      53.354  28.915  55.242  0.00  0.00     0.001 A 
ATOM     10  C   UNL d   1      53.448  29.704  55.478  0.00  0.00     0.002 A 
ATOM     11  C   UNL d   1      53.419  30.313  54.921  0.00  0.00     0.018 A 
ENDBRANCH   1   2
BRANCH   1  12
ATOM     12  C   UNL d   1      52.654  31.899  53.226  0.00  0.00     0.046 C 
BRANCH  12  13
ATOM     13  C   UNL d   1      52.714  32.721  53.207  0.00  0.00     0.124 C 
BRANCH  13  14
ATOM     14  O   UNL d   1      52.060  33.177  53.023  0.00  0.00    -0.305 OA
BRANCH  14  15
ATOM     15  C   UNL d   1      51.397  33.637  52.834  0.00  0.00     0.100 A 
ATOM     16  C   UNL d   1      50.780  33.675  53.360  0.00  0.00     0.025 A 
ATOM     17  C   UNL d   1      50.112  34.133  53.179  0.00  0.00     0.002 A 
ATOM     18  C   UNL d   1      50.081  34.548  52.464  0.00  0.00     0.000 A 
ATOM     19  C   UNL d   1      50.715  34.502  51.937  0.00  0.00     0.002 A 
ATOM     20  C   UNL d   1      49.425  35.001  52.280  0.00  0.00     0.000 C 
ATOM     21  C   UNL d   1      51.371  34.048  52.121  0.00  0.00     0.025 A 
ENDBRANCH  14  15
ENDBRANCH  13  14
ENDBRANCH  12  13
ENDBRANCH   1  12
TORSDOF 5
ENDMDL
