MODEL 1
REMARK VINA RESULT:      -7.9      0.000      0.000
REMARK  3 active torsions:
REMARK  status: ('A' for Active; 'I' for Inactive)
REMARK    1  A    between atoms: C_5  and  S_1 
REMARK    2  A    between atoms: N_7  and  S_1 
REMARK       I    between atoms: N_2  and  C_3 
REMARK    3  A    between atoms: C_3  and  C_9 
ROOT
ATOM      1  C   UNL d   1     -47.959  13.631  22.596  0.00  0.00     0.104 A 
ATOM      2  C   UNL d   1     -46.654  13.204  22.986  0.00  0.00     0.059 A 
ATOM      3  C   UNL d   1     -47.422  13.024  22.740  0.00  0.00     0.018 A 
ATOM      4  C   UNL d   1     -47.735  14.416  22.696  0.00  0.00     0.012 A 
ATOM      5  C   UNL d   1     -46.426  13.991  23.087  0.00  0.00     0.005 A 
ATOM      6  C   UNL d   1     -46.967  14.597  22.942  0.00  0.00     0.001 A 
ATOM      7  C   UNL d   1     -48.272  15.022  22.551  0.00  0.00     0.001 C 
ENDROOT
BRANCH   1   8
ATOM      8  S   UNL d   1     -48.719  13.452  22.352  0.00  0.00     0.272 S 
ATOM      9  O   UNL d   1     -48.965  13.270  23.253  0.00  0.00    -0.200 OA
ATOM     10  O   UNL d   1     -48.505  13.610  21.569  0.00  0.00    -0.200 OA
BRANCH   8  11
ATOM     11  N   UNL d   1     -49.504  13.259  22.165  0.00  0.00    -0.225 N 
ATOM     12  C   UNL d   1     -49.958  12.844  22.703  0.00  0.00     0.118 A 
ATOM     13  C   UNL d   1     -50.739  12.652  22.517  0.00  0.00     0.142 A 
ATOM     14  O   UNL d   1     -51.060  12.880  21.787  0.00  0.00    -0.300 OA
ATOM     15  C   UNL d   1     -50.592  13.300  21.249  0.00  0.00     0.142 A 
ATOM     16  C   UNL d   1     -49.807  13.493  21.436  0.00  0.00     0.118 A 
ENDBRANCH   8  11
ENDBRANCH   1   8
BRANCH   2  17
ATOM     17  C   UNL d   1     -46.110  12.603  23.133  0.00  0.00     0.280 C 
ATOM     18  N   UNL d   1     -45.402  12.581  22.717  0.00  0.00    -0.195 N 
ATOM     19  N   UNL d   1     -44.812  12.027  22.797  0.00  0.00    -0.163 NA
ATOM     20  C   UNL d   1     -45.172  13.126  22.140  0.00  0.00     0.088 A 
ATOM     21  C   UNL d   1     -44.201  12.213  22.275  0.00  0.00     0.103 A 
ATOM     22  C   UNL d   1     -43.498  11.798  22.175  0.00  0.00     0.022 C 
ATOM     23  C   UNL d   1     -44.426  12.894  21.868  0.00  0.00     0.040 A 
ATOM     24  C   UNL d   1     -45.605  13.782  21.881  0.00  0.00     0.021 C 
ATOM     25  O   UNL d   1     -46.277  12.027  23.695  0.00  0.00    -0.265 OA
ENDBRANCH   2  17
TORSDOF 3
ENDMDL
MODEL 2
REMARK VINA RESULT:      -7.8      1.246      1.713
REMARK  3 active torsions:
REMARK  status: ('A' for Active; 'I' for Inactive)
REMARK    1  A    between atoms: C_5  and  S_1 
REMARK    2  A    between atoms: N_7  and  S_1 
REMARK       I    between atoms: N_2  and  C_3 
REMARK    3  A    between atoms: C_3  and  C_9 
ROOT
ATOM      1  C   UNL d   1     -48.501  13.366  22.993  0.00  0.00     0.104 A 
ATOM      2  C   UNL d   1     -47.093  13.199  23.156  0.00  0.00     0.059 A 
ATOM      3  C   UNL d   1     -47.739  13.676  22.962  0.00  0.00     0.018 A 
ATOM      4  C   UNL d   1     -48.622  12.583  23.215  0.00  0.00     0.012 A 
ATOM      5  C   UNL d   1     -47.211  12.414  23.380  0.00  0.00     0.005 A 
ATOM      6  C   UNL d   1     -47.976  12.106  23.409  0.00  0.00     0.001 A 
ATOM      7  C   UNL d   1     -49.384  12.273  23.246  0.00  0.00     0.001 C 
ENDROOT
BRANCH   1   8
ATOM      8  S   UNL d   1     -49.141  13.838  22.800  0.00  0.00     0.272 S 
ATOM      9  O   UNL d   1     -49.115  14.227  23.668  0.00  0.00    -0.200 OA
ATOM     10  O   UNL d   1     -49.164  13.500  22.046  0.00  0.00    -0.200 OA
BRANCH   8  11
ATOM     11  N   UNL d   1     -49.786  14.341  22.663  0.00  0.00    -0.225 N 
ATOM     12  C   UNL d   1     -50.271  14.209  22.018  0.00  0.00     0.118 A 
ATOM     13  C   UNL d   1     -50.914  14.708  21.880  0.00  0.00     0.142 A 
ATOM     14  O   UNL d   1     -51.064  15.341  22.395  0.00  0.00    -0.300 OA
ATOM     15  C   UNL d   1     -50.567  15.467  23.044  0.00  0.00     0.142 A 
ATOM     16  C   UNL d   1     -49.922  14.964  23.182  0.00  0.00     0.118 A 
ENDBRANCH   8  11
ENDBRANCH   1   8
BRANCH   2  17
ATOM     17  C   UNL d   1     -46.327  13.502  23.129  0.00  0.00     0.280 C 
ATOM     18  N   UNL d   1     -45.811  13.256  22.540  0.00  0.00    -0.195 N 
ATOM     19  N   UNL d   1     -45.042  13.501  22.438  0.00  0.00    -0.163 NA
ATOM     20  C   UNL d   1     -45.992  12.710  21.946  0.00  0.00     0.088 A 
ATOM     21  C   UNL d   1     -44.725  13.116  21.781  0.00  0.00     0.103 A 
ATOM     22  C   UNL d   1     -43.964  13.202  21.481  0.00  0.00     0.022 C 
ATOM     23  C   UNL d   1     -45.316  12.626  21.477  0.00  0.00     0.040 A 
ATOM     24  C   UNL d   1     -46.713  12.320  21.838  0.00  0.00     0.021 C 
ATOM     25  O   UNL d   1     -46.082  14.049  23.691  0.00  0.00    -0.265 OA
ENDBRANCH   2  17
TORSDOF 3
ENDMDL
MODEL 3
REMARK VINA RESULT:      -7.2      1.244      4.543
REMARK  3 active torsions:
REMARK  status: ('A' for Active; 'I' for Inactive)
REMARK    1  A    between atoms: C_5  and  S_1 
REMARK    2  A    between atoms: N_7  and  S_1 
REMARK       I    between atoms: N_2  and  C_3 
REMARK    3  A    between atoms: C_3  and  C_9 
ROOT
ATOM      1  C   UNL d   1     -46.933  12.665  23.019  0.00  0.00     0.104 A 
ATOM      2  C   UNL d   1     -48.236  13.247  23.019  0.00  0.00     0.059 A 
ATOM      3  C   UNL d   1     -47.442  13.272  22.794  0.00  0.00     0.018 A 
ATOM      4  C   UNL d   1     -47.213  12.033  23.467  0.00  0.00     0.012 A 
ATOM      5  C   UNL d   1     -48.520  12.615  23.469  0.00  0.00     0.005 A 
ATOM      6  C   UNL d   1     -48.007  12.009  23.692  0.00  0.00     0.001 A 
ATOM      7  C   UNL d   1     -46.704  11.427  23.691  0.00  0.00     0.001 C 
ENDROOT
BRANCH   1   8
ATOM      8  S   UNL d   1     -46.146  12.689  22.796  0.00  0.00     0.272 S 
ATOM      9  O   UNL d   1     -46.397  12.527  21.893  0.00  0.00    -0.200 OA
ATOM     10  O   UNL d   1     -45.928  12.831  23.581  0.00  0.00    -0.200 OA
BRANCH   8  11
ATOM     11  N   UNL d   1     -45.368  12.704  22.511  0.00  0.00    -0.225 N 
ATOM     12  C   UNL d   1     -44.861  12.086  22.688  0.00  0.00     0.118 A 
ATOM     13  C   UNL d   1     -44.086  12.099  22.406  0.00  0.00     0.142 A 
ATOM     14  O   UNL d   1     -43.823  12.737  21.945  0.00  0.00    -0.300 OA
ATOM     15  C   UNL d   1     -44.344  13.357  21.772  0.00  0.00     0.142 A 
ATOM     16  C   UNL d   1     -45.123  13.344  22.056  0.00  0.00     0.118 A 
ENDBRANCH   8  11
ENDBRANCH   1   8
BRANCH   2  17
ATOM     17  C   UNL d   1     -48.752  13.850  22.799  0.00  0.00     0.280 C 
ATOM     18  N   UNL d   1     -49.363  13.695  22.272  0.00  0.00    -0.195 N 
ATOM     19  N   UNL d   1     -49.915  14.228  22.002  0.00  0.00    -0.163 NA
ATOM     20  C   UNL d   1     -49.517  12.961  21.926  0.00  0.00     0.088 A 
ATOM     21  C   UNL d   1     -50.425  13.840  21.482  0.00  0.00     0.103 A 
ATOM     22  C   UNL d   1     -51.063  14.172  21.082  0.00  0.00     0.022 C 
ATOM     23  C   UNL d   1     -50.177  13.055  21.436  0.00  0.00     0.040 A 
ATOM     24  C   UNL d   1     -49.092  12.260  22.045  0.00  0.00     0.021 C 
ATOM     25  O   UNL d   1     -48.655  14.606  23.107  0.00  0.00    -0.265 OA
ENDBRANCH   2  17
TORSDOF 3
ENDMDL
MODEL 4
REMARK VINA RESULT:      -7.0      8.048      9.438
REMARK  3 active torsions:
REMARK  status: ('A' for Active; 'I' for Inactive)
REMARK    1  A    between atoms: C_5  and  S_1 
REMARK    2  A    between atoms: N_7  and  S_1 
REMARK       I    between atoms: N_2  and  C_3 
REMARK    3  A    between atoms: C_3  and  C_9 
ROOT
ATOM      1  C   UNL d   1     -39.866  14.927  19.475  0.00  0.00     0.104 A 
ATOM      2  C   UNL d   1     -39.816  14.265  18.211  0.00  0.00     0.059 A 
ATOM      3  C   UNL d   1     -39.506  14.388  18.967  0.00  0.00     0.018 A 
ATOM      4  C   UNL d   1     -40.533  15.344  19.232  0.00  0.00     0.012 A 
ATOM      5  C   UNL d   1     -40.485  14.682  17.965  0.00  0.00     0.005 A 
ATOM      6  C   UNL d   1     -40.843  15.222  18.477  0.00  0.00     0.001 A 
ATOM      7  C   UNL d   1     -40.891  15.883  19.740  0.00  0.00     0.001 C 
ENDROOT
BRANCH   1   8
ATOM      8  S   UNL d   1     -39.558  15.049  20.223  0.00  0.00     0.272 S 
ATOM      9  O   UNL d   1     -40.036  14.291  20.542  0.00  0.00    -0.200 OA
ATOM     10  O   UNL d   1     -39.143  15.708  19.945  0.00  0.00    -0.200 OA
BRANCH   8  11
ATOM     11  N   UNL d   1     -39.279  15.122  21.000  0.00  0.00    -0.225 N 
ATOM     12  C   UNL d   1     -38.951  15.830  21.247  0.00  0.00     0.118 A 
ATOM     13  C   UNL d   1     -38.673  15.904  22.020  0.00  0.00     0.142 A 
ATOM     14  O   UNL d   1     -38.727  15.262  22.544  0.00  0.00    -0.300 OA
ATOM     15  C   UNL d   1     -39.060  14.551  22.284  0.00  0.00     0.142 A 
ATOM     16  C   UNL d   1     -39.340  14.477  21.507  0.00  0.00     0.118 A 
ENDBRANCH   8  11
ENDBRANCH   1   8
BRANCH   2  17
ATOM     17  C   UNL d   1     -39.463  13.728  17.696  0.00  0.00     0.280 C 
ATOM     18  N   UNL d   1     -39.067  13.998  17.030  0.00  0.00    -0.195 N 
ATOM     19  N   UNL d   1     -38.692  13.541  16.472  0.00  0.00    -0.163 NA
ATOM     20  C   UNL d   1     -38.985  14.792  16.815  0.00  0.00     0.088 A 
ATOM     21  C   UNL d   1     -38.367  14.036  15.897  0.00  0.00     0.103 A 
ATOM     22  C   UNL d   1     -37.941  13.803  15.233  0.00  0.00     0.022 C 
ATOM     23  C   UNL d   1     -38.550  14.811  16.111  0.00  0.00     0.040 A 
ATOM     24  C   UNL d   1     -39.281  15.447  17.225  0.00  0.00     0.021 C 
ATOM     25  O   UNL d   1     -39.507  12.922  17.851  0.00  0.00    -0.265 OA
ENDBRANCH   2  17
TORSDOF 3
ENDMDL
