MODEL 1
REMARK VINA RESULT:     135.5      0.000      0.000
REMARK  6 active torsions:
REMARK  status: ('A' for Active; 'I' for Inactive)
REMARK    1  A    between atoms: N_7  and  C_1 
REMARK    2  A    between atoms: C_6  and  C_4 
REMARK    3  A    between atoms: C_20  and  N_9 
REMARK    4  A    between atoms: C_23  and  C_13 
REMARK    5  A    between atoms: O_19  and  C_23 
REMARK    6  A    between atoms: C_21  and  O_19 
ROOT
ATOM      1  C   UNL d   1      62.352  43.347  49.872  0.00  0.00     0.198 A 
ATOM      2  C   UNL d   1      62.143  43.665  50.610  0.00  0.00     0.191 A 
ATOM      3  O   UNL d   1      62.401  43.954  49.327  0.00  0.00    -0.268 OA
ATOM      4  C   UNL d   1      62.229  44.640  49.705  0.00  0.00     0.208 A 
ATOM      5  N   UNL d   1      62.067  44.479  50.501  0.00  0.00    -0.206 NA
ATOM      6  C   UNL d   1      62.026  43.262  51.340  0.00  0.00     0.124 C 
ATOM      7  N   UNL d   1      61.911  42.854  52.064  0.00  0.00    -0.190 NA
ENDROOT
BRANCH   1   8
ATOM      8  N   UNL d   1      62.469  42.528  49.806  0.00  0.00    -0.280 N 
ATOM      9  C   UNL d   1      62.813  42.125  50.419  0.00  0.00     0.101 A 
ATOM     10  C   UNL d   1      62.929  41.311  50.353  0.00  0.00     0.100 A 
ATOM     11  N   UNL d   1      62.700  40.920  49.677  0.00  0.00    -0.301 N 
ATOM     12  C   UNL d   1      62.344  41.333  49.042  0.00  0.00     0.100 A 
ATOM     13  C   UNL d   1      62.228  42.147  49.107  0.00  0.00     0.101 A 
BRANCH  11  14
ATOM     14  C   UNL d   1      62.815  40.111  49.611  0.00  0.00     0.064 A 
ATOM     15  C   UNL d   1      62.710  39.747  48.894  0.00  0.00     0.018 A 
ATOM     16  C   UNL d   1      62.827  38.928  48.828  0.00  0.00     0.002 A 
ATOM     17  C   UNL d   1      63.046  38.504  49.482  0.00  0.00     0.000 A 
ATOM     18  C   UNL d   1      63.157  38.863  50.219  0.00  0.00     0.002 A 
ATOM     19  C   UNL d   1      63.040  39.682  50.285  0.00  0.00     0.018 A 
ENDBRANCH  11  14
ENDBRANCH   1   8
BRANCH   4  20
ATOM     20  C   UNL d   1      62.096  45.451  49.842  0.00  0.00     0.141 A 
ATOM     21  O   UNL d   1      61.927  46.080  50.338  0.00  0.00    -0.301 OA
ATOM     22  C   UNL d   1      61.917  46.748  49.870  0.00  0.00     0.125 A 
ATOM     23  C   UNL d   1      62.071  46.580  49.109  0.00  0.00     0.029 A 
ATOM     24  C   UNL d   1      62.185  45.771  49.075  0.00  0.00     0.030 A 
BRANCH  22  25
ATOM     25  C   UNL d   1      61.769  47.525  50.126  0.00  0.00     0.147 C 
BRANCH  25  26
ATOM     26  O   UNL d   1      61.009  47.805  50.287  0.00  0.00    -0.303 OA
BRANCH  26  27
ATOM     27  C   UNL d   1      60.888  48.424  50.778  0.00  0.00     0.100 A 
ATOM     28  C   UNL d   1      60.430  49.067  50.545  0.00  0.00     0.023 A 
ATOM     29  C   UNL d   1      60.076  49.079  49.767  0.00  0.00     0.002 C 
ATOM     30  C   UNL d   1      60.294  49.707  51.026  0.00  0.00     0.002 A 
ATOM     31  C   UNL d   1      60.634  49.707  51.786  0.00  0.00     0.000 A 
ATOM     32  C   UNL d   1      61.094  49.076  52.039  0.00  0.00     0.002 A 
ATOM     33  C   UNL d   1      61.212  48.445  51.528  0.00  0.00     0.025 A 
ENDBRANCH  26  27
ENDBRANCH  25  26
ENDBRANCH  22  25
ENDBRANCH   4  20
TORSDOF 6
ENDMDL
