MODEL 1
REMARK VINA RESULT:      -7.3      0.000      0.000
REMARK  3 active torsions:
REMARK  status: ('A' for Active; 'I' for Inactive)
REMARK    1  A    between atoms: S_10  and  C_6 
REMARK    2  A    between atoms: C_13  and  S_10 
REMARK    3  A    between atoms: C_14  and  C_13 
ROOT
ATOM      1  C   UNL d   1     -48.376  12.526  23.244  0.00  0.00     0.141 A 
ATOM      2  O   UNL d   1     -48.859  13.175  23.080  0.00  0.00    -0.303 OA
ATOM      3  C   UNL d   1     -48.858  11.903  23.497  0.00  0.00     0.110 A 
ATOM      4  C   UNL d   1     -49.637  12.167  23.489  0.00  0.00     0.043 A 
ATOM      5  C   UNL d   1     -49.644  12.952  23.233  0.00  0.00     0.102 A 
ATOM      6  C   UNL d   1     -47.564  12.425  23.194  0.00  0.00     0.137 A 
ATOM      7  N   UNL d   1     -47.224  11.696  23.398  0.00  0.00    -0.215 NA
ATOM      8  N   UNL d   1     -48.516  11.182  23.698  0.00  0.00    -0.222 NA
ATOM      9  C   UNL d   1     -47.703  11.081  23.649  0.00  0.00     0.200 A 
ATOM     10  C   UNL d   1     -50.347  11.789  23.686  0.00  0.00     0.004 A 
ATOM     11  C   UNL d   1     -50.358  13.365  23.170  0.00  0.00     0.025 A 
ATOM     12  C   UNL d   1     -51.062  12.201  23.623  0.00  0.00     0.000 A 
ATOM     13  C   UNL d   1     -51.064  12.984  23.367  0.00  0.00     0.002 A 
ENDROOT
BRANCH   6  14
ATOM     14  S   UNL d   1     -47.074  13.045  22.941  0.00  0.00    -0.065 SA
BRANCH  14  15
ATOM     15  C   UNL d   1     -46.269  12.905  22.817  0.00  0.00     0.037 C 
BRANCH  15  16
ATOM     16  C   UNL d   1     -45.781  13.511  22.546  0.00  0.00     0.007 C 
ATOM     17  C   UNL d   1     -45.126  13.325  22.083  0.00  0.00     0.001 C 
ENDBRANCH  15  16
ENDBRANCH  14  15
ENDBRANCH   6  14
TORSDOF 3
ENDMDL
MODEL 2
REMARK VINA RESULT:      -7.2      1.637      2.432
REMARK  3 active torsions:
REMARK  status: ('A' for Active; 'I' for Inactive)
REMARK    1  A    between atoms: S_10  and  C_6 
REMARK    2  A    between atoms: C_13  and  S_10 
REMARK    3  A    between atoms: C_14  and  C_13 
ROOT
ATOM      1  C   UNL d   1     -47.713  13.383  23.073  0.00  0.00     0.141 A 
ATOM      2  O   UNL d   1     -48.499  13.136  23.112  0.00  0.00    -0.303 OA
ATOM      3  C   UNL d   1     -47.706  14.195  22.913  0.00  0.00     0.110 A 
ATOM      4  C   UNL d   1     -48.486  14.446  22.852  0.00  0.00     0.043 A 
ATOM      5  C   UNL d   1     -48.981  13.797  22.974  0.00  0.00     0.102 A 
ATOM      6  C   UNL d   1     -47.008  12.975  23.164  0.00  0.00     0.137 A 
ATOM      7  N   UNL d   1     -46.284  13.376  23.094  0.00  0.00    -0.215 NA
ATOM      8  N   UNL d   1     -46.986  14.588  22.844  0.00  0.00    -0.222 NA
ATOM      9  C   UNL d   1     -46.280  14.180  22.935  0.00  0.00     0.200 A 
ATOM     10  C   UNL d   1     -48.812  15.193  22.699  0.00  0.00     0.004 A 
ATOM     11  C   UNL d   1     -49.803  13.886  22.945  0.00  0.00     0.025 A 
ATOM     12  C   UNL d   1     -49.635  15.282  22.671  0.00  0.00     0.000 A 
ATOM     13  C   UNL d   1     -50.124  14.632  22.793  0.00  0.00     0.002 A 
ENDROOT
BRANCH   6  14
ATOM     14  S   UNL d   1     -47.006  12.161  23.325  0.00  0.00    -0.065 SA
BRANCH  14  15
ATOM     15  C   UNL d   1     -46.293  11.780  23.495  0.00  0.00     0.037 C 
BRANCH  15  16
ATOM     16  C   UNL d   1     -46.289  10.980  23.695  0.00  0.00     0.007 C 
ATOM     17  C   UNL d   1     -45.577  10.568  23.694  0.00  0.00     0.001 C 
ENDBRANCH  15  16
ENDBRANCH  14  15
ENDBRANCH   6  14
TORSDOF 3
ENDMDL
MODEL 3
REMARK VINA RESULT:      -7.1      1.269      3.348
REMARK  3 active torsions:
REMARK  status: ('A' for Active; 'I' for Inactive)
REMARK    1  A    between atoms: S_10  and  C_6 
REMARK    2  A    between atoms: C_13  and  S_10 
REMARK    3  A    between atoms: C_14  and  C_13 
ROOT
ATOM      1  C   UNL d   1     -48.820  12.809  23.275  0.00  0.00     0.141 A 
ATOM      2  O   UNL d   1     -48.088  13.183  23.201  0.00  0.00    -0.303 OA
ATOM      3  C   UNL d   1     -48.686  12.016  23.471  0.00  0.00     0.110 A 
ATOM      4  C   UNL d   1     -47.874  11.902  23.517  0.00  0.00     0.043 A 
ATOM      5  C   UNL d   1     -47.499  12.619  23.351  0.00  0.00     0.102 A 
ATOM      6  C   UNL d   1     -49.586  13.088  23.189  0.00  0.00     0.137 A 
ATOM      7  N   UNL d   1     -50.230  12.576  23.299  0.00  0.00    -0.215 NA
ATOM      8  N   UNL d   1     -49.327  11.512  23.578  0.00  0.00    -0.222 NA
ATOM      9  C   UNL d   1     -50.095  11.791  23.493  0.00  0.00     0.200 A 
ATOM     10  C   UNL d   1     -47.423  11.229  23.691  0.00  0.00     0.004 A 
ATOM     11  C   UNL d   1     -46.673  12.670  23.358  0.00  0.00     0.025 A 
ATOM     12  C   UNL d   1     -46.597  11.280  23.698  0.00  0.00     0.000 A 
ATOM     13  C   UNL d   1     -46.227  11.996  23.532  0.00  0.00     0.002 A 
ENDROOT
BRANCH   6  14
ATOM     14  S   UNL d   1     -49.729  13.883  22.993  0.00  0.00    -0.065 SA
BRANCH  14  15
ATOM     15  C   UNL d   1     -50.403  14.261  23.286  0.00  0.00     0.037 C 
BRANCH  15  16
ATOM     16  C   UNL d   1     -50.554  15.046  23.089  0.00  0.00     0.007 C 
ATOM     17  C   UNL d   1     -50.809  15.567  23.674  0.00  0.00     0.001 C 
ENDBRANCH  15  16
ENDBRANCH  14  15
ENDBRANCH   6  14
TORSDOF 3
ENDMDL
MODEL 4
REMARK VINA RESULT:      -7.0      1.937      2.261
REMARK  3 active torsions:
REMARK  status: ('A' for Active; 'I' for Inactive)
REMARK    1  A    between atoms: S_10  and  C_6 
REMARK    2  A    between atoms: C_13  and  S_10 
REMARK    3  A    between atoms: C_14  and  C_13 
ROOT
ATOM      1  C   UNL d   1     -48.655  14.122  22.595  0.00  0.00     0.141 A 
ATOM      2  O   UNL d   1     -48.686  14.711  23.172  0.00  0.00    -0.303 OA
ATOM      3  C   UNL d   1     -49.408  14.047  22.261  0.00  0.00     0.110 A 
ATOM      4  C   UNL d   1     -49.903  14.589  22.632  0.00  0.00     0.043 A 
ATOM      5  C   UNL d   1     -49.462  15.002  23.195  0.00  0.00     0.102 A 
ATOM      6  C   UNL d   1     -48.039  13.648  22.333  0.00  0.00     0.137 A 
ATOM      7  N   UNL d   1     -48.172  13.091  21.732  0.00  0.00    -0.215 NA
ATOM      8  N   UNL d   1     -49.534  13.494  21.666  0.00  0.00    -0.222 NA
ATOM      9  C   UNL d   1     -48.918  13.019  21.403  0.00  0.00     0.200 A 
ATOM     10  C   UNL d   1     -50.707  14.761  22.526  0.00  0.00     0.004 A 
ATOM     11  C   UNL d   1     -49.820  15.589  23.657  0.00  0.00     0.025 A 
ATOM     12  C   UNL d   1     -51.064  15.347  22.988  0.00  0.00     0.000 A 
ATOM     13  C   UNL d   1     -50.622  15.757  23.549  0.00  0.00     0.002 A 
ENDROOT
BRANCH   6  14
ATOM     14  S   UNL d   1     -47.280  13.716  22.663  0.00  0.00    -0.065 SA
BRANCH  14  15
ATOM     15  C   UNL d   1     -46.640  13.349  22.293  0.00  0.00     0.037 C 
BRANCH  15  16
ATOM     16  C   UNL d   1     -45.881  13.431  22.602  0.00  0.00     0.007 C 
ATOM     17  C   UNL d   1     -45.232  13.213  22.144  0.00  0.00     0.001 C 
ENDBRANCH  15  16
ENDBRANCH  14  15
ENDBRANCH   6  14
TORSDOF 3
ENDMDL
MODEL 5
REMARK VINA RESULT:      -6.0      1.408      3.655
REMARK  3 active torsions:
REMARK  status: ('A' for Active; 'I' for Inactive)
REMARK    1  A    between atoms: S_10  and  C_6 
REMARK    2  A    between atoms: C_13  and  S_10 
REMARK    3  A    between atoms: C_14  and  C_13 
ROOT
ATOM      1  C   UNL d   1     -47.703  13.469  22.906  0.00  0.00     0.141 A 
ATOM      2  O   UNL d   1     -47.093  13.879  22.532  0.00  0.00    -0.303 OA
ATOM      3  C   UNL d   1     -47.409  12.737  23.155  0.00  0.00     0.110 A 
ATOM      4  C   UNL d   1     -46.618  12.696  22.934  0.00  0.00     0.043 A 
ATOM      5  C   UNL d   1     -46.417  13.399  22.549  0.00  0.00     0.102 A 
ATOM      6  C   UNL d   1     -48.486  13.669  23.050  0.00  0.00     0.137 A 
ATOM      7  N   UNL d   1     -48.983  13.136  23.447  0.00  0.00    -0.215 NA
ATOM      8  N   UNL d   1     -47.906  12.212  23.548  0.00  0.00    -0.222 NA
ATOM      9  C   UNL d   1     -48.689  12.412  23.692  0.00  0.00     0.200 A 
ATOM     10  C   UNL d   1     -46.049  12.102  23.037  0.00  0.00     0.004 A 
ATOM     11  C   UNL d   1     -45.649  13.514  22.264  0.00  0.00     0.025 A 
ATOM     12  C   UNL d   1     -45.281  12.217  22.751  0.00  0.00     0.000 A 
ATOM     13  C   UNL d   1     -45.085  12.919  22.368  0.00  0.00     0.002 A 
ENDROOT
BRANCH   6  14
ATOM     14  S   UNL d   1     -48.789  14.401  22.804  0.00  0.00    -0.065 SA
BRANCH  14  15
ATOM     15  C   UNL d   1     -49.534  14.643  23.066  0.00  0.00     0.037 C 
BRANCH  15  16
ATOM     16  C   UNL d   1     -49.663  15.430  23.275  0.00  0.00     0.007 C 
ATOM     17  C   UNL d   1     -50.434  15.717  23.309  0.00  0.00     0.001 C 
ENDBRANCH  15  16
ENDBRANCH  14  15
ENDBRANCH   6  14
TORSDOF 3
ENDMDL
MODEL 6
REMARK VINA RESULT:      -5.3      8.980      9.743
REMARK  3 active torsions:
REMARK  status: ('A' for Active; 'I' for Inactive)
REMARK    1  A    between atoms: S_10  and  C_6 
REMARK    2  A    between atoms: C_13  and  S_10 
REMARK    3  A    between atoms: C_14  and  C_13 
ROOT
ATOM      1  C   UNL d   1     -40.093  14.784  19.804  0.00  0.00     0.141 A 
ATOM      2  O   UNL d   1     -39.766  14.307  19.215  0.00  0.00    -0.303 OA
ATOM      3  C   UNL d   1     -40.554  15.366  19.438  0.00  0.00     0.110 A 
ATOM      4  C   UNL d   1     -40.511  15.247  18.626  0.00  0.00     0.043 A 
ATOM      5  C   UNL d   1     -40.026  14.594  18.482  0.00  0.00     0.102 A 
ATOM      6  C   UNL d   1     -40.029  14.762  20.621  0.00  0.00     0.137 A 
ATOM      7  N   UNL d   1     -40.428  15.325  21.083  0.00  0.00    -0.215 NA
ATOM      8  N   UNL d   1     -40.947  15.921  19.900  0.00  0.00    -0.222 NA
ATOM      9  C   UNL d   1     -40.883  15.900  20.719  0.00  0.00     0.200 A 
ATOM     10  C   UNL d   1     -40.857  15.655  17.992  0.00  0.00     0.004 A 
ATOM     11  C   UNL d   1     -39.882  14.344  17.706  0.00  0.00     0.025 A 
ATOM     12  C   UNL d   1     -40.712  15.404  17.217  0.00  0.00     0.000 A 
ATOM     13  C   UNL d   1     -40.228  14.753  17.078  0.00  0.00     0.002 A 
ENDROOT
BRANCH   6  14
ATOM     14  S   UNL d   1     -39.569  14.182  20.996  0.00  0.00    -0.065 SA
BRANCH  14  15
ATOM     15  C   UNL d   1     -39.491  14.191  21.818  0.00  0.00     0.037 C 
BRANCH  15  16
ATOM     16  C   UNL d   1     -39.142  13.554  22.207  0.00  0.00     0.007 C 
ATOM     17  C   UNL d   1     -38.787  13.674  22.940  0.00  0.00     0.001 C 
ENDBRANCH  15  16
ENDBRANCH  14  15
ENDBRANCH   6  14
TORSDOF 3
ENDMDL
MODEL 7
REMARK VINA RESULT:      -5.0      1.640      2.156
REMARK  3 active torsions:
REMARK  status: ('A' for Active; 'I' for Inactive)
REMARK    1  A    between atoms: S_10  and  C_6 
REMARK    2  A    between atoms: C_13  and  S_10 
REMARK    3  A    between atoms: C_14  and  C_13 
ROOT
ATOM      1  C   UNL d   1     -48.948  13.694  23.215  0.00  0.00     0.141 A 
ATOM      2  O   UNL d   1     -48.776  12.897  23.342  0.00  0.00    -0.303 OA
ATOM      3  C   UNL d   1     -49.769  13.790  23.252  0.00  0.00     0.110 A 
ATOM      4  C   UNL d   1     -50.102  13.053  23.401  0.00  0.00     0.043 A 
ATOM      5  C   UNL d   1     -49.493  12.498  23.457  0.00  0.00     0.102 A 
ATOM      6  C   UNL d   1     -48.464  14.340  23.071  0.00  0.00     0.137 A 
ATOM      7  N   UNL d   1     -48.797  15.093  22.963  0.00  0.00    -0.215 NA
ATOM      8  N   UNL d   1     -50.095  14.537  23.143  0.00  0.00    -0.222 NA
ATOM      9  C   UNL d   1     -49.610  15.185  23.000  0.00  0.00     0.200 A 
ATOM     10  C   UNL d   1     -50.891  12.816  23.493  0.00  0.00     0.004 A 
ATOM     11  C   UNL d   1     -49.666  11.702  23.606  0.00  0.00     0.025 A 
ATOM     12  C   UNL d   1     -51.063  12.020  23.642  0.00  0.00     0.000 A 
ATOM     13  C   UNL d   1     -50.454  11.470  23.698  0.00  0.00     0.002 A 
ENDROOT
BRANCH   6  14
ATOM     14  S   UNL d   1     -47.639  14.252  23.033  0.00  0.00    -0.065 SA
BRANCH  14  15
ATOM     15  C   UNL d   1     -47.192  14.784  22.586  0.00  0.00     0.037 C 
BRANCH  15  16
ATOM     16  C   UNL d   1     -46.382  14.669  22.494  0.00  0.00     0.007 C 
ATOM     17  C   UNL d   1     -45.994  14.128  22.979  0.00  0.00     0.001 C 
ENDBRANCH  15  16
ENDBRANCH  14  15
ENDBRANCH   6  14
TORSDOF 3
ENDMDL
MODEL 8
REMARK VINA RESULT:      -4.9      8.906      9.900
REMARK  3 active torsions:
REMARK  status: ('A' for Active; 'I' for Inactive)
REMARK    1  A    between atoms: S_10  and  C_6 
REMARK    2  A    between atoms: C_13  and  S_10 
REMARK    3  A    between atoms: C_14  and  C_13 
ROOT
ATOM      1  C   UNL d   1     -39.845  14.828  20.094  0.00  0.00     0.141 A 
ATOM      2  O   UNL d   1     -39.222  14.300  19.979  0.00  0.00    -0.303 OA
ATOM      3  C   UNL d   1     -39.967  14.909  20.908  0.00  0.00     0.110 A 
ATOM      4  C   UNL d   1     -39.419  14.433  21.294  0.00  0.00     0.043 A 
ATOM      5  C   UNL d   1     -38.956  14.054  20.725  0.00  0.00     0.102 A 
ATOM      6  C   UNL d   1     -40.315  15.241  19.564  0.00  0.00     0.137 A 
ATOM      7  N   UNL d   1     -40.914  15.743  19.844  0.00  0.00    -0.215 NA
ATOM      8  N   UNL d   1     -40.562  15.408  21.181  0.00  0.00    -0.222 NA
ATOM      9  C   UNL d   1     -41.032  15.822  20.650  0.00  0.00     0.200 A 
ATOM     10  C   UNL d   1     -39.282  14.295  22.100  0.00  0.00     0.004 A 
ATOM     11  C   UNL d   1     -38.353  13.536  20.954  0.00  0.00     0.025 A 
ATOM     12  C   UNL d   1     -38.679  13.776  22.329  0.00  0.00     0.000 A 
ATOM     13  C   UNL d   1     -38.220  13.401  21.759  0.00  0.00     0.002 A 
ENDROOT
BRANCH   6  14
ATOM     14  S   UNL d   1     -40.199  15.165  18.745  0.00  0.00    -0.065 SA
BRANCH  14  15
ATOM     15  C   UNL d   1     -40.761  15.472  18.223  0.00  0.00     0.037 C 
BRANCH  15  16
ATOM     16  C   UNL d   1     -40.761  15.240  17.432  0.00  0.00     0.007 C 
ATOM     17  C   UNL d   1     -40.993  15.778  16.854  0.00  0.00     0.001 C 
ENDBRANCH  15  16
ENDBRANCH  14  15
ENDBRANCH   6  14
TORSDOF 3
ENDMDL
