MODEL 1
REMARK VINA RESULT:      -5.3      0.000      0.000
REMARK  3 active torsions:
REMARK  status: ('A' for Active; 'I' for Inactive)
REMARK    1  A    between atoms: C_10  and  C_5 
REMARK    2  A    between atoms: S_9  and  C_10 
REMARK    3  A    between atoms: C_11  and  S_9 
ROOT
ATOM      1  C   UNL d   1      58.480   0.252  29.234  0.00  0.00     0.179 A 
ATOM      2  N   UNL d   1      59.061   0.474  29.770  0.00  0.00    -0.283 N 
ATOM      3  N   UNL d   1      57.768   0.243  29.631  0.00  0.00    -0.220 NA
ATOM      4  S   UNL d   1      58.842   0.127  28.514  0.00  0.00    -0.048 SA
ATOM      5  C   UNL d   1      57.899   0.458  30.411  0.00  0.00     0.107 A 
ATOM      6  C   UNL d   1      58.704   0.602  30.495  0.00  0.00     0.102 A 
ATOM      7  C   UNL d   1      59.779   0.486  29.378  0.00  0.00     0.073 A 
ATOM      8  C   UNL d   1      59.631   0.271  28.610  0.00  0.00     0.056 A 
ATOM      9  C   UNL d   1      60.517   0.682  29.713  0.00  0.00     0.020 C 
ENDROOT
BRANCH   5  10
ATOM     10  C   UNL d   1      57.311   0.516  31.000  0.00  0.00     0.056 C 
BRANCH  10  11
ATOM     11  S   UNL d   1      57.295  -0.054  31.595  0.00  0.00    -0.085 SA
BRANCH  11  12
ATOM     12  C   UNL d   1      56.683  -0.050  32.142  0.00  0.00     0.030 A 
ATOM     13  C   UNL d   1      56.379   0.669  32.435  0.00  0.00     0.007 A 
ATOM     14  C   UNL d   1      55.769   0.673  32.980  0.00  0.00     0.012 A 
ATOM     15  C   UNL d   1      55.451  -0.042  33.242  0.00  0.00     0.058 A 
ATOM     16  C   UNL d   1      55.742  -0.764  32.961  0.00  0.00     0.012 A 
ATOM     17 CL   UNL d   1      54.844  -0.054  33.785  0.00  0.00    -0.082 Cl
ATOM     18  C   UNL d   1      56.368  -0.768  32.402  0.00  0.00     0.007 A 
ENDBRANCH  11  12
ENDBRANCH  10  11
ENDBRANCH   5  10
TORSDOF 3
ENDMDL
MODEL 2
REMARK VINA RESULT:      -4.3      2.205      4.590
REMARK  3 active torsions:
REMARK  status: ('A' for Active; 'I' for Inactive)
REMARK    1  A    between atoms: C_10  and  C_5 
REMARK    2  A    between atoms: S_9  and  C_10 
REMARK    3  A    between atoms: C_11  and  S_9 
ROOT
ATOM      1  C   UNL d   1      56.321  -0.875  32.404  0.00  0.00     0.179 A 
ATOM      2  N   UNL d   1      56.172  -0.079  32.545  0.00  0.00    -0.283 N 
ATOM      3  N   UNL d   1      56.829  -0.922  31.768  0.00  0.00    -0.220 NA
ATOM      4  S   UNL d   1      55.903  -1.306  32.955  0.00  0.00    -0.048 SA
ATOM      5  C   UNL d   1      56.999  -0.163  31.510  0.00  0.00     0.107 A 
ATOM      6  C   UNL d   1      56.589   0.360  31.995  0.00  0.00     0.102 A 
ATOM      7  C   UNL d   1      55.663  -0.024  33.182  0.00  0.00     0.073 A 
ATOM      8  C   UNL d   1      55.505  -0.782  33.424  0.00  0.00     0.056 A 
ATOM      9  C   UNL d   1      55.367   0.682  33.513  0.00  0.00     0.020 C 
ENDROOT
BRANCH   5  10
ATOM     10  C   UNL d   1      57.499   0.027  30.870  0.00  0.00     0.056 C 
BRANCH  10  11
ATOM     11  S   UNL d   1      58.160   0.496  31.016  0.00  0.00    -0.085 SA
BRANCH  11  12
ATOM     12  C   UNL d   1      58.756   0.543  30.451  0.00  0.00     0.030 A 
ATOM     13  C   UNL d   1      59.553   0.627  30.680  0.00  0.00     0.007 A 
ATOM     14  C   UNL d   1      60.145   0.674  30.118  0.00  0.00     0.012 A 
ATOM     15  C   UNL d   1      59.951   0.637  29.317  0.00  0.00     0.058 A 
ATOM     16  C   UNL d   1      59.164   0.554  29.074  0.00  0.00     0.012 A 
ATOM     17 CL   UNL d   1      60.530   0.682  28.745  0.00  0.00    -0.082 Cl
ATOM     18  C   UNL d   1      58.557   0.506  29.651  0.00  0.00     0.007 A 
ENDBRANCH  11  12
ENDBRANCH  10  11
ENDBRANCH   5  10
TORSDOF 3
ENDMDL
MODEL 3
REMARK VINA RESULT:      -2.4     10.211     10.400
REMARK  3 active torsions:
REMARK  status: ('A' for Active; 'I' for Inactive)
REMARK    1  A    between atoms: C_10  and  C_5 
REMARK    2  A    between atoms: S_9  and  C_10 
REMARK    3  A    between atoms: C_11  and  S_9 
ROOT
ATOM      1  C   UNL d   1      57.517  -9.805  31.462  0.00  0.00     0.179 A 
ATOM      2  N   UNL d   1      58.268  -9.810  31.129  0.00  0.00    -0.283 N 
ATOM      3  N   UNL d   1      57.606  -9.805  32.273  0.00  0.00    -0.220 NA
ATOM      4  S   UNL d   1      56.976  -9.801  30.852  0.00  0.00    -0.048 SA
ATOM      5  C   UNL d   1      58.406  -9.810  32.450  0.00  0.00     0.107 A 
ATOM      6  C   UNL d   1      58.816  -9.814  31.736  0.00  0.00     0.102 A 
ATOM      7  C   UNL d   1      58.186  -9.811  30.316  0.00  0.00     0.073 A 
ATOM      8  C   UNL d   1      57.390  -9.805  30.159  0.00  0.00     0.056 A 
ATOM      9  C   UNL d   1      58.808  -9.815  29.761  0.00  0.00     0.020 C 
ENDROOT
BRANCH   5  10
ATOM     10  C   UNL d   1      58.730  -9.812  33.218  0.00  0.00     0.056 C 
BRANCH  10  11
ATOM     11  S   UNL d   1      59.518  -9.594  33.312  0.00  0.00    -0.085 SA
BRANCH  11  12
ATOM     12  C   UNL d   1      59.801  -9.410  34.061  0.00  0.00     0.030 A 
ATOM     13  C   UNL d   1      60.520  -9.000  34.156  0.00  0.00     0.007 A 
ATOM     14  C   UNL d   1      60.802  -8.818  34.902  0.00  0.00     0.012 A 
ATOM     15  C   UNL d   1      60.369  -9.043  35.567  0.00  0.00     0.058 A 
ATOM     16  C   UNL d   1      59.653  -9.450  35.490  0.00  0.00     0.012 A 
ATOM     17 CL   UNL d   1      60.637  -8.869  36.316  0.00  0.00    -0.082 Cl
ATOM     18  C   UNL d   1      59.364  -9.637  34.724  0.00  0.00     0.007 A 
ENDBRANCH  11  12
ENDBRANCH  10  11
ENDBRANCH   5  10
TORSDOF 3
ENDMDL
