MODEL 1
REMARK VINA RESULT:      -4.0      0.000      0.000
REMARK  3 active torsions:
REMARK  status: ('A' for Active; 'I' for Inactive)
REMARK    1  A    between atoms: N_5  and  C_1 
REMARK    2  A    between atoms: N_8  and  N_5 
REMARK    3  A    between atoms: C_7  and  N_8 
ROOT
ATOM      1  C   UNL d   1     -42.174-122.724 -50.082  0.00  0.00     0.162 A 
ATOM      2  C   UNL d   1     -42.961-122.502 -49.996  0.00  0.00     0.299 A 
ATOM      3  N   UNL d   1     -43.205-122.715 -49.236  0.00  0.00    -0.207 NA
ATOM      4  C   UNL d   1     -41.925-123.077 -49.372  0.00  0.00     0.042 A 
ATOM      5  C   UNL d   1     -42.562-123.071 -48.850  0.00  0.00     0.086 A 
ATOM      6  O   UNL d   1     -43.429-122.130 -50.570  0.00  0.00    -0.263 OA
ATOM      7  C   UNL d   1     -41.199-123.400 -49.142  0.00  0.00     0.003 A 
ATOM      8  C   UNL d   1     -42.473-123.388 -48.097  0.00  0.00     0.019 A 
ATOM      9  C   UNL d   1     -41.123-123.714 -48.387  0.00  0.00     0.000 A 
ATOM     10  C   UNL d   1     -41.763-123.708 -47.862  0.00  0.00     0.002 A 
ENDROOT
BRANCH   1  11
ATOM     11  N   UNL d   1     -41.704-122.617 -50.757  0.00  0.00    -0.141 NA
BRANCH  11  12
ATOM     12  N   UNL d   1     -41.805-123.122 -51.411  0.00  0.00    -0.115 NA
BRANCH  12  13
ATOM     13  C   UNL d   1     -41.360-122.995 -52.099  0.00  0.00     0.260 C 
ATOM     14  S   UNL d   1     -41.154-123.630 -52.587  0.00  0.00    -0.034 SA
ATOM     15  N   UNL d   1     -41.124-122.221 -52.295  0.00  0.00    -0.113 N 
ENDBRANCH  12  13
ENDBRANCH  11  12
ENDBRANCH   1  11
TORSDOF 3
ENDMDL
MODEL 2
REMARK VINA RESULT:      -3.9      2.497      3.334
REMARK  3 active torsions:
REMARK  status: ('A' for Active; 'I' for Inactive)
REMARK    1  A    between atoms: N_5  and  C_1 
REMARK    2  A    between atoms: N_8  and  N_5 
REMARK    3  A    between atoms: C_7  and  N_8 
ROOT
ATOM      1  C   UNL d   1     -41.436-122.547 -53.015  0.00  0.00     0.162 A 
ATOM      2  C   UNL d   1     -41.247-123.348 -53.041  0.00  0.00     0.299 A 
ATOM      3  N   UNL d   1     -41.123-123.606 -52.266  0.00  0.00    -0.207 NA
ATOM      4  C   UNL d   1     -41.430-122.305 -52.220  0.00  0.00     0.042 A 
ATOM      5  C   UNL d   1     -41.236-122.960 -51.758  0.00  0.00     0.086 A 
ATOM      6  O   UNL d   1     -41.190-123.813 -53.724  0.00  0.00    -0.263 OA
ATOM      7  C   UNL d   1     -41.577-121.572 -51.865  0.00  0.00     0.003 A 
ATOM      8  C   UNL d   1     -41.190-122.880 -50.941  0.00  0.00     0.019 A 
ATOM      9  C   UNL d   1     -41.527-121.506 -51.048  0.00  0.00     0.000 A 
ATOM     10  C   UNL d   1     -41.332-122.164 -50.584  0.00  0.00     0.002 A 
ENDROOT
BRANCH   1  11
ATOM     11  N   UNL d   1     -41.604-122.061 -53.664  0.00  0.00    -0.141 NA
BRANCH  11  12
ATOM     12  N   UNL d   1     -42.161-122.311 -54.231  0.00  0.00    -0.115 NA
BRANCH  12  13
ATOM     13  C   UNL d   1     -42.279-121.860 -54.917  0.00  0.00     0.260 C 
ATOM     14  S   UNL d   1     -41.905-122.069 -55.624  0.00  0.00    -0.034 SA
ATOM     15  N   UNL d   1     -42.777-121.194 -54.886  0.00  0.00    -0.113 N 
ENDBRANCH  12  13
ENDBRANCH  11  12
ENDBRANCH   1  11
TORSDOF 3
ENDMDL
MODEL 3
REMARK VINA RESULT:      -2.3      1.627      3.113
REMARK  3 active torsions:
REMARK  status: ('A' for Active; 'I' for Inactive)
REMARK    1  A    between atoms: N_5  and  C_1 
REMARK    2  A    between atoms: N_8  and  N_5 
REMARK    3  A    between atoms: C_7  and  N_8 
ROOT
ATOM      1  C   UNL d   1     -42.397-122.922 -50.104  0.00  0.00     0.162 A 
ATOM      2  C   UNL d   1     -42.773-122.203 -50.238  0.00  0.00     0.299 A 
ATOM      3  N   UNL d   1     -42.575-121.950 -50.999  0.00  0.00    -0.207 NA
ATOM      4  C   UNL d   1     -41.963-123.119 -50.784  0.00  0.00     0.042 A 
ATOM      5  C   UNL d   1     -42.074-122.519 -51.337  0.00  0.00     0.086 A 
ATOM      6  O   UNL d   1     -43.262-121.801 -49.704  0.00  0.00    -0.263 OA
ATOM      7  C   UNL d   1     -41.485-123.771 -50.964  0.00  0.00     0.003 A 
ATOM      8  C   UNL d   1     -41.706-122.569 -52.071  0.00  0.00     0.019 A 
ATOM      9  C   UNL d   1     -41.122-123.809 -51.701  0.00  0.00     0.000 A 
ATOM     10  C   UNL d   1     -41.234-123.205 -52.256  0.00  0.00     0.002 A 
ENDROOT
BRANCH   1  11
ATOM     11  N   UNL d   1     -42.439-123.377 -49.412  0.00  0.00    -0.141 NA
BRANCH  11  12
ATOM     12  N   UNL d   1     -42.297-123.016 -48.674  0.00  0.00    -0.115 NA
BRANCH  12  13
ATOM     13  C   UNL d   1     -42.215-123.487 -47.997  0.00  0.00     0.260 C 
ATOM     14  S   UNL d   1     -41.466-123.627 -47.674  0.00  0.00    -0.034 SA
ATOM     15  N   UNL d   1     -42.892-123.817 -47.645  0.00  0.00    -0.113 N 
ENDBRANCH  12  13
ENDBRANCH  11  12
ENDBRANCH   1  11
TORSDOF 3
ENDMDL
