MODEL 1
REMARK VINA RESULT:      -9.5      0.000      0.000
REMARK  3 active torsions:
REMARK  status: ('A' for Active; 'I' for Inactive)
REMARK    1  A    between atoms: C_7  and  C_8 
REMARK       I    between atoms: N_10  and  C_7 
REMARK    2  A    between atoms: C_19  and  N_10 
REMARK    3  A    between atoms: C_11  and  C_19 
ROOT
ATOM      1  C   UNL d   1     -48.382  12.946  23.125  0.00  0.00     0.039 A 
ATOM      2  C   UNL d   1     -49.173  13.177  23.071  0.00  0.00     0.196 A 
ATOM      3  C   UNL d   1     -47.912  13.602  22.956  0.00  0.00     0.003 A 
ATOM      4  C   UNL d   1     -49.190  13.980  22.868  0.00  0.00     0.039 A 
ATOM      5  C   UNL d   1     -48.412  14.239  22.797  0.00  0.00     0.003 A 
ATOM      6  C   UNL d   1     -48.029  12.230  23.304  0.00  0.00     0.008 A 
ATOM      7  C   UNL d   1     -47.214  12.161  23.316  0.00  0.00     0.058 A 
ATOM      8  C   UNL d   1     -47.084  13.542  22.966  0.00  0.00     0.000 A 
ATOM      9  O   UNL d   1     -49.832  12.697  23.197  0.00  0.00    -0.287 OA
ATOM     10  C   UNL d   1     -46.737  12.813  23.148  0.00  0.00     0.005 A 
ATOM     11  C   UNL d   1     -49.812  14.499  22.740  0.00  0.00     0.003 A 
ATOM     12  C   UNL d   1     -48.255  15.024  22.598  0.00  0.00     0.000 A 
ATOM     13  C   UNL d   1     -49.659  15.282  22.541  0.00  0.00     0.000 A 
ATOM     14  C   UNL d   1     -48.880  15.547  22.469  0.00  0.00     0.000 A 
ENDROOT
BRANCH   7  15
ATOM     15  C   UNL d   1     -46.860  11.436  23.498  0.00  0.00     0.279 C 
ATOM     16  N   UNL d   1     -46.043  11.363  23.478  0.00  0.00    -0.204 NA
ATOM     17  O   UNL d   1     -47.327  10.789  23.698  0.00  0.00    -0.265 OA
BRANCH  16  18
ATOM     18  C   UNL d   1     -45.681  10.641  23.658  0.00  0.00     0.127 C 
BRANCH  18  19
ATOM     19  C   UNL d   1     -44.872  10.549  23.565  0.00  0.00     0.119 A 
ATOM     20  O   UNL d   1     -44.344  11.138  23.340  0.00  0.00    -0.304 OA
ATOM     21  C   UNL d   1     -43.587  10.810  23.314  0.00  0.00     0.123 A 
ATOM     22  C   UNL d   1     -43.653  10.012  23.525  0.00  0.00     0.029 A 
ATOM     23  C   UNL d   1     -44.449   9.851  23.681  0.00  0.00     0.028 A 
ENDBRANCH  18  19
ENDBRANCH  16  18
ENDBRANCH   7  15
TORSDOF 3
ENDMDL
MODEL 2
REMARK VINA RESULT:      -9.3      1.194      1.594
REMARK  3 active torsions:
REMARK  status: ('A' for Active; 'I' for Inactive)
REMARK    1  A    between atoms: C_7  and  C_8 
REMARK       I    between atoms: N_10  and  C_7 
REMARK    2  A    between atoms: C_19  and  N_10 
REMARK    3  A    between atoms: C_11  and  C_19 
ROOT
ATOM      1  C   UNL d   1     -47.931  13.286  22.085  0.00  0.00     0.039 A 
ATOM      2  C   UNL d   1     -48.621  13.014  21.722  0.00  0.00     0.196 A 
ATOM      3  C   UNL d   1     -48.124  13.950  22.534  0.00  0.00     0.003 A 
ATOM      4  C   UNL d   1     -49.241  13.514  21.948  0.00  0.00     0.039 A 
ATOM      5  C   UNL d   1     -48.931  14.090  22.448  0.00  0.00     0.003 A 
ATOM      6  C   UNL d   1     -47.158  13.018  22.067  0.00  0.00     0.008 A 
ATOM      7  C   UNL d   1     -46.575  13.405  22.491  0.00  0.00     0.058 A 
ATOM      8  C   UNL d   1     -47.539  14.350  22.967  0.00  0.00     0.000 A 
ATOM      9  O   UNL d   1     -48.686  12.361  21.222  0.00  0.00    -0.287 OA
ATOM     10  C   UNL d   1     -46.760  14.072  22.943  0.00  0.00     0.005 A 
ATOM     11  C   UNL d   1     -50.040  13.515  21.761  0.00  0.00     0.003 A 
ATOM     12  C   UNL d   1     -49.425  14.671  22.764  0.00  0.00     0.000 A 
ATOM     13  C   UNL d   1     -50.534  14.092  22.075  0.00  0.00     0.000 A 
ATOM     14  C   UNL d   1     -50.229  14.672  22.577  0.00  0.00     0.000 A 
ENDROOT
BRANCH   7  15
ATOM     15  C   UNL d   1     -45.795  13.133  22.472  0.00  0.00     0.279 C 
ATOM     16  N   UNL d   1     -45.610  12.397  22.785  0.00  0.00    -0.204 NA
ATOM     17  O   UNL d   1     -45.205  13.600  22.139  0.00  0.00    -0.265 OA
BRANCH  16  18
ATOM     18  C   UNL d   1     -44.831  12.118  22.769  0.00  0.00     0.127 C 
BRANCH  18  19
ATOM     19  C   UNL d   1     -44.650  11.380  23.076  0.00  0.00     0.119 A 
ATOM     20  O   UNL d   1     -45.165  10.892  23.490  0.00  0.00    -0.304 OA
ATOM     21  C   UNL d   1     -44.760  10.204  23.697  0.00  0.00     0.123 A 
ATOM     22  C   UNL d   1     -43.987  10.272  23.405  0.00  0.00     0.029 A 
ATOM     23  C   UNL d   1     -43.920  11.000  23.020  0.00  0.00     0.028 A 
ENDBRANCH  18  19
ENDBRANCH  16  18
ENDBRANCH   7  15
TORSDOF 3
ENDMDL
MODEL 3
REMARK VINA RESULT:      -7.5      8.048     10.051
REMARK  3 active torsions:
REMARK  status: ('A' for Active; 'I' for Inactive)
REMARK    1  A    between atoms: C_7  and  C_8 
REMARK       I    between atoms: N_10  and  C_7 
REMARK    2  A    between atoms: C_19  and  N_10 
REMARK    3  A    between atoms: C_11  and  C_19 
ROOT
ATOM      1  C   UNL d   1     -39.180  13.802  17.742  0.00  0.00     0.039 A 
ATOM      2  C   UNL d   1     -38.728  13.225  17.362  0.00  0.00     0.196 A 
ATOM      3  C   UNL d   1     -39.242  14.451  17.236  0.00  0.00     0.003 A 
ATOM      4  C   UNL d   1     -38.511  13.519  16.619  0.00  0.00     0.039 A 
ATOM      5  C   UNL d   1     -38.829  14.275  16.545  0.00  0.00     0.003 A 
ATOM      6  C   UNL d   1     -39.541  13.824  18.475  0.00  0.00     0.008 A 
ATOM      7  C   UNL d   1     -39.963  14.484  18.711  0.00  0.00     0.058 A 
ATOM      8  C   UNL d   1     -39.667  15.126  17.466  0.00  0.00     0.000 A 
ATOM      9  O   UNL d   1     -38.527  12.484  17.665  0.00  0.00    -0.287 OA
ATOM     10  C   UNL d   1     -40.029  15.138  18.210  0.00  0.00     0.005 A 
ATOM     11  C   UNL d   1     -38.067  13.195  16.010  0.00  0.00     0.003 A 
ATOM     12  C   UNL d   1     -38.702  14.709  15.855  0.00  0.00     0.000 A 
ATOM     13  C   UNL d   1     -37.940  13.626  15.321  0.00  0.00     0.000 A 
ATOM     14  C   UNL d   1     -38.256  14.384  15.241  0.00  0.00     0.000 A 
ENDROOT
BRANCH   7  15
ATOM     15  C   UNL d   1     -40.327  14.504  19.453  0.00  0.00     0.279 C 
ATOM     16  N   UNL d   1     -39.936  14.840  20.092  0.00  0.00    -0.204 NA
ATOM     17  O   UNL d   1     -41.080  14.187  19.550  0.00  0.00    -0.265 OA
BRANCH  16  18
ATOM     18  C   UNL d   1     -40.295  14.863  20.838  0.00  0.00     0.127 C 
BRANCH  18  19
ATOM     19  C   UNL d   1     -39.875  15.127  21.490  0.00  0.00     0.119 A 
ATOM     20  O   UNL d   1     -39.398  14.664  21.974  0.00  0.00    -0.304 OA
ATOM     21  C   UNL d   1     -39.080  15.148  22.562  0.00  0.00     0.123 A 
ATOM     22  C   UNL d   1     -39.367  15.915  22.437  0.00  0.00     0.029 A 
ATOM     23  C   UNL d   1     -39.858  15.902  21.773  0.00  0.00     0.028 A 
ENDBRANCH  18  19
ENDBRANCH  16  18
ENDBRANCH   7  15
TORSDOF 3
ENDMDL
MODEL 4
REMARK VINA RESULT:      -7.3      1.630      4.949
REMARK  3 active torsions:
REMARK  status: ('A' for Active; 'I' for Inactive)
REMARK    1  A    between atoms: C_7  and  C_8 
REMARK       I    between atoms: N_10  and  C_7 
REMARK    2  A    between atoms: C_19  and  N_10 
REMARK    3  A    between atoms: C_11  and  C_19 
ROOT
ATOM      1  C   UNL d   1     -46.478  12.480  22.984  0.00  0.00     0.039 A 
ATOM      2  C   UNL d   1     -45.862  11.959  23.160  0.00  0.00     0.196 A 
ATOM      3  C   UNL d   1     -46.189  13.050  22.463  0.00  0.00     0.003 A 
ATOM      4  C   UNL d   1     -45.191  12.209  22.745  0.00  0.00     0.039 A 
ATOM      5  C   UNL d   1     -45.395  12.882  22.317  0.00  0.00     0.003 A 
ATOM      6  C   UNL d   1     -47.258  12.512  23.227  0.00  0.00     0.008 A 
ATOM      7  C   UNL d   1     -47.753  13.104  22.957  0.00  0.00     0.058 A 
ATOM      8  C   UNL d   1     -46.683  13.655  22.183  0.00  0.00     0.000 A 
ATOM      9  O   UNL d   1     -45.904  11.304  23.660  0.00  0.00    -0.287 OA
ATOM     10  C   UNL d   1     -47.471  13.679  22.435  0.00  0.00     0.005 A 
ATOM     11  C   UNL d   1     -44.428  11.910  22.707  0.00  0.00     0.003 A 
ATOM     12  C   UNL d   1     -44.831  13.257  21.846  0.00  0.00     0.000 A 
ATOM     13  C   UNL d   1     -43.864  12.282  22.238  0.00  0.00     0.000 A 
ATOM     14  C   UNL d   1     -44.063  12.957  21.806  0.00  0.00     0.000 A 
ENDROOT
BRANCH   7  15
ATOM     15  C   UNL d   1     -48.542  13.134  23.204  0.00  0.00     0.279 C 
ATOM     16  N   UNL d   1     -48.937  13.853  23.226  0.00  0.00    -0.204 NA
ATOM     17  O   UNL d   1     -48.929  12.443  23.428  0.00  0.00    -0.265 OA
BRANCH  16  18
ATOM     18  C   UNL d   1     -49.727  13.891  23.472  0.00  0.00     0.127 C 
BRANCH  18  19
ATOM     19  C   UNL d   1     -50.111  14.613  23.519  0.00  0.00     0.119 A 
ATOM     20  O   UNL d   1     -49.759  15.334  23.697  0.00  0.00    -0.304 OA
ATOM     21  C   UNL d   1     -50.343  15.917  23.686  0.00  0.00     0.123 A 
ATOM     22  C   UNL d   1     -51.061  15.548  23.498  0.00  0.00     0.029 A 
ATOM     23  C   UNL d   1     -50.916  14.740  23.395  0.00  0.00     0.028 A 
ENDBRANCH  18  19
ENDBRANCH  16  18
ENDBRANCH   7  15
TORSDOF 3
ENDMDL
MODEL 5
REMARK VINA RESULT:      -7.1      7.717      8.847
REMARK  3 active torsions:
REMARK  status: ('A' for Active; 'I' for Inactive)
REMARK    1  A    between atoms: C_7  and  C_8 
REMARK       I    between atoms: N_10  and  C_7 
REMARK    2  A    between atoms: C_19  and  N_10 
REMARK    3  A    between atoms: C_11  and  C_19 
ROOT
ATOM      1  C   UNL d   1     -40.034  14.367  18.809  0.00  0.00     0.039 A 
ATOM      2  C   UNL d   1     -39.790  14.019  18.101  0.00  0.00     0.196 A 
ATOM      3  C   UNL d   1     -40.281  15.137  18.643  0.00  0.00     0.003 A 
ATOM      4  C   UNL d   1     -39.887  14.577  17.496  0.00  0.00     0.039 A 
ATOM      5  C   UNL d   1     -40.190  15.264  17.834  0.00  0.00     0.003 A 
ATOM      6  C   UNL d   1     -40.064  14.088  19.577  0.00  0.00     0.008 A 
ATOM      7  C   UNL d   1     -40.337  14.567  20.181  0.00  0.00     0.058 A 
ATOM      8  C   UNL d   1     -40.560  15.630  19.249  0.00  0.00     0.000 A 
ATOM      9  O   UNL d   1     -39.501  13.252  18.007  0.00  0.00    -0.287 OA
ATOM     10  C   UNL d   1     -40.586  15.338  20.024  0.00  0.00     0.005 A 
ATOM     11  C   UNL d   1     -39.739  14.542  16.690  0.00  0.00     0.003 A 
ATOM     12  C   UNL d   1     -40.345  15.922  17.360  0.00  0.00     0.000 A 
ATOM     13  C   UNL d   1     -39.893  15.197  16.216  0.00  0.00     0.000 A 
ATOM     14  C   UNL d   1     -40.196  15.889  16.549  0.00  0.00     0.000 A 
ENDROOT
BRANCH   7  15
ATOM     15  C   UNL d   1     -40.367  14.283  20.957  0.00  0.00     0.279 C 
ATOM     16  N   UNL d   1     -39.682  14.249  21.407  0.00  0.00    -0.204 NA
ATOM     17  O   UNL d   1     -41.084  14.034  21.277  0.00  0.00    -0.265 OA
BRANCH  16  18
ATOM     18  C   UNL d   1     -39.704  13.966  22.185  0.00  0.00     0.127 C 
BRANCH  18  19
ATOM     19  C   UNL d   1     -39.022  13.955  22.641  0.00  0.00     0.119 A 
ATOM     20  O   UNL d   1     -38.670  14.608  22.993  0.00  0.00    -0.304 OA
ATOM     21  C   UNL d   1     -37.998  14.352  23.398  0.00  0.00     0.123 A 
ATOM     22  C   UNL d   1     -37.940  13.533  23.292  0.00  0.00     0.029 A 
ATOM     23  C   UNL d   1     -38.574  13.287  22.823  0.00  0.00     0.028 A 
ENDBRANCH  18  19
ENDBRANCH  16  18
ENDBRANCH   7  15
TORSDOF 3
ENDMDL
MODEL 6
REMARK VINA RESULT:      -6.7      1.888      2.384
REMARK  3 active torsions:
REMARK  status: ('A' for Active; 'I' for Inactive)
REMARK    1  A    between atoms: C_7  and  C_8 
REMARK       I    between atoms: N_10  and  C_7 
REMARK    2  A    between atoms: C_19  and  N_10 
REMARK    3  A    between atoms: C_11  and  C_19 
ROOT
ATOM      1  C   UNL d   1     -47.060  13.798  22.843  0.00  0.00     0.039 A 
ATOM      2  C   UNL d   1     -47.371  14.553  22.723  0.00  0.00     0.196 A 
ATOM      3  C   UNL d   1     -47.674  13.305  23.090  0.00  0.00     0.003 A 
ATOM      4  C   UNL d   1     -48.180  14.525  22.897  0.00  0.00     0.039 A 
ATOM      5  C   UNL d   1     -48.364  13.755  23.122  0.00  0.00     0.003 A 
ATOM      6  C   UNL d   1     -46.304  13.495  22.762  0.00  0.00     0.008 A 
ATOM      7  C   UNL d   1     -46.154  12.707  22.923  0.00  0.00     0.058 A 
ATOM      8  C   UNL d   1     -47.531  12.504  23.256  0.00  0.00     0.000 A 
ATOM      9  O   UNL d   1     -46.954  15.220  22.475  0.00  0.00    -0.287 OA
ATOM     10  C   UNL d   1     -46.763  12.207  23.170  0.00  0.00     0.005 A 
ATOM     11  C   UNL d   1     -48.765  15.101  22.877  0.00  0.00     0.003 A 
ATOM     12  C   UNL d   1     -49.138  13.559  23.329  0.00  0.00     0.000 A 
ATOM     13  C   UNL d   1     -49.537  14.908  23.082  0.00  0.00     0.000 A 
ATOM     14  C   UNL d   1     -49.727  14.137  23.309  0.00  0.00     0.000 A 
ENDROOT
BRANCH   7  15
ATOM     15  C   UNL d   1     -45.390  12.403  22.840  0.00  0.00     0.279 C 
ATOM     16  N   UNL d   1     -44.896  12.691  22.251  0.00  0.00    -0.204 NA
ATOM     17  O   UNL d   1     -45.125  11.812  23.348  0.00  0.00    -0.265 OA
BRANCH  16  18
ATOM     18  C   UNL d   1     -44.129  12.392  22.162  0.00  0.00     0.127 C 
BRANCH  18  19
ATOM     19  C   UNL d   1     -43.582  12.787  21.697  0.00  0.00     0.119 A 
ATOM     20  O   UNL d   1     -43.101  13.407  21.943  0.00  0.00    -0.304 OA
ATOM     21  C   UNL d   1     -42.636  13.642  21.303  0.00  0.00     0.123 A 
ATOM     22  C   UNL d   1     -42.835  13.161  20.659  0.00  0.00     0.029 A 
ATOM     23  C   UNL d   1     -43.421  12.632  20.903  0.00  0.00     0.028 A 
ENDBRANCH  18  19
ENDBRANCH  16  18
ENDBRANCH   7  15
TORSDOF 3
ENDMDL
