MODEL 1
REMARK VINA RESULT:      -8.0      0.000      0.000
REMARK  3 active torsions:
REMARK  status: ('A' for Active; 'I' for Inactive)
REMARK    1  A    between atoms: C_5  and  C_2 
REMARK    2  A    between atoms: C_10  and  C_4 
REMARK    3  A    between atoms: O_19  and  C_16 
ROOT
ATOM      1  N   UNL d   1     -50.133  13.474  23.308  0.00  0.00    -0.245 NA
ATOM      2  C   UNL d   1     -49.513  12.968  23.155  0.00  0.00     0.088 A 
ATOM      3  S   UNL d   1     -48.673  14.604  23.077  0.00  0.00    -0.085 SA
ATOM      4  C   UNL d   1     -48.330  13.884  22.967  0.00  0.00     0.031 A 
ATOM      5  C   UNL d   1     -48.711  13.137  23.002  0.00  0.00     0.026 A 
ATOM      6  C   UNL d   1     -50.095  14.291  23.346  0.00  0.00     0.087 A 
ATOM      7  C   UNL d   1     -49.449  14.791  23.244  0.00  0.00     0.047 A 
ATOM      8  C   UNL d   1     -50.827  14.621  23.513  0.00  0.00     0.020 A 
ATOM      9  C   UNL d   1     -49.531  15.624  23.308  0.00  0.00     0.008 A 
ATOM     10  C   UNL d   1     -50.933  15.422  23.579  0.00  0.00     0.002 A 
ATOM     11  C   UNL d   1     -50.287  15.922  23.477  0.00  0.00     0.001 A 
ENDROOT
BRANCH   4  12
ATOM     12  C   UNL d   1     -47.538  13.804  22.803  0.00  0.00     0.006 A 
ATOM     13  C   UNL d   1     -47.284  13.783  22.007  0.00  0.00     0.003 A 
ATOM     14  C   UNL d   1     -46.494  13.703  21.843  0.00  0.00     0.024 A 
ATOM     15  C   UNL d   1     -45.949  13.644  22.461  0.00  0.00     0.094 A 
ATOM     16  C   UNL d   1     -46.191  13.665  23.239  0.00  0.00     0.024 A 
ATOM     17  C   UNL d   1     -46.994  13.745  23.421  0.00  0.00     0.003 A 
BRANCH  15  18
ATOM     18  O   UNL d   1     -45.127  13.561  22.311  0.00  0.00    -0.328 OA
ATOM     19  C   UNL d   1     -44.847  12.978  21.785  0.00  0.00     0.181 C 
ENDBRANCH  15  18
ENDBRANCH   4  12
BRANCH   2  20
ATOM     20  C   UNL d   1     -49.218  12.177  23.050  0.00  0.00     0.047 A 
ATOM     21  S   UNL d   1     -49.050  11.709  23.698  0.00  0.00    -0.085 SA
ATOM     22  C   UNL d   1     -48.779  10.988  23.405  0.00  0.00     0.035 A 
ATOM     23  C   UNL d   1     -48.775  10.996  22.595  0.00  0.00     0.007 A 
ATOM     24  C   UNL d   1     -49.045  11.728  22.374  0.00  0.00     0.009 A 
ENDBRANCH   2  20
TORSDOF 3
ENDMDL
MODEL 2
REMARK VINA RESULT:      -7.7      1.608      3.637
REMARK  3 active torsions:
REMARK  status: ('A' for Active; 'I' for Inactive)
REMARK    1  A    between atoms: C_5  and  C_2 
REMARK    2  A    between atoms: C_10  and  C_4 
REMARK    3  A    between atoms: O_19  and  C_16 
ROOT
ATOM      1  N   UNL d   1     -46.965  12.139  22.673  0.00  0.00    -0.245 NA
ATOM      2  C   UNL d   1     -47.763  12.254  22.792  0.00  0.00     0.088 A 
ATOM      3  S   UNL d   1     -47.183  13.979  22.520  0.00  0.00    -0.085 SA
ATOM      4  C   UNL d   1     -47.940  13.746  22.668  0.00  0.00     0.031 A 
ATOM      5  C   UNL d   1     -48.206  12.960  22.792  0.00  0.00     0.026 A 
ATOM      6  C   UNL d   1     -46.408  12.719  22.523  0.00  0.00     0.087 A 
ATOM      7  C   UNL d   1     -46.505  13.533  22.455  0.00  0.00     0.047 A 
ATOM      8  C   UNL d   1     -45.657  12.401  22.432  0.00  0.00     0.020 A 
ATOM      9  C   UNL d   1     -45.851  14.036  22.296  0.00  0.00     0.008 A 
ATOM     10  C   UNL d   1     -45.009  12.864  22.279  0.00  0.00     0.002 A 
ATOM     11  C   UNL d   1     -45.106  13.679  22.211  0.00  0.00     0.001 A 
ENDROOT
BRANCH   4  12
ATOM     12  C   UNL d   1     -48.553  14.277  22.714  0.00  0.00     0.006 A 
ATOM     13  C   UNL d   1     -48.740  14.626  23.449  0.00  0.00     0.003 A 
ATOM     14  C   UNL d   1     -49.353  15.155  23.495  0.00  0.00     0.024 A 
ATOM     15  C   UNL d   1     -49.785  15.345  22.817  0.00  0.00     0.094 A 
ATOM     16  C   UNL d   1     -49.607  15.007  22.097  0.00  0.00     0.024 A 
ATOM     17  C   UNL d   1     -48.985  14.465  22.035  0.00  0.00     0.003 A 
BRANCH  15  18
ATOM     18  O   UNL d   1     -50.423  15.890  22.846  0.00  0.00    -0.328 OA
ATOM     19  C   UNL d   1     -51.064  15.770  23.363  0.00  0.00     0.181 C 
ENDBRANCH  15  18
ENDBRANCH   4  12
BRANCH   2  20
ATOM     20  C   UNL d   1     -48.537  11.937  22.951  0.00  0.00     0.047 A 
ATOM     21  S   UNL d   1     -48.728  11.668  23.698  0.00  0.00    -0.085 SA
ATOM     22  C   UNL d   1     -49.507  11.402  23.661  0.00  0.00     0.035 A 
ATOM     23  C   UNL d   1     -49.803  11.499  22.913  0.00  0.00     0.007 A 
ATOM     24  C   UNL d   1     -49.207  11.828  22.474  0.00  0.00     0.009 A 
ENDBRANCH   2  20
TORSDOF 3
ENDMDL
MODEL 3
REMARK VINA RESULT:      -7.1      0.991      2.611
REMARK  3 active torsions:
REMARK  status: ('A' for Active; 'I' for Inactive)
REMARK    1  A    between atoms: C_5  and  C_2 
REMARK    2  A    between atoms: C_10  and  C_4 
REMARK    3  A    between atoms: O_19  and  C_16 
ROOT
ATOM      1  N   UNL d   1     -49.859  13.373  23.010  0.00  0.00    -0.245 NA
ATOM      2  C   UNL d   1     -49.260  13.872  22.777  0.00  0.00     0.088 A 
ATOM      3  S   UNL d   1     -48.332  12.314  23.090  0.00  0.00    -0.085 SA
ATOM      4  C   UNL d   1     -48.021  13.014  22.842  0.00  0.00     0.031 A 
ATOM      5  C   UNL d   1     -48.443  13.725  22.698  0.00  0.00     0.026 A 
ATOM      6  C   UNL d   1     -49.780  12.587  23.226  0.00  0.00     0.087 A 
ATOM      7  C   UNL d   1     -49.104  12.119  23.261  0.00  0.00     0.047 A 
ATOM      8  C   UNL d   1     -50.502  12.255  23.429  0.00  0.00     0.020 A 
ATOM      9  C   UNL d   1     -49.145  11.315  23.500  0.00  0.00     0.008 A 
ATOM     10  C   UNL d   1     -50.569  11.482  23.662  0.00  0.00     0.002 A 
ATOM     11  C   UNL d   1     -49.893  11.013  23.698  0.00  0.00     0.001 A 
ENDROOT
BRANCH   4  12
ATOM     12  C   UNL d   1     -47.227  13.107  22.697  0.00  0.00     0.006 A 
ATOM     13  C   UNL d   1     -46.922  12.919  21.943  0.00  0.00     0.003 A 
ATOM     14  C   UNL d   1     -46.129  13.011  21.799  0.00  0.00     0.024 A 
ATOM     15  C   UNL d   1     -45.632  13.289  22.396  0.00  0.00     0.094 A 
ATOM     16  C   UNL d   1     -45.924  13.475  23.134  0.00  0.00     0.024 A 
ATOM     17  C   UNL d   1     -46.730  13.385  23.296  0.00  0.00     0.003 A 
BRANCH  15  18
ATOM     18  O   UNL d   1     -44.809  13.391  22.266  0.00  0.00    -0.328 OA
ATOM     19  C   UNL d   1     -44.405  12.924  21.707  0.00  0.00     0.181 C 
ENDBRANCH  15  18
ENDBRANCH   4  12
BRANCH   2  20
ATOM     20  C   UNL d   1     -49.001  14.640  22.516  0.00  0.00     0.047 A 
ATOM     21  S   UNL d   1     -48.990  15.272  23.034  0.00  0.00    -0.085 SA
ATOM     22  C   UNL d   1     -48.715  15.921  22.609  0.00  0.00     0.035 A 
ATOM     23  C   UNL d   1     -48.555  15.712  21.843  0.00  0.00     0.007 A 
ATOM     24  C   UNL d   1     -48.731  14.922  21.783  0.00  0.00     0.009 A 
ENDBRANCH   2  20
TORSDOF 3
ENDMDL
MODEL 4
REMARK VINA RESULT:      -5.9      1.834      4.268
REMARK  3 active torsions:
REMARK  status: ('A' for Active; 'I' for Inactive)
REMARK    1  A    between atoms: C_5  and  C_2 
REMARK    2  A    between atoms: C_10  and  C_4 
REMARK    3  A    between atoms: O_19  and  C_16 
ROOT
ATOM      1  N   UNL d   1     -46.381  14.420  22.391  0.00  0.00    -0.245 NA
ATOM      2  C   UNL d   1     -47.185  14.439  22.522  0.00  0.00     0.088 A 
ATOM      3  S   UNL d   1     -46.857  12.629  22.551  0.00  0.00    -0.085 SA
ATOM      4  C   UNL d   1     -47.570  12.987  22.652  0.00  0.00     0.031 A 
ATOM      5  C   UNL d   1     -47.722  13.813  22.639  0.00  0.00     0.026 A 
ATOM      6  C   UNL d   1     -45.913  13.750  22.345  0.00  0.00     0.087 A 
ATOM      7  C   UNL d   1     -46.123  12.958  22.416  0.00  0.00     0.047 A 
ATOM      8  C   UNL d   1     -45.127  13.939  22.207  0.00  0.00     0.020 A 
ATOM      9  C   UNL d   1     -45.549  12.348  22.349  0.00  0.00     0.008 A 
ATOM     10  C   UNL d   1     -44.553  13.370  22.139  0.00  0.00     0.002 A 
ATOM     11  C   UNL d   1     -44.763  12.578  22.210  0.00  0.00     0.001 A 
ENDROOT
BRANCH   4  12
ATOM     12  C   UNL d   1     -48.251  12.564  22.783  0.00  0.00     0.006 A 
ATOM     13  C   UNL d   1     -48.511  12.436  23.567  0.00  0.00     0.003 A 
ATOM     14  C   UNL d   1     -49.190  12.014  23.698  0.00  0.00     0.024 A 
ATOM     15  C   UNL d   1     -49.619  11.714  23.059  0.00  0.00     0.094 A 
ATOM     16  C   UNL d   1     -49.370  11.836  22.292  0.00  0.00     0.024 A 
ATOM     17  C   UNL d   1     -48.679  12.265  22.143  0.00  0.00     0.003 A 
BRANCH  15  18
ATOM     18  O   UNL d   1     -50.324  11.275  23.175  0.00  0.00    -0.328 OA
ATOM     19  C   UNL d   1     -50.942  11.576  23.646  0.00  0.00     0.181 C 
ENDBRANCH  15  18
ENDBRANCH   4  12
BRANCH   2  20
ATOM     20  C   UNL d   1     -47.904  14.884  22.619  0.00  0.00     0.047 A 
ATOM     21  S   UNL d   1     -48.266  15.232  21.976  0.00  0.00    -0.085 SA
ATOM     22  C   UNL d   1     -48.938  15.614  22.261  0.00  0.00     0.035 A 
ATOM     23  C   UNL d   1     -49.003  15.512  23.061  0.00  0.00     0.007 A 
ATOM     24  C   UNL d   1     -48.366  15.063  23.285  0.00  0.00     0.009 A 
ENDBRANCH   2  20
TORSDOF 3
ENDMDL
MODEL 5
REMARK VINA RESULT:      -5.8      9.175     10.407
REMARK  3 active torsions:
REMARK  status: ('A' for Active; 'I' for Inactive)
REMARK    1  A    between atoms: C_5  and  C_2 
REMARK    2  A    between atoms: C_10  and  C_4 
REMARK    3  A    between atoms: O_19  and  C_16 
ROOT
ATOM      1  N   UNL d   1     -38.208  13.548  19.934  0.00  0.00    -0.245 NA
ATOM      2  C   UNL d   1     -38.409  13.651  19.152  0.00  0.00     0.088 A 
ATOM      3  S   UNL d   1     -39.731  14.614  19.995  0.00  0.00    -0.085 SA
ATOM      4  C   UNL d   1     -39.644  14.515  19.201  0.00  0.00     0.031 A 
ATOM      5  C   UNL d   1     -39.042  14.076  18.815  0.00  0.00     0.026 A 
ATOM      6  C   UNL d   1     -38.603  13.856  20.581  0.00  0.00     0.087 A 
ATOM      7  C   UNL d   1     -39.277  14.327  20.608  0.00  0.00     0.047 A 
ATOM      8  C   UNL d   1     -38.244  13.639  21.286  0.00  0.00     0.020 A 
ATOM      9  C   UNL d   1     -39.597  14.586  21.340  0.00  0.00     0.008 A 
ATOM     10  C   UNL d   1     -38.533  13.875  22.006  0.00  0.00     0.002 A 
ATOM     11  C   UNL d   1     -39.207  14.347  22.033  0.00  0.00     0.001 A 
ENDROOT
BRANCH   4  12
ATOM     12  C   UNL d   1     -40.157  14.847  18.666  0.00  0.00     0.006 A 
ATOM     13  C   UNL d   1     -40.841  14.426  18.436  0.00  0.00     0.003 A 
ATOM     14  C   UNL d   1     -41.353  14.757  17.902  0.00  0.00     0.024 A 
ATOM     15  C   UNL d   1     -41.196  15.506  17.591  0.00  0.00     0.094 A 
ATOM     16  C   UNL d   1     -40.530  15.922  17.812  0.00  0.00     0.024 A 
ATOM     17  C   UNL d   1     -39.999  15.596  18.355  0.00  0.00     0.003 A 
BRANCH  15  18
ATOM     18  O   UNL d   1     -41.715  15.865  17.037  0.00  0.00    -0.328 OA
ATOM     19  C   UNL d   1     -41.507  15.920  16.232  0.00  0.00     0.181 C 
ENDBRANCH  15  18
ENDBRANCH   4  12
BRANCH   2  20
ATOM     20  C   UNL d   1     -38.256  13.505  18.327  0.00  0.00     0.047 A 
ATOM     21  S   UNL d   1     -38.356  12.757  18.014  0.00  0.00    -0.085 SA
ATOM     22  C   UNL d   1     -38.164  12.808  17.214  0.00  0.00     0.035 A 
ATOM     23  C   UNL d   1     -37.948  13.565  17.023  0.00  0.00     0.007 A 
ATOM     24  C   UNL d   1     -38.005  13.996  17.708  0.00  0.00     0.009 A 
ENDBRANCH   2  20
TORSDOF 3
ENDMDL
