MODEL 1
REMARK VINA RESULT:      10.2      0.000      0.000
REMARK  5 active torsions:
REMARK  status: ('A' for Active; 'I' for Inactive)
REMARK    1  A    between atoms: N_2  and  S_1 
REMARK    2  A    between atoms: C_4  and  S_1 
REMARK    3  A    between atoms: C_3  and  N_2 
REMARK    4  A    between atoms: N_7  and  C_3 
REMARK    5  A    between atoms: C_12  and  N_7 
ROOT
ATOM      1  S   UNL d   1      45.633 -15.933  44.405  0.00  0.00     0.287 S 
ATOM      2  O   UNL d   1      46.252 -15.922  44.955  0.00  0.00    -0.198 OA
ATOM      3  O   UNL d   1      45.011 -15.927  43.852  0.00  0.00    -0.198 OA
ENDROOT
BRANCH   1   4
ATOM      4  N   UNL d   1      45.652 -16.760  44.387  0.00  0.00    -0.128 NA
BRANCH   4   5
ATOM      5  C   UNL d   1      46.085 -17.454  44.268  0.00  0.00     0.232 C 
ATOM      6  S   UNL d   1      46.197 -17.983  44.888  0.00  0.00    -0.036 SA
BRANCH   5   7
ATOM      7  N   UNL d   1      46.401 -17.610  43.526  0.00  0.00    -0.217 NA
BRANCH   7   8
ATOM      8  C   UNL d   1      46.408 -18.382  43.241  0.00  0.00     0.084 A 
ATOM      9  C   UNL d   1      46.328 -18.516  42.437  0.00  0.00     0.019 A 
ATOM     10  C   UNL d   1      46.335 -19.283  42.147  0.00  0.00     0.002 A 
ATOM     11  C   UNL d   1      46.422 -19.916  42.666  0.00  0.00     0.000 A 
ATOM     12  C   UNL d   1      46.502 -19.769  43.474  0.00  0.00     0.002 A 
ATOM     13  C   UNL d   1      46.495 -19.013  43.757  0.00  0.00     0.019 A 
ENDBRANCH   7   8
ENDBRANCH   5   7
ENDBRANCH   4   5
ENDBRANCH   1   4
BRANCH   1  14
ATOM     14  C   UNL d   1      45.614 -15.097  44.422  0.00  0.00     0.105 A 
ATOM     15  C   UNL d   1      46.278 -14.667  44.180  0.00  0.00     0.015 A 
ATOM     16  C   UNL d   1      46.263 -13.844  44.196  0.00  0.00     0.030 A 
ATOM     17  C   UNL d   1      45.582 -13.430  44.454  0.00  0.00     0.140 A 
ATOM     18  C   UNL d   1      44.918 -13.871  44.695  0.00  0.00     0.030 A 
ATOM     19  F   UNL d   1      45.575 -12.614  44.466  0.00  0.00    -0.204 F 
ATOM     20  C   UNL d   1      44.933 -14.699  44.679  0.00  0.00     0.015 A 
ENDBRANCH   1  14
TORSDOF 5
ENDMDL
MODEL 2
REMARK VINA RESULT:      10.9      2.024      4.612
REMARK  5 active torsions:
REMARK  status: ('A' for Active; 'I' for Inactive)
REMARK    1  A    between atoms: N_2  and  S_1 
REMARK    2  A    between atoms: C_4  and  S_1 
REMARK    3  A    between atoms: C_3  and  N_2 
REMARK    4  A    between atoms: N_7  and  C_3 
REMARK    5  A    between atoms: C_12  and  N_7 
ROOT
ATOM      1  S   UNL d   1      46.263 -17.727  44.065  0.00  0.00     0.287 S 
ATOM      2  O   UNL d   1      46.292 -18.243  44.713  0.00  0.00    -0.198 OA
ATOM      3  O   UNL d   1      46.235 -17.223  43.403  0.00  0.00    -0.198 OA
ENDROOT
BRANCH   1   4
ATOM      4  N   UNL d   1      46.184 -17.079  44.572  0.00  0.00    -0.128 NA
BRANCH   4   5
ATOM      5  C   UNL d   1      45.780 -16.388  44.776  0.00  0.00     0.232 C 
ATOM      6  S   UNL d   1      44.977 -16.414  44.955  0.00  0.00    -0.036 SA
BRANCH   5   7
ATOM      7  N   UNL d   1      46.187 -15.674  44.800  0.00  0.00    -0.217 NA
BRANCH   7   8
ATOM      8  C   UNL d   1      45.784 -14.971  44.655  0.00  0.00     0.084 A 
ATOM      9  C   UNL d   1      46.143 -14.384  44.210  0.00  0.00     0.019 A 
ATOM     10  C   UNL d   1      45.747 -13.682  44.063  0.00  0.00     0.002 A 
ATOM     11  C   UNL d   1      44.990 -13.568  44.364  0.00  0.00     0.000 A 
ATOM     12  C   UNL d   1      44.638 -14.166  44.811  0.00  0.00     0.002 A 
ATOM     13  C   UNL d   1      45.030 -14.857  44.955  0.00  0.00     0.019 A 
ENDBRANCH   7   8
ENDBRANCH   5   7
ENDBRANCH   4   5
ENDBRANCH   1   4
BRANCH   1  14
ATOM     14  C   UNL d   1      46.342 -18.382  43.551  0.00  0.00     0.105 A 
ATOM     15  C   UNL d   1      46.290 -18.270  42.733  0.00  0.00     0.015 A 
ATOM     16  C   UNL d   1      46.368 -18.912  42.224  0.00  0.00     0.030 A 
ATOM     17  C   UNL d   1      46.500 -19.685  42.521  0.00  0.00     0.140 A 
ATOM     18  C   UNL d   1      46.551 -19.789  43.346  0.00  0.00     0.030 A 
ATOM     19  F   UNL d   1      46.576 -20.316  42.010  0.00  0.00    -0.204 F 
ATOM     20  C   UNL d   1      46.473 -19.143  43.858  0.00  0.00     0.015 A 
ENDBRANCH   1  14
TORSDOF 5
ENDMDL
