MODEL 1
REMARK VINA RESULT:      30.0      0.000      0.000
REMARK  4 active torsions:
REMARK  status: ('A' for Active; 'I' for Inactive)
REMARK    1  A    between atoms: C_2  and  C_1 
REMARK    2  A    between atoms: C_3  and  C_1 
REMARK    3  A    between atoms: C_4  and  C_2 
REMARK    4  A    between atoms: C_9  and  C_3 
ROOT
ATOM      1  C   UNL d   1      59.331  49.539  49.850  0.00  0.00     0.196 C 
ATOM      2  O   UNL d   1      59.681  49.339  49.130  0.00  0.00    -0.287 OA
ENDROOT
BRANCH   1   3
ATOM      3  C   UNL d   1      59.809  49.707  50.508  0.00  0.00     0.042 C 
BRANCH   3   4
ATOM      4  C   UNL d   1      60.366  49.156  50.765  0.00  0.00     0.005 C 
BRANCH   4   5
ATOM      5  C   UNL d   1      60.816  49.314  51.435  0.00  0.00     0.019 A 
ATOM      6  C   UNL d   1      60.464  49.303  52.183  0.00  0.00     0.099 A 
ATOM      7  N   UNL d   1      60.914  49.461  52.853  0.00  0.00    -0.242 NA
ATOM      8  C   UNL d   1      61.722  49.632  52.779  0.00  0.00     0.099 A 
ATOM      9  C   UNL d   1      62.075  49.643  52.036  0.00  0.00     0.021 A 
ATOM     10  C   UNL d   1      61.624  49.484  51.361  0.00  0.00     0.003 A 
ENDBRANCH   4   5
ENDBRANCH   3   4
ENDBRANCH   1   3
BRANCH   1  11
ATOM     11  C   UNL d   1      58.511  49.570  49.915  0.00  0.00     0.039 A 
ATOM     12  C   UNL d   1      58.050  49.494  49.241  0.00  0.00     0.006 A 
ATOM     13  C   UNL d   1      57.227  49.525  49.303  0.00  0.00     0.042 A 
ATOM     14  C   UNL d   1      56.869  49.633  50.047  0.00  0.00     0.196 A 
ATOM     15  C   UNL d   1      57.340  49.708  50.720  0.00  0.00     0.042 A 
ATOM     16  O   UNL d   1      56.045  49.663  50.106  0.00  0.00    -0.287 OA
ATOM     17  C   UNL d   1      58.159  49.677  50.655  0.00  0.00     0.006 A 
ENDBRANCH   1  11
TORSDOF 4
ENDMDL
