MODEL 1
REMARK VINA RESULT:      64.1      0.000      0.000
REMARK  5 active torsions:
REMARK  status: ('A' for Active; 'I' for Inactive)
REMARK    1  A    between atoms: C_3  and  C_1 
REMARK    2  A    between atoms: N_2  and  C_10 
REMARK    3  A    between atoms: N_6  and  C_3 
REMARK    4  A    between atoms: C_11  and  C_5 
REMARK    5  A    between atoms: C_20  and  N_7 
ROOT
ATOM      1  C   UNL d   1     -49.796  28.287  34.245  0.00  0.00     0.126 A 
ATOM      2  O   UNL d   1     -49.331  28.968  34.206  0.00  0.00    -0.305 OA
ATOM      3  C   UNL d   1     -48.771  28.936  34.817  0.00  0.00     0.100 A 
ATOM      4  C   UNL d   1     -49.524  27.834  34.880  0.00  0.00     0.029 A 
ATOM      5  C   UNL d   1     -48.896  28.226  35.235  0.00  0.00     0.027 A 
ENDROOT
BRANCH   1   6
ATOM      6  C   UNL d   1     -50.450  28.079  33.721  0.00  0.00     0.143 C 
ATOM      7  S   UNL d   1     -50.843  28.673  33.306  0.00  0.00    -0.057 SA
BRANCH   6   8
ATOM      8  N   UNL d   1     -50.668  27.266  33.649  0.00  0.00    -0.291 N 
ATOM      9  C   UNL d   1     -51.403  27.040  33.364  0.00  0.00     0.100 A 
ATOM     10  C   UNL d   1     -51.586  26.246  33.307  0.00  0.00     0.100 A 
ATOM     11  N   UNL d   1     -51.066  25.666  33.521  0.00  0.00    -0.301 N 
ATOM     12  C   UNL d   1     -50.305  25.877  33.817  0.00  0.00     0.100 A 
ATOM     13  C   UNL d   1     -50.107  26.683  33.880  0.00  0.00     0.100 A 
BRANCH  11  14
ATOM     14  C   UNL d   1     -51.275  24.866  33.453  0.00  0.00     0.064 A 
ATOM     15  C   UNL d   1     -52.063  24.664  33.405  0.00  0.00     0.018 A 
ATOM     16  C   UNL d   1     -52.298  23.877  33.337  0.00  0.00     0.002 A 
ATOM     17  C   UNL d   1     -51.727  23.288  33.318  0.00  0.00     0.000 A 
ATOM     18  C   UNL d   1     -50.921  23.486  33.367  0.00  0.00     0.002 A 
ATOM     19  C   UNL d   1     -50.703  24.277  33.434  0.00  0.00     0.018 A 
ENDBRANCH  11  14
ENDBRANCH   6   8
ENDBRANCH   1   6
BRANCH   3  20
ATOM     20  C   UNL d   1     -48.167  29.457  35.046  0.00  0.00     0.024 A 
ATOM     21  C   UNL d   1     -48.210  30.261  34.840  0.00  0.00     0.025 A 
ATOM     22  C   UNL d   1     -47.609  30.779  35.068  0.00  0.00     0.127 A 
ATOM     23  C   UNL d   1     -46.954  30.506  35.506  0.00  0.00     0.024 A 
ATOM     24  C   UNL d   1     -46.922  29.703  35.705  0.00  0.00     0.002 A 
ATOM     25  C   UNL d   1     -47.522  29.185  35.478  0.00  0.00     0.002 A 
BRANCH  22  26
ATOM     26  N   UNL d   1     -47.662  31.564  34.861  0.00  0.00    -0.114 N 
ATOM     27  O   UNL d   1     -47.773  31.861  34.079  0.00  0.00    -0.532 OA
ATOM     28  O   UNL d   1     -47.610  32.181  35.409  0.00  0.00    -0.532 OA
ENDBRANCH  22  26
ENDBRANCH   3  20
TORSDOF 5
ENDMDL
