MODEL 1
REMARK VINA RESULT:      -9.6      0.000      0.000
REMARK  4 active torsions:
REMARK  status: ('A' for Active; 'I' for Inactive)
REMARK    1  A    between atoms: C_5  and  C_4 
REMARK    2  A    between atoms: C_6  and  C_5 
REMARK       I    between atoms: N_11  and  C_6 
REMARK    3  A    between atoms: C_9  and  C_10 
REMARK    4  A    between atoms: C_14  and  N_11 
ROOT
ATOM      1  C   UNL d   1      54.408  32.498  54.062  0.00  0.00     0.074 C 
ENDROOT
BRANCH   1   2
ATOM      2  C   UNL d   1      54.103  33.232  54.233  0.00  0.00     0.092 A 
ATOM      3  C   UNL d   1      54.441  33.683  54.843  0.00  0.00     0.285 A 
ATOM      4  N   UNL d   1      54.134  34.436  55.024  0.00  0.00    -0.207 NA
ATOM      5  O   UNL d   1      55.078  33.393  55.273  0.00  0.00    -0.265 OA
ATOM      6  C   UNL d   1      53.504  34.719  54.597  0.00  0.00     0.091 A 
ATOM      7  C   UNL d   1      53.166  34.268  53.986  0.00  0.00     0.047 A 
ATOM      8  C   UNL d   1      53.195  35.475  54.777  0.00  0.00     0.020 A 
ATOM      9  S   UNL d   1      53.464  33.542  53.813  0.00  0.00    -0.080 SA
ATOM     10  C   UNL d   1      52.534  34.577  53.573  0.00  0.00     0.008 A 
ATOM     11  C   UNL d   1      52.213  35.322  53.735  0.00  0.00     0.001 A 
ATOM     12  C   UNL d   1      52.551  35.773  54.346  0.00  0.00     0.002 A 
ENDBRANCH   1   2
BRANCH   1  13
ATOM     13  C   UNL d   1      53.939  31.837  54.083  0.00  0.00     0.280 C 
ATOM     14  N   UNL d   1      54.047  31.233  53.538  0.00  0.00    -0.208 NA
ATOM     15  O   UNL d   1      53.356  31.775  54.652  0.00  0.00    -0.265 OA
BRANCH  14  16
ATOM     16  C   UNL d   1      53.570  30.569  53.565  0.00  0.00     0.085 A 
ATOM     17  C   UNL d   1      53.709  29.974  54.130  0.00  0.00     0.025 A 
ATOM     18  C   UNL d   1      53.222  29.317  54.142  0.00  0.00     0.066 A 
ATOM     19  C   UNL d   1      52.625  29.236  53.630  0.00  0.00     0.006 A 
ATOM     20  C   UNL d   1      52.466  29.821  53.053  0.00  0.00     0.002 A 
ATOM     21  C   UNL d   1      52.953  30.486  53.036  0.00  0.00     0.019 A 
BRANCH  18  22
ATOM     22  C   UNL d   1      53.330  28.720  54.679  0.00  0.00     0.211 C 
ATOM     23  O   UNL d   1      53.033  28.762  55.443  0.00  0.00    -0.644 OA
ATOM     24  O   UNL d   1      53.753  28.063  54.428  0.00  0.00    -0.644 OA
ENDBRANCH  18  22
ENDBRANCH  14  16
ENDBRANCH   1  13
TORSDOF 4
ENDMDL
MODEL 2
REMARK VINA RESULT:      -8.9      3.080      5.014
REMARK  4 active torsions:
REMARK  status: ('A' for Active; 'I' for Inactive)
REMARK    1  A    between atoms: C_5  and  C_4 
REMARK    2  A    between atoms: C_6  and  C_5 
REMARK       I    between atoms: N_11  and  C_6 
REMARK    3  A    between atoms: C_9  and  C_10 
REMARK    4  A    between atoms: C_14  and  N_11 
ROOT
ATOM      1  C   UNL d   1      52.053  33.200  52.429  0.00  0.00     0.074 C 
ENDROOT
BRANCH   1   2
ATOM      2  C   UNL d   1      52.586  33.051  53.024  0.00  0.00     0.092 A 
ATOM      3  C   UNL d   1      52.889  32.283  53.119  0.00  0.00     0.285 A 
ATOM      4  N   UNL d   1      53.437  32.124  53.727  0.00  0.00    -0.207 NA
ATOM      5  O   UNL d   1      52.654  31.677  52.618  0.00  0.00    -0.265 OA
ATOM      6  C   UNL d   1      53.667  32.727  54.220  0.00  0.00     0.091 A 
ATOM      7  C   UNL d   1      53.364  33.495  54.125  0.00  0.00     0.047 A 
ATOM      8  C   UNL d   1      54.216  32.568  54.831  0.00  0.00     0.020 A 
ATOM      9  S   UNL d   1      52.836  33.647  53.538  0.00  0.00    -0.080 SA
ATOM     10  C   UNL d   1      53.613  34.081  54.635  0.00  0.00     0.008 A 
ATOM     11  C   UNL d   1      54.155  33.945  55.245  0.00  0.00     0.001 A 
ATOM     12  C   UNL d   1      54.457  33.177  55.340  0.00  0.00     0.002 A 
ENDBRANCH   1   2
BRANCH   1  13
ATOM     13  C   UNL d   1      51.328  33.523  52.592  0.00  0.00     0.280 C 
ATOM     14  N   UNL d   1      51.042  34.150  52.145  0.00  0.00    -0.208 NA
ATOM     15  O   UNL d   1      50.880  33.221  53.205  0.00  0.00    -0.265 OA
BRANCH  14  16
ATOM     16  C   UNL d   1      50.309  34.471  52.314  0.00  0.00     0.085 A 
ATOM     17  C   UNL d   1      49.712  34.488  51.734  0.00  0.00     0.025 A 
ATOM     18  C   UNL d   1      48.986  34.813  51.922  0.00  0.00     0.066 A 
ATOM     19  C   UNL d   1      48.840  35.111  52.639  0.00  0.00     0.006 A 
ATOM     20  C   UNL d   1      49.423  35.105  53.238  0.00  0.00     0.002 A 
ATOM     21  C   UNL d   1      50.158  34.779  53.056  0.00  0.00     0.019 A 
BRANCH  18  22
ATOM     22  C   UNL d   1      48.384  34.845  51.380  0.00  0.00     0.211 C 
ATOM     23  O   UNL d   1      48.327  34.310  50.761  0.00  0.00    -0.644 OA
ATOM     24  O   UNL d   1      47.826  35.440  51.475  0.00  0.00    -0.644 OA
ENDBRANCH  18  22
ENDBRANCH  14  16
ENDBRANCH   1  13
TORSDOF 4
ENDMDL
MODEL 3
REMARK VINA RESULT:      -8.5      1.408      1.847
REMARK  4 active torsions:
REMARK  status: ('A' for Active; 'I' for Inactive)
REMARK    1  A    between atoms: C_5  and  C_4 
REMARK    2  A    between atoms: C_6  and  C_5 
REMARK       I    between atoms: N_11  and  C_6 
REMARK    3  A    between atoms: C_9  and  C_10 
REMARK    4  A    between atoms: C_14  and  N_11 
ROOT
ATOM      1  C   UNL d   1      51.949  32.689  52.822  0.00  0.00     0.074 C 
ENDROOT
BRANCH   1   2
ATOM      2  C   UNL d   1      52.183  33.397  53.144  0.00  0.00     0.092 A 
ATOM      3  C   UNL d   1      51.977  34.107  52.764  0.00  0.00     0.285 A 
ATOM      4  N   UNL d   1      52.214  34.837  53.089  0.00  0.00    -0.207 NA
ATOM      5  O   UNL d   1      51.541  34.096  52.069  0.00  0.00    -0.265 OA
ATOM      6  C   UNL d   1      52.645  34.843  53.777  0.00  0.00     0.091 A 
ATOM      7  C   UNL d   1      52.851  34.133  54.157  0.00  0.00     0.047 A 
ATOM      8  C   UNL d   1      52.884  35.575  54.104  0.00  0.00     0.020 A 
ATOM      9  S   UNL d   1      52.622  33.430  53.842  0.00  0.00    -0.080 SA
ATOM     10  C   UNL d   1      53.285  34.168  54.847  0.00  0.00     0.008 A 
ATOM     11  C   UNL d   1      53.531  34.881  55.187  0.00  0.00     0.001 A 
ATOM     12  C   UNL d   1      53.325  35.591  54.807  0.00  0.00     0.002 A 
ENDBRANCH   1   2
BRANCH   1  13
ATOM     13  C   UNL d   1      52.412  32.027  52.890  0.00  0.00     0.280 C 
ATOM     14  N   UNL d   1      52.092  31.320  53.157  0.00  0.00    -0.208 NA
ATOM     15  O   UNL d   1      53.203  32.067  52.690  0.00  0.00    -0.265 OA
BRANCH  14  16
ATOM     16  C   UNL d   1      52.565  30.656  53.223  0.00  0.00     0.085 A 
ATOM     17  C   UNL d   1      52.660  30.278  53.958  0.00  0.00     0.025 A 
ATOM     18  C   UNL d   1      53.137  29.615  54.005  0.00  0.00     0.066 A 
ATOM     19  C   UNL d   1      53.508  29.328  53.369  0.00  0.00     0.006 A 
ATOM     20  C   UNL d   1      53.428  29.692  52.620  0.00  0.00     0.002 A 
ATOM     21  C   UNL d   1      52.949  30.360  52.566  0.00  0.00     0.019 A 
BRANCH  18  22
ATOM     22  C   UNL d   1      53.249  29.224  54.705  0.00  0.00     0.211 C 
ATOM     23  O   UNL d   1      53.280  29.617  55.425  0.00  0.00    -0.644 OA
ATOM     24  O   UNL d   1      53.333  28.408  54.669  0.00  0.00    -0.644 OA
ENDBRANCH  18  22
ENDBRANCH  14  16
ENDBRANCH   1  13
TORSDOF 4
ENDMDL
MODEL 4
REMARK VINA RESULT:      -8.4      2.617      5.002
REMARK  4 active torsions:
REMARK  status: ('A' for Active; 'I' for Inactive)
REMARK    1  A    between atoms: C_5  and  C_4 
REMARK    2  A    between atoms: C_6  and  C_5 
REMARK       I    between atoms: N_11  and  C_6 
REMARK    3  A    between atoms: C_9  and  C_10 
REMARK    4  A    between atoms: C_14  and  N_11 
ROOT
ATOM      1  C   UNL d   1      52.914  33.181  52.879  0.00  0.00     0.074 C 
ENDROOT
BRANCH   1   2
ATOM      2  C   UNL d   1      53.115  32.444  53.155  0.00  0.00     0.092 A 
ATOM      3  C   UNL d   1      53.746  32.365  53.689  0.00  0.00     0.285 A 
ATOM      4  N   UNL d   1      53.957  31.611  53.976  0.00  0.00    -0.207 NA
ATOM      5  O   UNL d   1      54.165  33.025  53.940  0.00  0.00    -0.265 OA
ATOM      6  C   UNL d   1      53.539  30.961  53.725  0.00  0.00     0.091 A 
ATOM      7  C   UNL d   1      52.908  31.041  53.191  0.00  0.00     0.047 A 
ATOM      8  C   UNL d   1      53.751  30.205  54.012  0.00  0.00     0.020 A 
ATOM      9  S   UNL d   1      52.706  31.768  52.915  0.00  0.00    -0.080 SA
ATOM     10  C   UNL d   1      52.506  30.371  52.956  0.00  0.00     0.008 A 
ATOM     11  C   UNL d   1      52.699  29.613  53.227  0.00  0.00     0.001 A 
ATOM     12  C   UNL d   1      53.330  29.534  53.762  0.00  0.00     0.002 A 
ENDBRANCH   1   2
BRANCH   1  13
ATOM     13  C   UNL d   1      52.160  33.467  52.966  0.00  0.00     0.280 C 
ATOM     14  N   UNL d   1      51.846  33.987  52.413  0.00  0.00    -0.208 NA
ATOM     15  O   UNL d   1      51.712  33.235  53.608  0.00  0.00    -0.265 OA
BRANCH  14  16
ATOM     16  C   UNL d   1      51.085  34.272  52.507  0.00  0.00     0.085 A 
ATOM     17  C   UNL d   1      50.546  34.248  51.873  0.00  0.00     0.025 A 
ATOM     18  C   UNL d   1      49.789  34.537  51.985  0.00  0.00     0.066 A 
ATOM     19  C   UNL d   1      49.561  34.837  52.680  0.00  0.00     0.006 A 
ATOM     20  C   UNL d   1      50.085  34.872  53.331  0.00  0.00     0.002 A 
ATOM     21  C   UNL d   1      50.849  34.582  53.225  0.00  0.00     0.019 A 
BRANCH  18  22
ATOM     22  C   UNL d   1      49.241  34.528  51.389  0.00  0.00     0.211 C 
ATOM     23  O   UNL d   1      49.382  34.155  50.672  0.00  0.00    -0.644 OA
ATOM     24  O   UNL d   1      48.528  34.910  51.531  0.00  0.00    -0.644 OA
ENDBRANCH  18  22
ENDBRANCH  14  16
ENDBRANCH   1  13
TORSDOF 4
ENDMDL
MODEL 5
REMARK VINA RESULT:      -8.1      1.683      4.912
REMARK  4 active torsions:
REMARK  status: ('A' for Active; 'I' for Inactive)
REMARK    1  A    between atoms: C_5  and  C_4 
REMARK    2  A    between atoms: C_6  and  C_5 
REMARK       I    between atoms: N_11  and  C_6 
REMARK    3  A    between atoms: C_9  and  C_10 
REMARK    4  A    between atoms: C_14  and  N_11 
ROOT
ATOM      1  C   UNL d   1      53.244  31.586  52.717  0.00  0.00     0.074 C 
ENDROOT
BRANCH   1   2
ATOM      2  C   UNL d   1      53.201  30.887  53.129  0.00  0.00     0.092 A 
ATOM      3  C   UNL d   1      52.976  30.192  52.734  0.00  0.00     0.285 A 
ATOM      4  N   UNL d   1      52.930  29.471  53.151  0.00  0.00    -0.207 NA
ATOM      5  O   UNL d   1      52.799  30.206  51.932  0.00  0.00    -0.265 OA
ATOM      6  C   UNL d   1      53.106  29.462  53.944  0.00  0.00     0.091 A 
ATOM      7  C   UNL d   1      53.331  30.157  54.339  0.00  0.00     0.047 A 
ATOM      8  C   UNL d   1      53.060  28.740  54.363  0.00  0.00     0.020 A 
ATOM      9  S   UNL d   1      53.375  30.851  53.935  0.00  0.00    -0.080 SA
ATOM     10  C   UNL d   1      53.502  30.118  55.136  0.00  0.00     0.008 A 
ATOM     11  C   UNL d   1      53.463  29.415  55.569  0.00  0.00     0.001 A 
ATOM     12  C   UNL d   1      53.238  28.719  55.174  0.00  0.00     0.002 A 
ENDBRANCH   1   2
BRANCH   1  13
ATOM     13  C   UNL d   1      52.866  32.251  52.984  0.00  0.00     0.280 C 
ATOM     14  N   UNL d   1      53.228  32.986  52.927  0.00  0.00    -0.208 NA
ATOM     15  O   UNL d   1      52.121  32.188  53.312  0.00  0.00    -0.265 OA
BRANCH  14  16
ATOM     16  C   UNL d   1      52.841  33.654  53.199  0.00  0.00     0.085 A 
ATOM     17  C   UNL d   1      53.161  34.101  53.823  0.00  0.00     0.025 A 
ATOM     18  C   UNL d   1      52.760  34.766  54.081  0.00  0.00     0.066 A 
ATOM     19  C   UNL d   1      52.078  34.990  53.751  0.00  0.00     0.006 A 
ATOM     20  C   UNL d   1      51.737  34.557  53.123  0.00  0.00     0.002 A 
ATOM     21  C   UNL d   1      52.136  33.886  52.857  0.00  0.00     0.019 A 
BRANCH  18  22
ATOM     22  C   UNL d   1      53.045  35.223  54.686  0.00  0.00     0.211 C 
ATOM     23  O   UNL d   1      53.353  34.895  55.372  0.00  0.00    -0.644 OA
ATOM     24  O   UNL d   1      53.014  36.037  54.587  0.00  0.00    -0.644 OA
ENDBRANCH  18  22
ENDBRANCH  14  16
ENDBRANCH   1  13
TORSDOF 4
ENDMDL
MODEL 6
REMARK VINA RESULT:      -7.9      3.794      5.497
REMARK  4 active torsions:
REMARK  status: ('A' for Active; 'I' for Inactive)
REMARK    1  A    between atoms: C_5  and  C_4 
REMARK    2  A    between atoms: C_6  and  C_5 
REMARK       I    between atoms: N_11  and  C_6 
REMARK    3  A    between atoms: C_9  and  C_10 
REMARK    4  A    between atoms: C_14  and  N_11 
ROOT
ATOM      1  C   UNL d   1      49.957  34.401  51.801  0.00  0.00     0.074 C 
ENDROOT
BRANCH   1   2
ATOM      2  C   UNL d   1      49.275  34.810  51.967  0.00  0.00     0.092 A 
ATOM      3  C   UNL d   1      48.669  34.842  51.399  0.00  0.00     0.285 A 
ATOM      4  N   UNL d   1      47.967  35.260  51.562  0.00  0.00    -0.207 NA
ATOM      5  O   UNL d   1      48.756  34.466  50.675  0.00  0.00    -0.265 OA
ATOM      6  C   UNL d   1      47.885  35.631  52.280  0.00  0.00     0.091 A 
ATOM      7  C   UNL d   1      48.491  35.598  52.848  0.00  0.00     0.047 A 
ATOM      8  C   UNL d   1      47.181  36.050  52.446  0.00  0.00     0.020 A 
ATOM      9  S   UNL d   1      49.168  35.195  52.689  0.00  0.00    -0.080 SA
ATOM     10  C   UNL d   1      48.383  35.980  53.561  0.00  0.00     0.008 A 
ATOM     11  C   UNL d   1      47.694  36.400  53.745  0.00  0.00     0.001 A 
ATOM     12  C   UNL d   1      47.088  36.433  53.177  0.00  0.00     0.002 A 
ENDBRANCH   1   2
BRANCH   1  13
ATOM     13  C   UNL d   1      50.479  34.205  52.390  0.00  0.00     0.280 C 
ATOM     14  N   UNL d   1      51.280  34.362  52.305  0.00  0.00    -0.208 NA
ATOM     15  O   UNL d   1      50.203  33.848  53.071  0.00  0.00    -0.265 OA
BRANCH  14  16
ATOM     16  C   UNL d   1      51.801  34.162  52.903  0.00  0.00     0.085 A 
ATOM     17  C   UNL d   1      52.146  34.752  53.377  0.00  0.00     0.025 A 
ATOM     18  C   UNL d   1      52.665  34.533  53.970  0.00  0.00     0.066 A 
ATOM     19  C   UNL d   1      52.844  33.774  54.102  0.00  0.00     0.006 A 
ATOM     20  C   UNL d   1      52.510  33.163  53.639  0.00  0.00     0.002 A 
ATOM     21  C   UNL d   1      51.986  33.378  53.039  0.00  0.00     0.019 A 
BRANCH  18  22
ATOM     22  C   UNL d   1      53.018  35.083  54.448  0.00  0.00     0.211 C 
ATOM     23  O   UNL d   1      53.049  35.878  54.249  0.00  0.00    -0.644 OA
ATOM     24  O   UNL d   1      53.347  34.813  55.150  0.00  0.00    -0.644 OA
ENDBRANCH  18  22
ENDBRANCH  14  16
ENDBRANCH   1  13
TORSDOF 4
ENDMDL
MODEL 7
REMARK VINA RESULT:      -7.8      1.383      1.707
REMARK  4 active torsions:
REMARK  status: ('A' for Active; 'I' for Inactive)
REMARK    1  A    between atoms: C_5  and  C_4 
REMARK    2  A    between atoms: C_6  and  C_5 
REMARK       I    between atoms: N_11  and  C_6 
REMARK    3  A    between atoms: C_9  and  C_10 
REMARK    4  A    between atoms: C_14  and  N_11 
ROOT
ATOM      1  C   UNL d   1      53.361  32.849  53.196  0.00  0.00     0.074 C 
ENDROOT
BRANCH   1   2
ATOM      2  C   UNL d   1      52.750  33.379  53.267  0.00  0.00     0.092 A 
ATOM      3  C   UNL d   1      52.844  34.050  53.748  0.00  0.00     0.285 A 
ATOM      4  N   UNL d   1      52.221  34.599  53.825  0.00  0.00    -0.207 NA
ATOM      5  O   UNL d   1      53.548  34.180  54.149  0.00  0.00    -0.265 OA
ATOM      6  C   UNL d   1      51.526  34.466  53.426  0.00  0.00     0.091 A 
ATOM      7  C   UNL d   1      51.432  33.795  52.945  0.00  0.00     0.047 A 
ATOM      8  C   UNL d   1      50.900  35.016  53.503  0.00  0.00     0.020 A 
ATOM      9  S   UNL d   1      52.034  33.268  52.872  0.00  0.00    -0.080 SA
ATOM     10  C   UNL d   1      50.723  33.687  52.556  0.00  0.00     0.008 A 
ATOM     11  C   UNL d   1      50.092  34.218  52.618  0.00  0.00     0.001 A 
ATOM     12  C   UNL d   1      50.186  34.889  53.099  0.00  0.00     0.002 A 
ENDBRANCH   1   2
BRANCH   1  13
ATOM     13  C   UNL d   1      53.217  32.055  53.118  0.00  0.00     0.280 C 
ATOM     14  N   UNL d   1      53.483  31.526  53.686  0.00  0.00    -0.208 NA
ATOM     15  O   UNL d   1      52.804  31.782  52.468  0.00  0.00    -0.265 OA
BRANCH  14  16
ATOM     16  C   UNL d   1      53.334  30.726  53.601  0.00  0.00     0.085 A 
ATOM     17  C   UNL d   1      53.388  30.216  54.256  0.00  0.00     0.025 A 
ATOM     18  C   UNL d   1      53.236  29.419  54.152  0.00  0.00     0.066 A 
ATOM     19  C   UNL d   1      53.039  29.125  53.445  0.00  0.00     0.006 A 
ATOM     20  C   UNL d   1      52.979  29.619  52.772  0.00  0.00     0.002 A 
ATOM     21  C   UNL d   1      53.131  30.423  52.870  0.00  0.00     0.019 A 
BRANCH  18  22
ATOM     22  C   UNL d   1      53.280  28.896  54.769  0.00  0.00     0.211 C 
ATOM     23  O   UNL d   1      53.707  28.197  54.719  0.00  0.00    -0.644 OA
ATOM     24  O   UNL d   1      52.875  29.093  55.456  0.00  0.00    -0.644 OA
ENDBRANCH  18  22
ENDBRANCH  14  16
ENDBRANCH   1  13
TORSDOF 4
ENDMDL
