MODEL 1
REMARK VINA RESULT:      -5.5      0.000      0.000
REMARK  6 active torsions:
REMARK  status: ('A' for Active; 'I' for Inactive)
REMARK       I    between atoms: N_6  and  C_1 
REMARK       I    between atoms: N_9  and  C_1 
REMARK    1  A    between atoms: N_2  and  C_3 
REMARK    2  A    between atoms: C_3  and  C_5 
REMARK    3  A    between atoms: C_7  and  C_3 
REMARK    4  A    between atoms: C_16  and  N_4 
REMARK    5  A    between atoms: C_5  and  N_6 
REMARK    6  A    between atoms: C_19  and  N_9 
ROOT
ATOM      1  C   UNL d   1      53.790  32.865  53.863  0.00  0.00     0.088 C 
ENDROOT
BRANCH   1   2
ATOM      2  N   UNL d   1      53.077  33.188  53.594  0.00  0.00    -0.300 N 
ATOM      3  C   UNL d   1      53.072  33.678  52.932  0.00  0.00     0.100 A 
ATOM      4  C   UNL d   1      52.366  33.998  52.665  0.00  0.00     0.100 A 
ATOM      5  N   UNL d   1      51.650  33.836  53.053  0.00  0.00    -0.301 N 
ATOM      6  C   UNL d   1      51.666  33.332  53.731  0.00  0.00     0.100 A 
ATOM      7  C   UNL d   1      52.377  33.020  53.986  0.00  0.00     0.100 A 
BRANCH   5   8
ATOM      8  C   UNL d   1      50.943  34.145  52.800  0.00  0.00     0.064 A 
ATOM      9  C   UNL d   1      50.459  34.576  53.306  0.00  0.00     0.018 A 
ATOM     10  C   UNL d   1      49.741  34.887  53.039  0.00  0.00     0.002 A 
ATOM     11  C   UNL d   1      49.506  34.764  52.253  0.00  0.00     0.000 A 
ATOM     12  C   UNL d   1      49.994  34.329  51.740  0.00  0.00     0.002 A 
ATOM     13  C   UNL d   1      50.708  34.022  52.014  0.00  0.00     0.018 A 
ENDBRANCH   5   8
ENDBRANCH   1   2
BRANCH   1  14
ATOM     14  C   UNL d   1      54.187  32.301  53.414  0.00  0.00     0.103 C 
ATOM     15  C   UNL d   1      54.814  32.525  52.941  0.00  0.00     0.022 C 
BRANCH  14  16
ATOM     16  N   UNL d   1      53.945  31.517  53.447  0.00  0.00    -0.190 NA
ATOM     17  C   UNL d   1      54.371  30.937  53.036  0.00  0.00     0.369 C 
ATOM     18  N   UNL d   1      54.130  30.153  53.069  0.00  0.00    -0.191 NA
ATOM     19  O   UNL d   1      55.032  31.154  52.600  0.00  0.00    -0.242 OA
BRANCH  18  20
ATOM     20  C   UNL d   1      53.465  29.936  53.508  0.00  0.00     0.086 A 
ATOM     21  C   UNL d   1      53.561  29.681  54.294  0.00  0.00     0.019 A 
ATOM     22  C   UNL d   1      52.902  29.465  54.732  0.00  0.00     0.002 A 
ATOM     23  C   UNL d   1      52.149  29.500  54.396  0.00  0.00     0.000 A 
ATOM     24  C   UNL d   1      52.060  29.754  53.617  0.00  0.00     0.002 A 
ATOM     25  C   UNL d   1      52.721  29.974  53.169  0.00  0.00     0.019 A 
ENDBRANCH  18  20
ENDBRANCH  14  16
ENDBRANCH   1  14
BRANCH   1  26
ATOM     26  C   UNL d   1      54.102  33.111  54.583  0.00  0.00     0.047 A 
ATOM     27  S   UNL d   1      54.678  33.692  54.699  0.00  0.00    -0.085 SA
ATOM     28  C   UNL d   1      54.821  33.756  55.506  0.00  0.00     0.035 A 
ATOM     29  C   UNL d   1      54.335  33.214  55.898  0.00  0.00     0.007 A 
ATOM     30  C   UNL d   1      53.892  32.818  55.328  0.00  0.00     0.009 A 
ENDBRANCH   1  26
TORSDOF 6
ENDMDL
MODEL 2
REMARK VINA RESULT:      -4.9      1.437      4.180
REMARK  6 active torsions:
REMARK  status: ('A' for Active; 'I' for Inactive)
REMARK       I    between atoms: N_6  and  C_1 
REMARK       I    between atoms: N_9  and  C_1 
REMARK    1  A    between atoms: N_2  and  C_3 
REMARK    2  A    between atoms: C_3  and  C_5 
REMARK    3  A    between atoms: C_7  and  C_3 
REMARK    4  A    between atoms: C_16  and  N_4 
REMARK    5  A    between atoms: C_5  and  N_6 
REMARK    6  A    between atoms: C_19  and  N_9 
ROOT
ATOM      1  C   UNL d   1      53.943  33.363  54.579  0.00  0.00     0.088 C 
ENDROOT
BRANCH   1   2
ATOM      2  N   UNL d   1      53.756  32.583  54.375  0.00  0.00    -0.300 N 
ATOM      3  C   UNL d   1      53.880  32.319  53.605  0.00  0.00     0.100 A 
ATOM      4  C   UNL d   1      53.695  31.547  53.402  0.00  0.00     0.100 A 
ATOM      5  N   UNL d   1      53.384  31.021  53.964  0.00  0.00    -0.301 N 
ATOM      6  C   UNL d   1      53.262  31.300  54.752  0.00  0.00     0.100 A 
ATOM      7  C   UNL d   1      53.450  32.073  54.939  0.00  0.00     0.100 A 
BRANCH   5   8
ATOM      8  C   UNL d   1      53.197  30.252  53.777  0.00  0.00     0.064 A 
ATOM      9  C   UNL d   1      52.752  30.070  53.111  0.00  0.00     0.018 A 
ATOM     10  C   UNL d   1      52.566  29.284  52.931  0.00  0.00     0.002 A 
ATOM     11  C   UNL d   1      52.832  28.674  53.426  0.00  0.00     0.000 A 
ATOM     12  C   UNL d   1      53.282  28.856  54.100  0.00  0.00     0.002 A 
ATOM     13  C   UNL d   1      53.462  29.642  54.273  0.00  0.00     0.018 A 
ENDBRANCH   5   8
ENDBRANCH   1   2
BRANCH   1  14
ATOM     14  C   UNL d   1      53.352  33.881  54.822  0.00  0.00     0.103 C 
ATOM     15  C   UNL d   1      53.308  34.111  55.605  0.00  0.00     0.022 C 
BRANCH  14  16
ATOM     16  N   UNL d   1      52.811  34.162  54.273  0.00  0.00    -0.190 NA
ATOM     17  C   UNL d   1      52.522  34.936  54.336  0.00  0.00     0.369 C 
ATOM     18  N   UNL d   1      51.981  35.217  53.787  0.00  0.00    -0.191 NA
ATOM     19  O   UNL d   1      52.781  35.415  54.951  0.00  0.00    -0.242 OA
BRANCH  18  20
ATOM     20  C   UNL d   1      51.721  34.735  53.169  0.00  0.00     0.086 A 
ATOM     21  C   UNL d   1      51.060  34.243  53.286  0.00  0.00     0.019 A 
ATOM     22  C   UNL d   1      50.800  33.763  52.674  0.00  0.00     0.002 A 
ATOM     23  C   UNL d   1      51.190  33.768  51.947  0.00  0.00     0.000 A 
ATOM     24  C   UNL d   1      51.845  34.257  51.837  0.00  0.00     0.002 A 
ATOM     25  C   UNL d   1      52.113  34.744  52.451  0.00  0.00     0.019 A 
ENDBRANCH  18  20
ENDBRANCH  14  16
ENDBRANCH   1  14
BRANCH   1  26
ATOM     26  C   UNL d   1      54.723  33.619  54.538  0.00  0.00     0.047 A 
ATOM     27  S   UNL d   1      55.200  33.853  55.171  0.00  0.00    -0.085 SA
ATOM     28  C   UNL d   1      55.937  34.064  54.876  0.00  0.00     0.035 A 
ATOM     29  C   UNL d   1      55.924  33.962  54.055  0.00  0.00     0.007 A 
ATOM     30  C   UNL d   1      55.175  33.688  53.849  0.00  0.00     0.009 A 
ENDBRANCH   1  26
TORSDOF 6
ENDMDL
MODEL 3
REMARK VINA RESULT:      -4.7      1.629      4.356
REMARK  6 active torsions:
REMARK  status: ('A' for Active; 'I' for Inactive)
REMARK       I    between atoms: N_6  and  C_1 
REMARK       I    between atoms: N_9  and  C_1 
REMARK    1  A    between atoms: N_2  and  C_3 
REMARK    2  A    between atoms: C_3  and  C_5 
REMARK    3  A    between atoms: C_7  and  C_3 
REMARK    4  A    between atoms: C_16  and  N_4 
REMARK    5  A    between atoms: C_5  and  N_6 
REMARK    6  A    between atoms: C_19  and  N_9 
ROOT
ATOM      1  C   UNL d   1      51.996  33.768  52.869  0.00  0.00     0.088 C 
ENDROOT
BRANCH   1   2
ATOM      2  N   UNL d   1      52.196  32.972  52.974  0.00  0.00    -0.300 N 
ATOM      3  C   UNL d   1      52.785  32.632  52.509  0.00  0.00     0.100 A 
ATOM      4  C   UNL d   1      52.984  31.843  52.613  0.00  0.00     0.100 A 
ATOM      5  N   UNL d   1      52.599  31.377  53.182  0.00  0.00    -0.301 N 
ATOM      6  C   UNL d   1      51.996  31.735  53.653  0.00  0.00     0.100 A 
ATOM      7  C   UNL d   1      51.809  32.522  53.539  0.00  0.00     0.100 A 
BRANCH   5   8
ATOM      8  C   UNL d   1      52.785  30.594  53.296  0.00  0.00     0.064 A 
ATOM      9  C   UNL d   1      52.428  30.001  52.854  0.00  0.00     0.018 A 
ATOM     10  C   UNL d   1      52.624  29.207  52.978  0.00  0.00     0.002 A 
ATOM     11  C   UNL d   1      53.187  29.008  53.553  0.00  0.00     0.000 A 
ATOM     12  C   UNL d   1      53.549  29.605  54.001  0.00  0.00     0.002 A 
ATOM     13  C   UNL d   1      53.348  30.395  53.872  0.00  0.00     0.018 A 
ENDBRANCH   5   8
ENDBRANCH   1   2
BRANCH   1  14
ATOM     14  C   UNL d   1      52.579  34.349  52.892  0.00  0.00     0.103 C 
ATOM     15  C   UNL d   1      52.680  34.849  52.253  0.00  0.00     0.022 C 
BRANCH  14  16
ATOM     16  N   UNL d   1      53.052  34.420  53.558  0.00  0.00    -0.190 NA
ATOM     17  C   UNL d   1      53.238  35.170  53.855  0.00  0.00     0.369 C 
ATOM     18  N   UNL d   1      53.712  35.241  54.521  0.00  0.00    -0.191 NA
ATOM     19  O   UNL d   1      52.945  35.838  53.477  0.00  0.00    -0.242 OA
BRANCH  18  20
ATOM     20  C   UNL d   1      54.006  34.569  54.900  0.00  0.00     0.086 A 
ATOM     21  C   UNL d   1      54.731  34.244  54.651  0.00  0.00     0.019 A 
ATOM     22  C   UNL d   1      55.025  33.577  55.026  0.00  0.00     0.002 A 
ATOM     23  C   UNL d   1      54.606  33.229  55.646  0.00  0.00     0.000 A 
ATOM     24  C   UNL d   1      53.888  33.555  55.888  0.00  0.00     0.002 A 
ATOM     25  C   UNL d   1      53.586  34.229  55.514  0.00  0.00     0.019 A 
ENDBRANCH  18  20
ENDBRANCH  14  16
ENDBRANCH   1  14
BRANCH   1  26
ATOM     26  C   UNL d   1      51.211  33.977  52.741  0.00  0.00     0.047 A 
ATOM     27  S   UNL d   1      50.845  34.096  52.010  0.00  0.00    -0.085 SA
ATOM     28  C   UNL d   1      50.059  34.296  52.145  0.00  0.00     0.035 A 
ATOM     29  C   UNL d   1      49.931  34.303  52.962  0.00  0.00     0.007 A 
ATOM     30  C   UNL d   1      50.643  34.106  53.328  0.00  0.00     0.009 A 
ENDBRANCH   1  26
TORSDOF 6
ENDMDL
MODEL 4
REMARK VINA RESULT:      -3.6      1.461      3.162
REMARK  6 active torsions:
REMARK  status: ('A' for Active; 'I' for Inactive)
REMARK       I    between atoms: N_6  and  C_1 
REMARK       I    between atoms: N_9  and  C_1 
REMARK    1  A    between atoms: N_2  and  C_3 
REMARK    2  A    between atoms: C_3  and  C_5 
REMARK    3  A    between atoms: C_7  and  C_3 
REMARK    4  A    between atoms: C_16  and  N_4 
REMARK    5  A    between atoms: C_5  and  N_6 
REMARK    6  A    between atoms: C_19  and  N_9 
ROOT
ATOM      1  C   UNL d   1      53.074  32.278  53.226  0.00  0.00     0.088 C 
ENDROOT
BRANCH   1   2
ATOM      2  N   UNL d   1      52.408  32.724  53.019  0.00  0.00    -0.300 N 
ATOM      3  C   UNL d   1      52.423  33.194  52.343  0.00  0.00     0.100 A 
ATOM      4  C   UNL d   1      51.764  33.637  52.138  0.00  0.00     0.100 A 
ATOM      5  N   UNL d   1      51.077  33.620  52.603  0.00  0.00    -0.301 N 
ATOM      6  C   UNL d   1      51.072  33.135  53.295  0.00  0.00     0.100 A 
ATOM      7  C   UNL d   1      51.736  32.699  53.487  0.00  0.00     0.100 A 
BRANCH   5   8
ATOM      8  C   UNL d   1      50.416  34.053  52.413  0.00  0.00     0.064 A 
ATOM      9  C   UNL d   1      50.091  34.027  51.659  0.00  0.00     0.018 A 
ATOM     10  C   UNL d   1      49.418  34.472  51.475  0.00  0.00     0.002 A 
ATOM     11  C   UNL d   1      49.068  34.949  52.057  0.00  0.00     0.000 A 
ATOM     12  C   UNL d   1      49.396  34.976  52.819  0.00  0.00     0.002 A 
ATOM     13  C   UNL d   1      50.066  34.530  52.994  0.00  0.00     0.018 A 
ENDBRANCH   5   8
ENDBRANCH   1   2
BRANCH   1  14
ATOM     14  C   UNL d   1      53.810  32.638  53.297  0.00  0.00     0.103 C 
ATOM     15  C   UNL d   1      54.441  32.364  52.856  0.00  0.00     0.022 C 
BRANCH  14  16
ATOM     16  N   UNL d   1      53.902  33.271  53.812  0.00  0.00    -0.190 NA
ATOM     17  C   UNL d   1      54.639  33.415  54.160  0.00  0.00     0.369 C 
ATOM     18  N   UNL d   1      54.731  34.048  54.676  0.00  0.00    -0.191 NA
ATOM     19  O   UNL d   1      55.272  32.923  53.986  0.00  0.00    -0.242 OA
BRANCH  18  20
ATOM     20  C   UNL d   1      54.093  34.543  54.850  0.00  0.00     0.086 A 
ATOM     21  C   UNL d   1      53.950  35.207  54.371  0.00  0.00     0.019 A 
ATOM     22  C   UNL d   1      53.317  35.701  54.542  0.00  0.00     0.002 A 
ATOM     23  C   UNL d   1      52.826  35.539  55.185  0.00  0.00     0.000 A 
ATOM     24  C   UNL d   1      52.973  34.879  55.657  0.00  0.00     0.002 A 
ATOM     25  C   UNL d   1      53.610  34.377  55.490  0.00  0.00     0.019 A 
ENDBRANCH  18  20
ENDBRANCH  14  16
ENDBRANCH   1  14
BRANCH   1  26
ATOM     26  C   UNL d   1      52.996  31.470  53.360  0.00  0.00     0.047 A 
ATOM     27  S   UNL d   1      52.912  30.881  52.788  0.00  0.00    -0.085 SA
ATOM     28  C   UNL d   1      52.852  30.156  53.170  0.00  0.00     0.035 A 
ATOM     29  C   UNL d   1      52.899  30.289  53.985  0.00  0.00     0.007 A 
ATOM     30  C   UNL d   1      52.988  31.100  54.100  0.00  0.00     0.009 A 
ENDBRANCH   1  26
TORSDOF 6
ENDMDL
MODEL 5
REMARK VINA RESULT:      -3.3      2.013      3.438
REMARK  6 active torsions:
REMARK  status: ('A' for Active; 'I' for Inactive)
REMARK       I    between atoms: N_6  and  C_1 
REMARK       I    between atoms: N_9  and  C_1 
REMARK    1  A    between atoms: N_2  and  C_3 
REMARK    2  A    between atoms: C_3  and  C_5 
REMARK    3  A    between atoms: C_7  and  C_3 
REMARK    4  A    between atoms: C_16  and  N_4 
REMARK    5  A    between atoms: C_5  and  N_6 
REMARK    6  A    between atoms: C_19  and  N_9 
ROOT
ATOM      1  C   UNL d   1      51.793  33.770  52.796  0.00  0.00     0.088 C 
ENDROOT
BRANCH   1   2
ATOM      2  N   UNL d   1      51.052  34.137  52.755  0.00  0.00    -0.300 N 
ATOM      3  C   UNL d   1      50.669  34.211  52.030  0.00  0.00     0.100 A 
ATOM      4  C   UNL d   1      49.936  34.575  51.989  0.00  0.00     0.100 A 
ATOM      5  N   UNL d   1      49.569  34.873  52.671  0.00  0.00    -0.301 N 
ATOM      6  C   UNL d   1      49.970  34.793  53.411  0.00  0.00     0.100 A 
ATOM      7  C   UNL d   1      50.700  34.428  53.436  0.00  0.00     0.100 A 
BRANCH   5   8
ATOM      8  C   UNL d   1      48.842  35.236  52.646  0.00  0.00     0.064 A 
ATOM      9  C   UNL d   1      48.561  35.674  53.282  0.00  0.00     0.018 A 
ATOM     10  C   UNL d   1      47.820  36.040  53.247  0.00  0.00     0.002 A 
ATOM     11  C   UNL d   1      47.356  35.964  52.564  0.00  0.00     0.000 A 
ATOM     12  C   UNL d   1      47.638  35.522  51.920  0.00  0.00     0.002 A 
ATOM     13  C   UNL d   1      48.378  35.160  51.963  0.00  0.00     0.018 A 
ENDBRANCH   5   8
ENDBRANCH   1   2
BRANCH   1  14
ATOM     14  C   UNL d   1      52.482  34.216  52.736  0.00  0.00     0.103 C 
ATOM     15  C   UNL d   1      52.656  34.605  52.039  0.00  0.00     0.022 C 
BRANCH  14  16
ATOM     16  N   UNL d   1      52.988  34.265  53.381  0.00  0.00    -0.190 NA
ATOM     17  C   UNL d   1      53.359  34.983  53.560  0.00  0.00     0.369 C 
ATOM     18  N   UNL d   1      53.865  35.032  54.204  0.00  0.00    -0.191 NA
ATOM     19  O   UNL d   1      53.217  35.640  53.089  0.00  0.00    -0.242 OA
BRANCH  18  20
ATOM     20  C   UNL d   1      54.007  34.371  54.678  0.00  0.00     0.086 A 
ATOM     21  C   UNL d   1      54.634  33.859  54.485  0.00  0.00     0.019 A 
ATOM     22  C   UNL d   1      54.778  33.201  54.954  0.00  0.00     0.002 A 
ATOM     23  C   UNL d   1      54.305  33.048  55.611  0.00  0.00     0.000 A 
ATOM     24  C   UNL d   1      53.684  33.559  55.798  0.00  0.00     0.002 A 
ATOM     25  C   UNL d   1      53.534  34.225  55.329  0.00  0.00     0.019 A 
ENDBRANCH  18  20
ENDBRANCH  14  16
ENDBRANCH   1  14
BRANCH   1  26
ATOM     26  C   UNL d   1      51.837  32.955  52.896  0.00  0.00     0.047 A 
ATOM     27  S   UNL d   1      52.294  32.427  52.453  0.00  0.00    -0.085 SA
ATOM     28  C   UNL d   1      52.168  31.669  52.745  0.00  0.00     0.035 A 
ATOM     29  C   UNL d   1      51.632  31.720  53.372  0.00  0.00     0.007 A 
ATOM     30  C   UNL d   1      51.429  32.513  53.464  0.00  0.00     0.009 A 
ENDBRANCH   1  26
TORSDOF 6
ENDMDL
