MODEL 1
REMARK VINA RESULT:      46.2      0.000      0.000
REMARK  5 active torsions:
REMARK  status: ('A' for Active; 'I' for Inactive)
REMARK    1  A    between atoms: C_7  and  C_1 
REMARK    2  A    between atoms: C_10  and  C_3 
REMARK    3  A    between atoms: C_8  and  C_4 
REMARK    4  A    between atoms: O_14  and  C_7 
REMARK    5  A    between atoms: C_20  and  O_14 
ROOT
ATOM      1  C   UNL d   1      14.466  13.135  -1.580  0.00  0.00     0.102 A 
ATOM      2  C   UNL d   1      14.837  13.499  -0.930  0.00  0.00     0.201 A 
ATOM      3  C   UNL d   1      14.255  13.575  -2.248  0.00  0.00     0.008 A 
ATOM      4  C   UNL d   1      14.774  14.747  -1.641  0.00  0.00     0.003 A 
ATOM      5  C   UNL d   1      14.986  14.308  -0.973  0.00  0.00     0.042 A 
ATOM      6  C   UNL d   1      14.411  14.382  -2.273  0.00  0.00     0.000 A 
ATOM      7  O   UNL d   1      15.046  13.064  -0.270  0.00  0.00    -0.286 OA
ENDROOT
BRANCH   4   8
ATOM      8  C   UNL d   1      14.934  15.562  -1.662  0.00  0.00     0.000 A 
ATOM      9  C   UNL d   1      14.746  15.999  -2.344  0.00  0.00     0.000 A 
ATOM     10  C   UNL d   1      14.899  16.795  -2.374  0.00  0.00     0.000 A 
ATOM     11  C   UNL d   1      15.245  17.167  -1.712  0.00  0.00     0.000 A 
ATOM     12  C   UNL d   1      15.424  16.730  -1.049  0.00  0.00     0.000 A 
ATOM     13  C   UNL d   1      15.402  17.982  -1.739  0.00  0.00     0.000 C 
ATOM     14  C   UNL d   1      15.270  15.929  -1.021  0.00  0.00     0.000 A 
ENDBRANCH   4   8
BRANCH   3  15
ATOM     15  C   UNL d   1      13.889  13.202  -2.883  0.00  0.00     0.000 A 
ATOM     16  C   UNL d   1      14.265  12.558  -3.241  0.00  0.00     0.000 A 
ATOM     17  C   UNL d   1      13.891  12.187  -3.880  0.00  0.00     0.000 A 
ATOM     18  C   UNL d   1      13.176  12.440  -4.156  0.00  0.00     0.000 A 
ATOM     19  C   UNL d   1      12.804  13.095  -3.786  0.00  0.00     0.000 A 
ATOM     20  C   UNL d   1      13.167  13.471  -3.149  0.00  0.00     0.000 A 
ENDBRANCH   3  15
BRANCH   1  21
ATOM     21  C   UNL d   1      14.308  12.319  -1.555  0.00  0.00     0.303 C 
ATOM     22  O   UNL d   1      14.857  11.780  -1.859  0.00  0.00    -0.259 OA
BRANCH  21  23
ATOM     23  O   UNL d   1      13.600  12.039  -1.226  0.00  0.00    -0.271 OA
BRANCH  23  24
ATOM     24  C   UNL d   1      13.582  11.779  -0.444  0.00  0.00     0.126 C 
ATOM     25  C   UNL d   1      12.879  11.817  -0.014  0.00  0.00     0.029 C 
ENDBRANCH  23  24
ENDBRANCH  21  23
ENDBRANCH   1  21
TORSDOF 5
ENDMDL
MODEL 2
REMARK VINA RESULT:      48.7      0.943      3.846
REMARK  5 active torsions:
REMARK  status: ('A' for Active; 'I' for Inactive)
REMARK    1  A    between atoms: C_7  and  C_1 
REMARK    2  A    between atoms: C_10  and  C_3 
REMARK    3  A    between atoms: C_8  and  C_4 
REMARK    4  A    between atoms: O_14  and  C_7 
REMARK    5  A    between atoms: C_20  and  O_14 
ROOT
ATOM      1  C   UNL d   1      14.533  13.250  -1.349  0.00  0.00     0.102 A 
ATOM      2  C   UNL d   1      14.399  12.441  -1.486  0.00  0.00     0.201 A 
ATOM      3  C   UNL d   1      14.386  13.809  -1.939  0.00  0.00     0.008 A 
ATOM      4  C   UNL d   1      13.968  12.775  -2.816  0.00  0.00     0.003 A 
ATOM      5  C   UNL d   1      14.115  12.215  -2.225  0.00  0.00     0.042 A 
ATOM      6  C   UNL d   1      14.102  13.566  -2.672  0.00  0.00     0.000 A 
ATOM      7  O   UNL d   1      14.545  11.887  -0.901  0.00  0.00    -0.286 OA
ENDROOT
BRANCH   4   8
ATOM      8  C   UNL d   1      13.682  12.524  -3.554  0.00  0.00     0.000 A 
ATOM      9  C   UNL d   1      14.054  12.790  -4.249  0.00  0.00     0.000 A 
ATOM     10  C   UNL d   1      13.782  12.551  -4.975  0.00  0.00     0.000 A 
ATOM     11  C   UNL d   1      13.126  12.036  -5.013  0.00  0.00     0.000 A 
ATOM     12  C   UNL d   1      12.769  11.783  -4.327  0.00  0.00     0.000 A 
ATOM     13  C   UNL d   1      12.845  11.790  -5.754  0.00  0.00     0.000 C 
ATOM     14  C   UNL d   1      13.044  12.024  -3.598  0.00  0.00     0.000 A 
ENDBRANCH   4   8
BRANCH   3  15
ATOM     15  C   UNL d   1      14.523  14.607  -1.791  0.00  0.00     0.000 A 
ATOM     16  C   UNL d   1      14.938  15.053  -2.350  0.00  0.00     0.000 A 
ATOM     17  C   UNL d   1      15.073  15.855  -2.194  0.00  0.00     0.000 A 
ATOM     18  C   UNL d   1      14.810  16.204  -1.515  0.00  0.00     0.000 A 
ATOM     19  C   UNL d   1      14.390  15.741  -0.954  0.00  0.00     0.000 A 
ATOM     20  C   UNL d   1      14.251  14.942  -1.100  0.00  0.00     0.000 A 
ENDBRANCH   3  15
BRANCH   1  21
ATOM     21  C   UNL d   1      14.820  13.497  -0.608  0.00  0.00     0.303 C 
ATOM     22  O   UNL d   1      14.324  13.905  -0.087  0.00  0.00    -0.259 OA
BRANCH  21  23
ATOM     23  O   UNL d   1      15.602  13.336  -0.387  0.00  0.00    -0.271 OA
BRANCH  23  24
ATOM     24  C   UNL d   1      16.054  13.917  -0.015  0.00  0.00     0.126 C 
ATOM     25  C   UNL d   1      16.873  13.929  -0.115  0.00  0.00     0.029 C 
ENDBRANCH  23  24
ENDBRANCH  21  23
ENDBRANCH   1  21
TORSDOF 5
ENDMDL
