MODEL 1
REMARK VINA RESULT:      -4.9      0.000      0.000
REMARK  4 active torsions:
REMARK  status: ('A' for Active; 'I' for Inactive)
REMARK    1  A    between atoms: C_7  and  N_1 
REMARK    2  A    between atoms: C_6  and  C_8 
REMARK    3  A    between atoms: O_16  and  C_6 
REMARK    4  A    between atoms: C_17  and  O_16 
ROOT
ATOM      1  C   UNL d   1     -42.043-122.947 -50.176  0.00  0.00     0.070 A 
ATOM      2  C   UNL d   1     -41.529-122.441 -51.659  0.00  0.00     0.064 A 
ATOM      3  C   UNL d   1     -42.249-122.189 -50.442  0.00  0.00     0.018 A 
ATOM      4  C   UNL d   1     -41.585-123.440 -50.648  0.00  0.00     0.018 A 
ATOM      5  C   UNL d   1     -41.993-121.931 -51.188  0.00  0.00     0.007 A 
ATOM      6  C   UNL d   1     -41.329-123.190 -51.384  0.00  0.00     0.007 A 
ENDROOT
BRANCH   1   7
ATOM      7  N   UNL d   1     -42.294-123.211 -49.435  0.00  0.00    -0.242 N 
ATOM      8  C   UNL d   1     -43.021-123.594 -49.276  0.00  0.00     0.267 A 
ATOM      9  C   UNL d   1     -43.053-123.764 -48.469  0.00  0.00     0.066 A 
ATOM     10  O   UNL d   1     -43.627-123.786 -49.806  0.00  0.00    -0.267 OA
ATOM     11  C   UNL d   1     -42.350-123.490 -48.124  0.00  0.00     0.066 A 
ATOM     12  C   UNL d   1     -41.889-123.153 -48.714  0.00  0.00     0.267 A 
ATOM     13  O   UNL d   1     -41.141-122.819 -48.561  0.00  0.00    -0.267 OA
ENDBRANCH   1   7
BRANCH   2  14
ATOM     14  C   UNL d   1     -41.272-122.188 -52.398  0.00  0.00     0.300 C 
ATOM     15  O   UNL d   1     -41.123-121.368 -52.528  0.00  0.00    -0.259 OA
BRANCH  14  16
ATOM     16  O   UNL d   1     -41.162-122.731 -53.012  0.00  0.00    -0.271 OA
BRANCH  16  17
ATOM     17  C   UNL d   1     -41.123-122.465 -53.804  0.00  0.00     0.126 C 
ATOM     18  C   UNL d   1     -41.254-123.005 -54.405  0.00  0.00     0.029 C 
ENDBRANCH  16  17
ENDBRANCH  14  16
ENDBRANCH   2  14
TORSDOF 4
ENDMDL
MODEL 2
REMARK VINA RESULT:      -3.7      1.046      4.144
REMARK  4 active torsions:
REMARK  status: ('A' for Active; 'I' for Inactive)
REMARK    1  A    between atoms: C_7  and  N_1 
REMARK    2  A    between atoms: C_6  and  C_8 
REMARK    3  A    between atoms: O_16  and  C_6 
REMARK    4  A    between atoms: C_17  and  O_16 
ROOT
ATOM      1  C   UNL d   1     -41.586-122.752 -51.220  0.00  0.00     0.070 A 
ATOM      2  C   UNL d   1     -41.906-123.183 -49.660  0.00  0.00     0.064 A 
ATOM      3  C   UNL d   1     -41.173-123.384 -50.878  0.00  0.00     0.018 A 
ATOM      4  C   UNL d   1     -42.151-122.345 -50.783  0.00  0.00     0.018 A 
ATOM      5  C   UNL d   1     -41.330-123.604 -50.094  0.00  0.00     0.007 A 
ATOM      6  C   UNL d   1     -42.310-122.557 -50.008  0.00  0.00     0.007 A 
ENDROOT
BRANCH   1   7
ATOM      7  N   UNL d   1     -41.435-122.528 -51.999  0.00  0.00    -0.242 N 
ATOM      8  C   UNL d   1     -41.223-121.759 -52.252  0.00  0.00     0.267 A 
ATOM      9  C   UNL d   1     -41.123-121.773 -53.071  0.00  0.00     0.066 A 
ATOM     10  O   UNL d   1     -41.123-121.077 -51.793  0.00  0.00    -0.267 OA
ATOM     11  C   UNL d   1     -41.271-122.547 -53.331  0.00  0.00     0.066 A 
ATOM     12  C   UNL d   1     -41.461-123.006 -52.677  0.00  0.00     0.267 A 
ATOM     13  O   UNL d   1     -41.642-123.817 -52.736  0.00  0.00    -0.267 OA
ENDBRANCH   1   7
BRANCH   2  14
ATOM     14  C   UNL d   1     -42.065-123.398 -48.882  0.00  0.00     0.300 C 
ATOM     15  O   UNL d   1     -42.790-123.786 -48.699  0.00  0.00    -0.259 OA
BRANCH  14  16
ATOM     16  O   UNL d   1     -41.519-123.236 -48.282  0.00  0.00    -0.271 OA
BRANCH  16  17
ATOM     17  C   UNL d   1     -41.577-123.628 -47.546  0.00  0.00     0.126 C 
ATOM     18  C   UNL d   1     -41.185-123.312 -46.901  0.00  0.00     0.029 C 
ENDBRANCH  16  17
ENDBRANCH  14  16
ENDBRANCH   2  14
TORSDOF 4
ENDMDL
MODEL 3
REMARK VINA RESULT:      -3.5      1.663      4.304
REMARK  4 active torsions:
REMARK  status: ('A' for Active; 'I' for Inactive)
REMARK    1  A    between atoms: C_7  and  N_1 
REMARK    2  A    between atoms: C_6  and  C_8 
REMARK    3  A    between atoms: O_16  and  C_6 
REMARK    4  A    between atoms: C_17  and  O_16 
ROOT
ATOM      1  C   UNL d   1     -41.792-122.493 -53.043  0.00  0.00     0.070 A 
ATOM      2  C   UNL d   1     -41.704-122.462 -51.397  0.00  0.00     0.064 A 
ATOM      3  C   UNL d   1     -42.383-122.864 -52.596  0.00  0.00     0.018 A 
ATOM      4  C   UNL d   1     -41.168-122.113 -52.667  0.00  0.00     0.018 A 
ATOM      5  C   UNL d   1     -42.343-122.851 -51.768  0.00  0.00     0.007 A 
ATOM      6  C   UNL d   1     -41.123-122.096 -51.850  0.00  0.00     0.007 A 
ENDROOT
BRANCH   1   7
ATOM      7  N   UNL d   1     -41.825-122.502 -53.868  0.00  0.00    -0.242 N 
ATOM      8  C   UNL d   1     -41.516-123.103 -54.361  0.00  0.00     0.267 A 
ATOM      9  C   UNL d   1     -41.666-122.898 -55.146  0.00  0.00     0.066 A 
ATOM     10  O   UNL d   1     -41.123-123.797 -54.140  0.00  0.00    -0.267 OA
ATOM     11  C   UNL d   1     -42.067-122.171 -55.146  0.00  0.00     0.066 A 
ATOM     12  C   UNL d   1     -42.163-121.932 -54.366  0.00  0.00     0.267 A 
ATOM     13  O   UNL d   1     -42.546-121.221 -54.160  0.00  0.00    -0.267 OA
ENDBRANCH   1   7
BRANCH   2  14
ATOM     14  C   UNL d   1     -41.661-122.447 -50.575  0.00  0.00     0.300 C 
ATOM     15  O   UNL d   1     -41.884-121.747 -50.161  0.00  0.00    -0.259 OA
BRANCH  14  16
ATOM     16  O   UNL d   1     -41.400-123.110 -50.157  0.00  0.00    -0.271 OA
BRANCH  16  17
ATOM     17  C   UNL d   1     -41.336-123.082 -49.324  0.00  0.00     0.126 C 
ATOM     18  C   UNL d   1     -41.141-123.767 -48.921  0.00  0.00     0.029 C 
ENDBRANCH  16  17
ENDBRANCH  14  16
ENDBRANCH   2  14
TORSDOF 4
ENDMDL
MODEL 4
REMARK VINA RESULT:      -3.1      0.812      1.654
REMARK  4 active torsions:
REMARK  status: ('A' for Active; 'I' for Inactive)
REMARK    1  A    between atoms: C_7  and  N_1 
REMARK    2  A    between atoms: C_6  and  C_8 
REMARK    3  A    between atoms: O_16  and  C_6 
REMARK    4  A    between atoms: C_17  and  O_16 
ROOT
ATOM      1  C   UNL d   1     -42.066-123.018 -50.855  0.00  0.00     0.070 A 
ATOM      2  C   UNL d   1     -41.670-123.004 -52.455  0.00  0.00     0.064 A 
ATOM      3  C   UNL d   1     -41.648-123.657 -51.177  0.00  0.00     0.018 A 
ATOM      4  C   UNL d   1     -42.280-122.383 -51.331  0.00  0.00     0.018 A 
ATOM      5  C   UNL d   1     -41.447-123.654 -51.982  0.00  0.00     0.007 A 
ATOM      6  C   UNL d   1     -42.084-122.374 -52.126  0.00  0.00     0.007 A 
ENDROOT
BRANCH   1   7
ATOM      7  N   UNL d   1     -42.270-123.013 -50.055  0.00  0.00    -0.242 N 
ATOM      8  C   UNL d   1     -41.832-122.648 -49.443  0.00  0.00     0.267 A 
ATOM      9  C   UNL d   1     -42.227-122.774 -48.730  0.00  0.00     0.066 A 
ATOM     10  O   UNL d   1     -41.123-122.225 -49.501  0.00  0.00    -0.267 OA
ATOM     11  C   UNL d   1     -42.909-123.217 -48.893  0.00  0.00     0.066 A 
ATOM     12  C   UNL d   1     -42.934-123.362 -49.701  0.00  0.00     0.267 A 
ATOM     13  O   UNL d   1     -43.549-123.795 -50.060  0.00  0.00    -0.267 OA
ENDBRANCH   1   7
BRANCH   2  14
ATOM     14  C   UNL d   1     -41.472-122.997 -53.254  0.00  0.00     0.300 C 
ATOM     15  O   UNL d   1     -41.123-123.682 -53.600  0.00  0.00    -0.259 OA
BRANCH  14  16
ATOM     16  O   UNL d   1     -41.614-122.326 -53.716  0.00  0.00    -0.271 OA
BRANCH  16  17
ATOM     17  C   UNL d   1     -41.500-122.356 -54.543  0.00  0.00     0.126 C 
ATOM     18  C   UNL d   1     -41.961-121.876 -55.020  0.00  0.00     0.029 C 
ENDBRANCH  16  17
ENDBRANCH  14  16
ENDBRANCH   2  14
TORSDOF 4
ENDMDL
