MODEL 1
REMARK VINA RESULT:      -5.8      0.000      0.000
REMARK  2 active torsions:
REMARK  status: ('A' for Active; 'I' for Inactive)
REMARK    1  A    between atoms: C_6  and  N_1 
REMARK    2  A    between atoms: C_7  and  C_6 
ROOT
ATOM      1  N   UNL d   1     -41.318-122.565 -52.999  0.00  0.00    -0.287 N 
ATOM      2  N   UNL d   1     -41.353-123.662 -53.731  0.00  0.00    -0.224 NA
ATOM      3  C   UNL d   1     -41.128-123.363 -52.994  0.00  0.00     0.183 A 
ATOM      4  C   UNL d   1     -41.648-122.373 -53.709  0.00  0.00     0.083 A 
ATOM      5  C   UNL d   1     -41.670-123.059 -54.167  0.00  0.00     0.099 A 
ATOM      6  C   UNL d   1     -41.938-121.664 -54.015  0.00  0.00     0.019 A 
ATOM      7  C   UNL d   1     -41.981-123.036 -54.931  0.00  0.00     0.021 A 
ATOM      8  C   UNL d   1     -42.249-121.640 -54.779  0.00  0.00     0.002 A 
ATOM      9  C   UNL d   1     -42.271-122.326 -55.237  0.00  0.00     0.002 A 
ENDROOT
BRANCH   1  10
ATOM     10  C   UNL d   1     -41.126-122.176 -52.290  0.00  0.00     0.082 C 
BRANCH  10  11
ATOM     11  C   UNL d   1     -41.451-122.429 -51.585  0.00  0.00     0.018 A 
ATOM     12  C   UNL d   1     -42.106-122.037 -51.273  0.00  0.00     0.002 A 
ATOM     13  C   UNL d   1     -42.438-122.289 -50.561  0.00  0.00     0.011 A 
ATOM     14  C   UNL d   1     -42.113-122.933 -50.160  0.00  0.00     0.058 A 
ATOM     15  C   UNL d   1     -41.468-123.302 -50.486  0.00  0.00     0.011 A 
ATOM     16 CL   UNL d   1     -42.459-123.162 -49.459  0.00  0.00    -0.082 Cl
ATOM     17  C   UNL d   1     -41.126-123.072 -51.184  0.00  0.00     0.002 A 
ENDBRANCH  10  11
ENDBRANCH   1  10
TORSDOF 2
ENDMDL
MODEL 2
REMARK VINA RESULT:      -5.7      1.699      3.584
REMARK  2 active torsions:
REMARK  status: ('A' for Active; 'I' for Inactive)
REMARK    1  A    between atoms: C_6  and  N_1 
REMARK    2  A    between atoms: C_7  and  C_6 
ROOT
ATOM      1  N   UNL d   1     -41.294-122.570 -52.470  0.00  0.00    -0.287 N 
ATOM      2  N   UNL d   1     -41.384-123.811 -52.032  0.00  0.00    -0.224 NA
ATOM      3  C   UNL d   1     -41.193-123.354 -52.693  0.00  0.00     0.183 A 
ATOM      4  C   UNL d   1     -41.539-122.540 -51.702  0.00  0.00     0.083 A 
ATOM      5  C   UNL d   1     -41.596-123.317 -51.429  0.00  0.00     0.099 A 
ATOM      6  C   UNL d   1     -41.724-121.912 -51.201  0.00  0.00     0.019 A 
ATOM      7  C   UNL d   1     -41.836-123.465 -50.654  0.00  0.00     0.021 A 
ATOM      8  C   UNL d   1     -41.964-122.059 -50.425  0.00  0.00     0.002 A 
ATOM      9  C   UNL d   1     -42.020-122.836 -50.152  0.00  0.00     0.002 A 
ENDROOT
BRANCH   1  10
ATOM     10  C   UNL d   1     -41.123-122.030 -53.077  0.00  0.00     0.082 C 
BRANCH  10  11
ATOM     11  C   UNL d   1     -41.509-122.085 -53.795  0.00  0.00     0.018 A 
ATOM     12  C   UNL d   1     -42.206-121.662 -53.917  0.00  0.00     0.002 A 
ATOM     13  C   UNL d   1     -42.600-121.715 -54.640  0.00  0.00     0.011 A 
ATOM     14  C   UNL d   1     -42.296-122.192 -55.241  0.00  0.00     0.058 A 
ATOM     15  C   UNL d   1     -41.610-122.599 -55.096  0.00  0.00     0.011 A 
ATOM     16 CL   UNL d   1     -42.704-122.228 -55.945  0.00  0.00    -0.082 Cl
ATOM     17  C   UNL d   1     -41.206-122.563 -54.395  0.00  0.00     0.002 A 
ENDBRANCH  10  11
ENDBRANCH   1  10
TORSDOF 2
ENDMDL
MODEL 3
REMARK VINA RESULT:      -5.5      1.826      4.038
REMARK  2 active torsions:
REMARK  status: ('A' for Active; 'I' for Inactive)
REMARK    1  A    between atoms: C_6  and  N_1 
REMARK    2  A    between atoms: C_7  and  C_6 
ROOT
ATOM      1  N   UNL d   1     -41.761-122.555 -50.573  0.00  0.00    -0.287 N 
ATOM      2  N   UNL d   1     -43.002-122.279 -50.221  0.00  0.00    -0.224 NA
ATOM      3  C   UNL d   1     -42.427-122.131 -50.795  0.00  0.00     0.183 A 
ATOM      4  C   UNL d   1     -41.913-122.952 -49.887  0.00  0.00     0.083 A 
ATOM      5  C   UNL d   1     -42.689-122.779 -49.667  0.00  0.00     0.099 A 
ATOM      6  C   UNL d   1     -41.454-123.454 -49.421  0.00  0.00     0.019 A 
ATOM      7  C   UNL d   1     -43.007-123.109 -48.981  0.00  0.00     0.021 A 
ATOM      8  C   UNL d   1     -41.771-123.784 -48.734  0.00  0.00     0.002 A 
ATOM      9  C   UNL d   1     -42.547-123.611 -48.514  0.00  0.00     0.002 A 
ENDROOT
BRANCH   1  10
ATOM     10  C   UNL d   1     -41.123-122.466 -51.098  0.00  0.00     0.082 C 
BRANCH  10  11
ATOM     11  C   UNL d   1     -41.199-122.701 -51.876  0.00  0.00     0.018 A 
ATOM     12  C   UNL d   1     -41.125-123.498 -52.071  0.00  0.00     0.002 A 
ATOM     13  C   UNL d   1     -41.201-123.741 -52.856  0.00  0.00     0.011 A 
ATOM     14  C   UNL d   1     -41.351-123.184 -53.446  0.00  0.00     0.058 A 
ATOM     15  C   UNL d   1     -41.419-122.405 -53.230  0.00  0.00     0.011 A 
ATOM     16 CL   UNL d   1     -41.421-123.448 -54.214  0.00  0.00    -0.082 Cl
ATOM     17  C   UNL d   1     -41.348-122.144 -52.466  0.00  0.00     0.002 A 
ENDBRANCH  10  11
ENDBRANCH   1  10
TORSDOF 2
ENDMDL
MODEL 4
REMARK VINA RESULT:      -3.8      1.295      2.082
REMARK  2 active torsions:
REMARK  status: ('A' for Active; 'I' for Inactive)
REMARK    1  A    between atoms: C_6  and  N_1 
REMARK    2  A    between atoms: C_7  and  C_6 
ROOT
ATOM      1  N   UNL d   1     -41.566-122.707 -50.928  0.00  0.00    -0.287 N 
ATOM      2  N   UNL d   1     -41.127-123.807 -51.508  0.00  0.00    -0.224 NA
ATOM      3  C   UNL d   1     -41.295-123.466 -50.775  0.00  0.00     0.183 A 
ATOM      4  C   UNL d   1     -41.567-122.578 -51.725  0.00  0.00     0.083 A 
ATOM      5  C   UNL d   1     -41.292-123.267 -52.087  0.00  0.00     0.099 A 
ATOM      6  C   UNL d   1     -41.780-121.928 -52.184  0.00  0.00     0.019 A 
ATOM      7  C   UNL d   1     -41.230-123.304 -52.909  0.00  0.00     0.021 A 
ATOM      8  C   UNL d   1     -41.719-121.964 -53.006  0.00  0.00     0.002 A 
ATOM      9  C   UNL d   1     -41.444-122.652 -53.369  0.00  0.00     0.002 A 
ENDROOT
BRANCH   1  10
ATOM     10  C   UNL d   1     -41.763-122.282 -50.242  0.00  0.00     0.082 C 
BRANCH  10  11
ATOM     11  C   UNL d   1     -42.109-122.666 -49.609  0.00  0.00     0.018 A 
ATOM     12  C   UNL d   1     -42.929-122.741 -49.576  0.00  0.00     0.002 A 
ATOM     13  C   UNL d   1     -43.283-123.128 -48.939  0.00  0.00     0.011 A 
ATOM     14  C   UNL d   1     -42.815-123.440 -48.335  0.00  0.00     0.058 A 
ATOM     15  C   UNL d   1     -42.010-123.353 -48.390  0.00  0.00     0.011 A 
ATOM     16 CL   UNL d   1     -43.188-123.817 -47.717  0.00  0.00    -0.082 Cl
ATOM     17  C   UNL d   1     -41.641-122.977 -49.005  0.00  0.00     0.002 A 
ENDBRANCH  10  11
ENDBRANCH   1  10
TORSDOF 2
ENDMDL
