MODEL 1
REMARK VINA RESULT:      52.7      0.000      0.000
REMARK  4 active torsions:
REMARK  status: ('A' for Active; 'I' for Inactive)
REMARK    1  A    between atoms: N_7  and  S_1 
REMARK    2  A    between atoms: C_8  and  S_1 
REMARK    3  A    between atoms: C_17  and  N_2 
REMARK    4  A    between atoms: C_14  and  N_7 
ROOT
ATOM      1  N   UNL d   1     -52.608  24.424  33.397  0.00  0.00    -0.273 N 
ATOM      2  C   UNL d   1     -53.291  25.276  33.358  0.00  0.00     0.265 A 
ATOM      3  C   UNL d   1     -51.889  24.766  33.395  0.00  0.00     0.067 A 
ATOM      4  C   UNL d   1     -52.003  25.598  33.365  0.00  0.00     0.021 A 
ATOM      5  C   UNL d   1     -52.768  25.908  33.343  0.00  0.00     0.058 A 
ATOM      6  C   UNL d   1     -50.571  25.794  33.378  0.00  0.00     0.105 A 
ATOM      7  C   UNL d   1     -51.345  26.103  33.357  0.00  0.00     0.014 A 
ATOM      8  C   UNL d   1     -51.125  24.490  33.415  0.00  0.00     0.018 A 
ATOM      9  C   UNL d   1     -50.443  24.998  33.408  0.00  0.00     0.014 A 
ATOM     10  O   UNL d   1     -54.100  25.375  33.343  0.00  0.00    -0.267 OA
ATOM     11  C   UNL d   1     -52.877  26.707  33.315  0.00  0.00     0.005 A 
ATOM     12  C   UNL d   1     -51.454  26.902  33.328  0.00  0.00     0.001 A 
ATOM     13  C   UNL d   1     -52.223  27.211  33.307  0.00  0.00     0.000 A 
ENDROOT
BRANCH   6  14
ATOM     14  S   UNL d   1     -49.914  26.265  33.372  0.00  0.00     0.287 S 
ATOM     15  O   UNL d   1     -49.433  25.630  33.307  0.00  0.00    -0.198 OA
ATOM     16  O   UNL d   1     -50.403  26.933  33.438  0.00  0.00    -0.198 OA
BRANCH  14  17
ATOM     17  N   UNL d   1     -49.256  26.779  33.368  0.00  0.00    -0.139 NA
BRANCH  17  18
ATOM     18  C   UNL d   1     -49.110  27.267  34.013  0.00  0.00     0.175 A 
ATOM     19  N   UNL d   1     -49.282  27.009  34.789  0.00  0.00    -0.225 NA
ATOM     20  C   UNL d   1     -49.128  27.517  35.434  0.00  0.00     0.101 A 
ATOM     21  C   UNL d   1     -48.808  28.265  35.298  0.00  0.00     0.021 A 
ATOM     22  C   UNL d   1     -48.637  28.526  34.543  0.00  0.00     0.005 A 
ATOM     23  C   UNL d   1     -48.791  28.020  33.895  0.00  0.00     0.040 A 
ENDBRANCH  17  18
ENDBRANCH  14  17
ENDBRANCH   6  14
BRANCH   1  24
ATOM     24  C   UNL d   1     -52.667  23.606  33.424  0.00  0.00     0.083 C 
ATOM     25  C   UNL d   1     -53.424  23.253  33.508  0.00  0.00     0.021 C 
ENDBRANCH   1  24
TORSDOF 4
ENDMDL
