MODEL 1
REMARK VINA RESULT:       4.1      0.000      0.000
REMARK  3 active torsions:
REMARK  status: ('A' for Active; 'I' for Inactive)
REMARK    1  A    between atoms: C_9  and  C_1 
REMARK       I    between atoms: N_12  and  C_9 
REMARK    2  A    between atoms: C_16  and  N_12 
REMARK    3  A    between atoms: C_17  and  C_16 
ROOT
ATOM      1  C   UNL d   1     -42.687-122.359 -51.127  0.00  0.00     0.108 A 
ATOM      2  C   UNL d   1     -42.221-122.703 -52.320  0.00  0.00     0.044 A 
ATOM      3  C   UNL d   1     -42.199-121.847 -52.261  0.00  0.00     0.112 A 
ATOM      4  S   UNL d   1     -42.492-121.637 -51.513  0.00  0.00    -0.061 SA
ATOM      5  C   UNL d   1     -42.526-122.999 -51.608  0.00  0.00     0.116 A 
ATOM      6  N   UNL d   1     -41.923-121.407 -52.883  0.00  0.00    -0.239 NA
ATOM      7  C   UNL d   1     -41.685-122.606 -53.626  0.00  0.00     0.057 A 
ATOM      8  C   UNL d   1     -41.964-123.064 -52.999  0.00  0.00     0.008 A 
ATOM      9  C   UNL d   1     -41.664-121.787 -53.568  0.00  0.00     0.085 A 
ATOM     10  C   UNL d   1     -41.424-122.985 -54.316  0.00  0.00     0.197 A 
ATOM     11  N   UNL d   1     -42.654-123.809 -51.400  0.00  0.00    -0.147 N 
ATOM     12  O   UNL d   1     -41.445-123.817 -54.375  0.00  0.00    -0.286 OA
ATOM     13  C   UNL d   1     -41.383-121.329 -54.201  0.00  0.00     0.019 A 
ATOM     14  C   UNL d   1     -41.145-122.546 -54.945  0.00  0.00     0.042 A 
ATOM     15  C   UNL d   1     -41.124-121.690 -54.886  0.00  0.00     0.005 A 
ENDROOT
BRANCH   1  16
ATOM     16  C   UNL d   1     -43.003-122.424 -50.359  0.00  0.00     0.287 C 
ATOM     17  N   UNL d   1     -42.642-122.947 -49.837  0.00  0.00    -0.206 NA
ATOM     18  O   UNL d   1     -43.653-121.987 -50.117  0.00  0.00    -0.265 OA
BRANCH  17  19
ATOM     19  C   UNL d   1     -42.945-123.025 -49.065  0.00  0.00     0.102 C 
BRANCH  19  20
ATOM     20  C   UNL d   1     -42.437-123.161 -48.433  0.00  0.00     0.019 A 
ATOM     21  C   UNL d   1     -42.698-123.044 -47.660  0.00  0.00     0.002 A 
ATOM     22  C   UNL d   1     -42.185-123.182 -47.030  0.00  0.00     0.000 A 
ATOM     23  C   UNL d   1     -41.421-123.435 -47.164  0.00  0.00     0.000 A 
ATOM     24  C   UNL d   1     -41.154-123.555 -47.932  0.00  0.00     0.000 A 
ATOM     25  C   UNL d   1     -41.662-123.418 -48.569  0.00  0.00     0.002 A 
ENDBRANCH  19  20
ENDBRANCH  17  19
ENDBRANCH   1  16
TORSDOF 3
ENDMDL
