MODEL 1
REMARK VINA RESULT:      55.9      0.000      0.000
REMARK  4 active torsions:
REMARK  status: ('A' for Active; 'I' for Inactive)
REMARK    1  A    between atoms: N_6  and  C_1 
REMARK    2  A    between atoms: C_8  and  N_4 
REMARK    3  A    between atoms: C_9  and  N_6 
REMARK    4  A    between atoms: C_13  and  C_9 
ROOT
ATOM      1  C   UNL d   1      59.584  49.642  50.533  0.00  0.00     0.157 A 
ATOM      2  C   UNL d   1      58.996  49.616  51.111  0.00  0.00     0.298 A 
ATOM      3  N   UNL d   1      58.388  49.668  49.933  0.00  0.00    -0.238 N 
ATOM      4  N   UNL d   1      58.257  49.633  50.736  0.00  0.00    -0.209 N 
ATOM      5  C   UNL d   1      59.221  49.674  49.792  0.00  0.00     0.104 A 
ATOM      6  O   UNL d   1      59.127  49.579  51.951  0.00  0.00    -0.263 OA
ATOM      7  C   UNL d   1      57.778  49.696  49.294  0.00  0.00     0.120 C 
ATOM      8  C   UNL d   1      59.606  49.708  49.025  0.00  0.00     0.022 C 
ENDROOT
BRANCH   1   9
ATOM      9  N   UNL d   1      60.422  49.635  50.669  0.00  0.00    -0.238 NA
BRANCH   9  10
ATOM     10  C   UNL d   1      60.814  48.937  50.872  0.00  0.00     0.099 C 
BRANCH  10  11
ATOM     11  C   UNL d   1      61.179  48.870  51.621  0.00  0.00     0.022 A 
ATOM     12  C   UNL d   1      61.469  49.528  51.981  0.00  0.00     0.022 A 
ATOM     13  C   UNL d   1      61.833  49.465  52.727  0.00  0.00     0.099 A 
ATOM     14  N   UNL d   1      61.905  48.761  53.100  0.00  0.00    -0.242 NA
ATOM     15  C   UNL d   1      61.616  48.077  52.751  0.00  0.00     0.099 A 
ATOM     16  C   UNL d   1      61.241  48.133  51.987  0.00  0.00     0.022 A 
ENDBRANCH  10  11
ENDBRANCH   9  10
ENDBRANCH   1   9
BRANCH   4  17
ATOM     17  C   UNL d   1      57.520  49.615  51.151  0.00  0.00     0.085 A 
ATOM     18  C   UNL d   1      57.524  49.596  51.967  0.00  0.00     0.019 A 
ATOM     19  C   UNL d   1      56.783  49.577  52.385  0.00  0.00     0.002 A 
ATOM     20  C   UNL d   1      56.086  49.579  51.960  0.00  0.00     0.000 A 
ATOM     21  C   UNL d   1      56.080  49.599  51.139  0.00  0.00     0.002 A 
ATOM     22  C   UNL d   1      56.821  49.617  50.721  0.00  0.00     0.019 A 
ENDBRANCH   4  17
TORSDOF 4
ENDMDL
MODEL 2
REMARK VINA RESULT:      57.0      1.613      4.462
REMARK  4 active torsions:
REMARK  status: ('A' for Active; 'I' for Inactive)
REMARK    1  A    between atoms: N_6  and  C_1 
REMARK    2  A    between atoms: C_8  and  N_4 
REMARK    3  A    between atoms: C_9  and  N_6 
REMARK    4  A    between atoms: C_13  and  C_9 
ROOT
ATOM      1  C   UNL d   1      59.685  49.108  50.810  0.00  0.00     0.157 A 
ATOM      2  C   UNL d   1      59.960  48.474  50.360  0.00  0.00     0.298 A 
ATOM      3  N   UNL d   1      60.674  48.503  51.479  0.00  0.00    -0.238 N 
ATOM      4  N   UNL d   1      60.572  48.101  50.778  0.00  0.00    -0.209 N 
ATOM      5  C   UNL d   1      60.120  49.140  51.511  0.00  0.00     0.104 A 
ATOM      6  O   UNL d   1      59.665  48.242  49.598  0.00  0.00    -0.263 OA
ATOM      7  C   UNL d   1      61.258  48.323  52.117  0.00  0.00     0.120 C 
ATOM      8  C   UNL d   1      60.034  49.706  52.152  0.00  0.00     0.022 C 
ENDROOT
BRANCH   1   9
ATOM      9  N   UNL d   1      59.062  49.642  50.595  0.00  0.00    -0.238 NA
BRANCH   9  10
ATOM     10  C   UNL d   1      58.379  49.706  51.057  0.00  0.00     0.099 C 
BRANCH  10  11
ATOM     11  C   UNL d   1      57.628  49.693  50.690  0.00  0.00     0.022 A 
ATOM     12  C   UNL d   1      57.579  49.701  49.887  0.00  0.00     0.022 A 
ATOM     13  C   UNL d   1      56.833  49.688  49.519  0.00  0.00     0.099 A 
ATOM     14  N   UNL d   1      56.155  49.668  49.943  0.00  0.00    -0.242 NA
ATOM     15  C   UNL d   1      56.182  49.659  50.764  0.00  0.00     0.099 A 
ATOM     16  C   UNL d   1      56.943  49.672  51.149  0.00  0.00     0.022 A 
ENDBRANCH  10  11
ENDBRANCH   9  10
ENDBRANCH   1   9
BRANCH   4  17
ATOM     17  C   UNL d   1      60.992  47.425  50.490  0.00  0.00     0.085 A 
ATOM     18  C   UNL d   1      60.764  46.681  50.736  0.00  0.00     0.019 A 
ATOM     19  C   UNL d   1      61.185  46.001  50.447  0.00  0.00     0.002 A 
ATOM     20  C   UNL d   1      61.808  46.109  49.929  0.00  0.00     0.000 A 
ATOM     21  C   UNL d   1      62.039  46.857  49.680  0.00  0.00     0.002 A 
ATOM     22  C   UNL d   1      61.617  47.537  49.970  0.00  0.00     0.019 A 
ENDBRANCH   4  17
TORSDOF 4
ENDMDL
