MODEL 1
REMARK VINA RESULT:      51.8      0.000      0.000
REMARK  8 active torsions:
REMARK  status: ('A' for Active; 'I' for Inactive)
REMARK    1  A    between atoms: C_21  and  C_3 
REMARK    2  A    between atoms: S_17  and  C_5 
REMARK    3  A    between atoms: C_11  and  C_16 
REMARK       I    between atoms: N_14  and  C_11 
REMARK    4  A    between atoms: C_19  and  N_14 
REMARK    5  A    between atoms: C_16  and  C_20 
REMARK    6  A    between atoms: C_20  and  S_17 
REMARK    7  A    between atoms: O_27  and  C_22 
REMARK    8  A    between atoms: C_30  and  O_27 
ROOT
ATOM      1  C   UNL d   1     -57.152 -98.759 -43.849  0.00  0.00     0.092 A 
ATOM      2  C   UNL d   1     -58.362 -98.758 -44.612  0.00  0.00     0.057 A 
ATOM      3  C   UNL d   1     -57.979 -98.758 -43.882  0.00  0.00     0.016 A 
ATOM      4  N   UNL d   1     -57.098 -98.762 -45.278  0.00  0.00    -0.239 NA
ATOM      5  C   UNL d   1     -56.712 -98.761 -44.547  0.00  0.00     0.120 A 
ATOM      6  C   UNL d   1     -57.921 -98.761 -45.310  0.00  0.00     0.081 A 
ATOM      7  C   UNL d   1     -59.184 -98.757 -44.642  0.00  0.00     0.193 A 
ATOM      8  C   UNL d   1     -56.770 -98.758 -43.105  0.00  0.00     0.103 C 
ATOM      9  N   UNL d   1     -56.381 -98.757 -42.362  0.00  0.00    -0.191 NA
ATOM     10  C   UNL d   1     -59.127 -98.760 -46.070  0.00  0.00     0.042 A 
ATOM     11  C   UNL d   1     -59.567 -98.758 -45.372  0.00  0.00     0.019 A 
ATOM     12  C   UNL d   1     -58.304 -98.761 -46.038  0.00  0.00    -0.003 A 
ATOM     13  O   UNL d   1     -59.624 -98.755 -43.945  0.00  0.00    -0.287 OA
ATOM     14  C   UNL d   1     -58.956 -98.762 -46.879  0.00  0.00     0.009 C 
ATOM     15  C   UNL d   1     -59.960 -98.759 -46.108  0.00  0.00     0.009 C 
ENDROOT
BRANCH   3  16
ATOM     16  C   UNL d   1     -58.419 -98.755 -43.184  0.00  0.00     0.001 C 
ATOM     17  C   UNL d   1     -59.112 -99.198 -43.133  0.00  0.00     0.000 C 
ENDBRANCH   3  16
BRANCH   5  18
ATOM     18  S   UNL d   1     -55.883 -98.762 -44.511  0.00  0.00    -0.067 SA
BRANCH  18  19
ATOM     19  C   UNL d   1     -55.446 -99.100 -45.127  0.00  0.00     0.042 C 
BRANCH  19  20
ATOM     20  C   UNL d   1     -55.336 -99.924 -45.159  0.00  0.00     0.070 C 
BRANCH  20  21
ATOM     21  C   UNL d   1     -55.384-100.374 -44.467  0.00  0.00     0.280 C 
ATOM     22  N   UNL d   1     -54.759-100.880 -44.255  0.00  0.00    -0.208 NA
ATOM     23  O   UNL d   1     -56.056-100.322 -43.983  0.00  0.00    -0.265 OA
BRANCH  22  24
ATOM     24  C   UNL d   1     -54.806-101.332 -43.563  0.00  0.00     0.085 A 
ATOM     25  C   UNL d   1     -54.719-100.967 -42.823  0.00  0.00     0.021 A 
ATOM     26  C   UNL d   1     -54.767-101.421 -42.139  0.00  0.00     0.026 A 
ATOM     27  C   UNL d   1     -54.903-102.246 -42.177  0.00  0.00     0.100 A 
ATOM     28  C   UNL d   1     -54.988-102.602 -42.916  0.00  0.00     0.026 A 
ATOM     29  C   UNL d   1     -54.941-102.152 -43.608  0.00  0.00     0.021 A 
BRANCH  27  30
ATOM     30  O   UNL d   1     -54.952-102.706 -41.476  0.00  0.00    -0.305 OA
BRANCH  30  31
ATOM     31  C   UNL d   1     -54.944-102.332 -40.738  0.00  0.00     0.123 C 
ATOM     32  C   UNL d   1     -54.774-102.767 -40.067  0.00  0.00     0.029 C 
ENDBRANCH  30  31
ENDBRANCH  27  30
ENDBRANCH  22  24
ENDBRANCH  20  21
ENDBRANCH  19  20
ENDBRANCH  18  19
ENDBRANCH   5  18
TORSDOF 8
ENDMDL
