MODEL 1
REMARK VINA RESULT:      -8.5      0.000      0.000
REMARK  7 active torsions:
REMARK  status: ('A' for Active; 'I' for Inactive)
REMARK    1  A    between atoms: C_8  and  C_1 
REMARK    2  A    between atoms: N_7  and  C_2 
REMARK    3  A    between atoms: C_5  and  N_7 
REMARK    4  A    between atoms: N_9  and  C_5 
REMARK    5  A    between atoms: O_12  and  C_8 
REMARK    6  A    between atoms: C_13  and  N_9 
REMARK    7  A    between atoms: C_16  and  O_12 
ROOT
ATOM      1  C   UNL d   1      53.350  32.023  53.546  0.00  0.00     0.162 A 
ATOM      2  C   UNL d   1      53.112  32.801  53.466  0.00  0.00     0.108 A 
ATOM      3  N   UNL d   1      53.918  31.985  54.144  0.00  0.00    -0.239 NA
ATOM      4  C   UNL d   1      53.528  33.255  54.010  0.00  0.00     0.037 A 
ATOM      5  C   UNL d   1      54.028  32.754  54.432  0.00  0.00     0.083 A 
ATOM      6  C   UNL d   1      53.517  34.062  54.178  0.00  0.00     0.003 A 
ATOM      7  C   UNL d   1      54.520  33.058  55.024  0.00  0.00     0.019 A 
ATOM      8  C   UNL d   1      54.003  34.373  54.766  0.00  0.00     0.000 A 
ATOM      9  C   UNL d   1      54.506  33.863  55.189  0.00  0.00     0.002 A 
ENDROOT
BRANCH   2  10
ATOM     10  N   UNL d   1      52.545  33.091  52.925  0.00  0.00    -0.216 NA
BRANCH  10  11
ATOM     11  C   UNL d   1      51.833  33.403  53.210  0.00  0.00     0.221 C 
ATOM     12  S   UNL d   1      51.340  32.953  53.701  0.00  0.00    -0.037 SA
BRANCH  11  13
ATOM     13  N   UNL d   1      51.617  34.174  52.997  0.00  0.00    -0.217 NA
BRANCH  13  14
ATOM     14  C   UNL d   1      50.911  34.300  52.589  0.00  0.00     0.084 A 
ATOM     15  C   UNL d   1      50.241  34.551  52.995  0.00  0.00     0.019 A 
ATOM     16  C   UNL d   1      49.526  34.680  52.590  0.00  0.00     0.002 A 
ATOM     17  C   UNL d   1      49.496  34.552  51.771  0.00  0.00     0.000 A 
ATOM     18  C   UNL d   1      50.167  34.299  51.358  0.00  0.00     0.002 A 
ATOM     19  C   UNL d   1      50.868  34.176  51.770  0.00  0.00     0.019 A 
ENDBRANCH  13  14
ENDBRANCH  11  13
ENDBRANCH  10  11
ENDBRANCH   2  10
BRANCH   1  20
ATOM     20  C   UNL d   1      53.071  31.381  53.106  0.00  0.00     0.320 C 
ATOM     21  O   UNL d   1      53.069  31.422  52.279  0.00  0.00    -0.257 OA
BRANCH  20  22
ATOM     22  O   UNL d   1      52.795  30.702  53.475  0.00  0.00    -0.270 OA
BRANCH  22  23
ATOM     23  C   UNL d   1      52.868  29.972  53.092  0.00  0.00     0.126 C 
ATOM     24  C   UNL d   1      52.650  29.284  53.482  0.00  0.00     0.029 C 
ENDBRANCH  22  23
ENDBRANCH  20  22
ENDBRANCH   1  20
TORSDOF 7
ENDMDL
MODEL 2
REMARK VINA RESULT:      -8.0      1.082      2.614
REMARK  7 active torsions:
REMARK  status: ('A' for Active; 'I' for Inactive)
REMARK    1  A    between atoms: C_8  and  C_1 
REMARK    2  A    between atoms: N_7  and  C_2 
REMARK    3  A    between atoms: C_5  and  N_7 
REMARK    4  A    between atoms: N_9  and  C_5 
REMARK    5  A    between atoms: O_12  and  C_8 
REMARK    6  A    between atoms: C_13  and  N_9 
REMARK    7  A    between atoms: C_16  and  O_12 
ROOT
ATOM      1  C   UNL d   1      53.971  32.020  53.672  0.00  0.00     0.162 A 
ATOM      2  C   UNL d   1      53.312  31.927  53.198  0.00  0.00     0.108 A 
ATOM      3  N   UNL d   1      54.172  31.283  53.985  0.00  0.00    -0.239 NA
ATOM      4  C   UNL d   1      53.096  31.135  53.211  0.00  0.00     0.037 A 
ATOM      5  C   UNL d   1      53.625  30.732  53.697  0.00  0.00     0.083 A 
ATOM      6  C   UNL d   1      52.483  30.724  52.842  0.00  0.00     0.003 A 
ATOM      7  C   UNL d   1      53.545  29.917  53.817  0.00  0.00     0.019 A 
ATOM      8  C   UNL d   1      52.396  29.912  52.956  0.00  0.00     0.000 A 
ATOM      9  C   UNL d   1      52.934  29.511  53.448  0.00  0.00     0.002 A 
ENDROOT
BRANCH   2  10
ATOM     10  N   UNL d   1      52.921  32.530  52.771  0.00  0.00    -0.216 NA
BRANCH  10  11
ATOM     11  C   UNL d   1      52.251  32.891  53.097  0.00  0.00     0.221 C 
ATOM     12  S   UNL d   1      51.694  32.445  53.519  0.00  0.00    -0.037 SA
BRANCH  11  13
ATOM     13  N   UNL d   1      52.143  33.706  52.997  0.00  0.00    -0.217 NA
BRANCH  13  14
ATOM     14  C   UNL d   1      51.435  33.985  52.680  0.00  0.00     0.084 A 
ATOM     15  C   UNL d   1      50.806  34.171  53.178  0.00  0.00     0.019 A 
ATOM     16  C   UNL d   1      50.089  34.453  52.866  0.00  0.00     0.002 A 
ATOM     17  C   UNL d   1      50.013  34.545  52.046  0.00  0.00     0.000 A 
ATOM     18  C   UNL d   1      50.641  34.360  51.539  0.00  0.00     0.002 A 
ATOM     19  C   UNL d   1      51.346  34.082  51.861  0.00  0.00     0.019 A 
ENDBRANCH  13  14
ENDBRANCH  11  13
ENDBRANCH  10  11
ENDBRANCH   2  10
BRANCH   1  20
ATOM     20  C   UNL d   1      54.371  32.730  53.815  0.00  0.00     0.320 C 
ATOM     21  O   UNL d   1      54.764  33.111  53.193  0.00  0.00    -0.257 OA
BRANCH  20  22
ATOM     22  O   UNL d   1      54.386  33.064  54.565  0.00  0.00    -0.270 OA
BRANCH  22  23
ATOM     23  C   UNL d   1      55.014  33.560  54.777  0.00  0.00     0.126 C 
ATOM     24  C   UNL d   1      55.007  33.935  55.506  0.00  0.00     0.029 C 
ENDBRANCH  22  23
ENDBRANCH  20  22
ENDBRANCH   1  20
TORSDOF 7
ENDMDL
MODEL 3
REMARK VINA RESULT:      -7.7      1.320      3.699
REMARK  7 active torsions:
REMARK  status: ('A' for Active; 'I' for Inactive)
REMARK    1  A    between atoms: C_8  and  C_1 
REMARK    2  A    between atoms: N_7  and  C_2 
REMARK    3  A    between atoms: C_5  and  N_7 
REMARK    4  A    between atoms: N_9  and  C_5 
REMARK    5  A    between atoms: O_12  and  C_8 
REMARK    6  A    between atoms: C_13  and  N_9 
REMARK    7  A    between atoms: C_16  and  O_12 
ROOT
ATOM      1  C   UNL d   1      52.633  33.762  53.988  0.00  0.00     0.162 A 
ATOM      2  C   UNL d   1      53.111  33.141  54.222  0.00  0.00     0.108 A 
ATOM      3  N   UNL d   1      52.981  34.466  54.242  0.00  0.00    -0.239 NA
ATOM      4  C   UNL d   1      53.758  33.450  54.622  0.00  0.00     0.037 A 
ATOM      5  C   UNL d   1      53.683  34.269  54.638  0.00  0.00     0.083 A 
ATOM      6  C   UNL d   1      54.410  33.090  54.977  0.00  0.00     0.003 A 
ATOM      7  C   UNL d   1      54.258  34.735  55.007  0.00  0.00     0.019 A 
ATOM      8  C   UNL d   1      54.988  33.546  55.347  0.00  0.00     0.000 A 
ATOM      9  C   UNL d   1      54.906  34.373  55.360  0.00  0.00     0.002 A 
ENDROOT
BRANCH   2  10
ATOM     10  N   UNL d   1      52.969  32.329  54.080  0.00  0.00    -0.216 NA
BRANCH  10  11
ATOM     11  C   UNL d   1      53.512  31.893  53.633  0.00  0.00     0.221 C 
ATOM     12  S   UNL d   1      53.751  32.155  52.884  0.00  0.00    -0.037 SA
BRANCH  11  13
ATOM     13  N   UNL d   1      53.815  31.187  53.943  0.00  0.00    -0.217 NA
BRANCH  13  14
ATOM     14  C   UNL d   1      53.439  30.473  53.770  0.00  0.00     0.084 A 
ATOM     15  C   UNL d   1      53.400  29.881  54.341  0.00  0.00     0.019 A 
ATOM     16  C   UNL d   1      53.022  29.159  54.174  0.00  0.00     0.002 A 
ATOM     17  C   UNL d   1      52.684  29.042  53.426  0.00  0.00     0.000 A 
ATOM     18  C   UNL d   1      52.720  29.634  52.849  0.00  0.00     0.002 A 
ATOM     19  C   UNL d   1      53.097  30.344  53.026  0.00  0.00     0.019 A 
ENDBRANCH  13  14
ENDBRANCH  11  13
ENDBRANCH  10  11
ENDBRANCH   2  10
BRANCH   1  20
ATOM     20  C   UNL d   1      51.923  33.699  53.569  0.00  0.00     0.320 C 
ATOM     21  O   UNL d   1      51.280  33.306  53.911  0.00  0.00    -0.257 OA
BRANCH  20  22
ATOM     22  O   UNL d   1      51.845  34.022  52.818  0.00  0.00    -0.270 OA
BRANCH  22  23
ATOM     23  C   UNL d   1      51.088  34.147  52.506  0.00  0.00     0.126 C 
ATOM     24  C   UNL d   1      51.001  34.325  51.710  0.00  0.00     0.029 C 
ENDBRANCH  22  23
ENDBRANCH  20  22
ENDBRANCH   1  20
TORSDOF 7
ENDMDL
MODEL 4
REMARK VINA RESULT:      -7.1      1.312      4.052
REMARK  7 active torsions:
REMARK  status: ('A' for Active; 'I' for Inactive)
REMARK    1  A    between atoms: C_8  and  C_1 
REMARK    2  A    between atoms: N_7  and  C_2 
REMARK    3  A    between atoms: C_5  and  N_7 
REMARK    4  A    between atoms: N_9  and  C_5 
REMARK    5  A    between atoms: O_12  and  C_8 
REMARK    6  A    between atoms: C_13  and  N_9 
REMARK    7  A    between atoms: C_16  and  O_12 
ROOT
ATOM      1  C   UNL d   1      53.261  33.694  53.682  0.00  0.00     0.162 A 
ATOM      2  C   UNL d   1      52.683  33.116  53.670  0.00  0.00     0.108 A 
ATOM      3  N   UNL d   1      52.927  34.401  53.417  0.00  0.00    -0.239 NA
ATOM      4  C   UNL d   1      51.986  33.455  53.398  0.00  0.00     0.037 A 
ATOM      5  C   UNL d   1      52.132  34.250  53.241  0.00  0.00     0.083 A 
ATOM      6  C   UNL d   1      51.233  33.142  53.273  0.00  0.00     0.003 A 
ATOM      7  C   UNL d   1      51.526  34.737  52.957  0.00  0.00     0.019 A 
ATOM      8  C   UNL d   1      50.623  33.621  52.991  0.00  0.00     0.000 A 
ATOM      9  C   UNL d   1      50.777  34.423  52.834  0.00  0.00     0.002 A 
ENDROOT
BRANCH   2  10
ATOM     10  N   UNL d   1      52.779  32.316  53.893  0.00  0.00    -0.216 NA
BRANCH  10  11
ATOM     11  C   UNL d   1      52.919  31.744  53.312  0.00  0.00     0.221 C 
ATOM     12  S   UNL d   1      52.460  31.721  52.622  0.00  0.00    -0.037 SA
BRANCH  11  13
ATOM     13  N   UNL d   1      53.527  31.193  53.426  0.00  0.00    -0.217 NA
BRANCH  13  14
ATOM     14  C   UNL d   1      53.337  30.422  53.652  0.00  0.00     0.084 A 
ATOM     15  C   UNL d   1      53.543  30.150  54.401  0.00  0.00     0.019 A 
ATOM     16  C   UNL d   1      53.356  29.375  54.636  0.00  0.00     0.002 A 
ATOM     17  C   UNL d   1      52.958  28.877  54.106  0.00  0.00     0.000 A 
ATOM     18  C   UNL d   1      52.748  29.144  53.350  0.00  0.00     0.002 A 
ATOM     19  C   UNL d   1      52.939  29.914  53.131  0.00  0.00     0.019 A 
ENDBRANCH  13  14
ENDBRANCH  11  13
ENDBRANCH  10  11
ENDBRANCH   2  10
BRANCH   1  20
ATOM     20  C   UNL d   1      54.047  33.591  53.919  0.00  0.00     0.320 C 
ATOM     21  O   UNL d   1      54.630  33.449  53.349  0.00  0.00    -0.257 OA
BRANCH  20  22
ATOM     22  O   UNL d   1      54.259  33.628  54.711  0.00  0.00    -0.270 OA
BRANCH  22  23
ATOM     23  C   UNL d   1      55.048  33.769  54.915  0.00  0.00     0.126 C 
ATOM     24  C   UNL d   1      55.266  33.799  55.705  0.00  0.00     0.029 C 
ENDBRANCH  22  23
ENDBRANCH  20  22
ENDBRANCH   1  20
TORSDOF 7
ENDMDL
MODEL 5
REMARK VINA RESULT:      -6.5      1.067      3.591
REMARK  7 active torsions:
REMARK  status: ('A' for Active; 'I' for Inactive)
REMARK    1  A    between atoms: C_8  and  C_1 
REMARK    2  A    between atoms: N_7  and  C_2 
REMARK    3  A    between atoms: C_5  and  N_7 
REMARK    4  A    between atoms: N_9  and  C_5 
REMARK    5  A    between atoms: O_12  and  C_8 
REMARK    6  A    between atoms: C_13  and  N_9 
REMARK    7  A    between atoms: C_16  and  O_12 
ROOT
ATOM      1  C   UNL d   1      52.101  32.061  52.896  0.00  0.00     0.162 A 
ATOM      2  C   UNL d   1      52.372  32.832  52.932  0.00  0.00     0.108 A 
ATOM      3  N   UNL d   1      51.276  32.075  52.921  0.00  0.00    -0.239 NA
ATOM      4  C   UNL d   1      51.722  33.332  52.979  0.00  0.00     0.037 A 
ATOM      5  C   UNL d   1      51.041  32.869  52.973  0.00  0.00     0.083 A 
ATOM      6  C   UNL d   1      51.661  34.152  53.028  0.00  0.00     0.003 A 
ATOM      7  C   UNL d   1      50.295  33.223  53.014  0.00  0.00     0.019 A 
ATOM      8  C   UNL d   1      50.921  34.514  53.070  0.00  0.00     0.000 A 
ATOM      9  C   UNL d   1      50.237  34.041  53.062  0.00  0.00     0.002 A 
ENDROOT
BRANCH   2  10
ATOM     10  N   UNL d   1      53.172  33.074  52.923  0.00  0.00    -0.216 NA
BRANCH  10  11
ATOM     11  C   UNL d   1      53.474  33.505  53.562  0.00  0.00     0.221 C 
ATOM     12  S   UNL d   1      53.514  34.332  53.534  0.00  0.00    -0.037 SA
BRANCH  11  13
ATOM     13  N   UNL d   1      53.738  33.098  54.234  0.00  0.00    -0.217 NA
BRANCH  13  14
ATOM     14  C   UNL d   1      54.397  33.377  54.644  0.00  0.00     0.084 A 
ATOM     15  C   UNL d   1      54.342  33.536  55.451  0.00  0.00     0.019 A 
ATOM     16  C   UNL d   1      55.002  33.818  55.871  0.00  0.00     0.002 A 
ATOM     17  C   UNL d   1      55.717  33.937  55.469  0.00  0.00     0.000 A 
ATOM     18  C   UNL d   1      55.779  33.779  54.659  0.00  0.00     0.002 A 
ATOM     19  C   UNL d   1      55.118  33.501  54.254  0.00  0.00     0.019 A 
ENDBRANCH  13  14
ENDBRANCH  11  13
ENDBRANCH  10  11
ENDBRANCH   2  10
BRANCH   1  20
ATOM     20  C   UNL d   1      52.570  31.382  52.844  0.00  0.00     0.320 C 
ATOM     21  O   UNL d   1      53.005  31.237  52.155  0.00  0.00    -0.257 OA
BRANCH  20  22
ATOM     22  O   UNL d   1      52.611  30.847  53.466  0.00  0.00    -0.270 OA
BRANCH  22  23
ATOM     23  C   UNL d   1      52.941  30.099  53.338  0.00  0.00     0.126 C 
ATOM     24  C   UNL d   1      53.076  29.599  53.974  0.00  0.00     0.029 C 
ENDBRANCH  22  23
ENDBRANCH  20  22
ENDBRANCH   1  20
TORSDOF 7
ENDMDL
MODEL 6
REMARK VINA RESULT:      -6.3      1.394      4.024
REMARK  7 active torsions:
REMARK  status: ('A' for Active; 'I' for Inactive)
REMARK    1  A    between atoms: C_8  and  C_1 
REMARK    2  A    between atoms: N_7  and  C_2 
REMARK    3  A    between atoms: C_5  and  N_7 
REMARK    4  A    between atoms: N_9  and  C_5 
REMARK    5  A    between atoms: O_12  and  C_8 
REMARK    6  A    between atoms: C_13  and  N_9 
REMARK    7  A    between atoms: C_16  and  O_12 
ROOT
ATOM      1  C   UNL d   1      52.392  31.886  52.892  0.00  0.00     0.162 A 
ATOM      2  C   UNL d   1      52.860  31.711  53.540  0.00  0.00     0.108 A 
ATOM      3  N   UNL d   1      52.221  31.180  52.498  0.00  0.00    -0.239 NA
ATOM      4  C   UNL d   1      52.985  30.900  53.556  0.00  0.00     0.037 A 
ATOM      5  C   UNL d   1      52.592  30.567  52.914  0.00  0.00     0.083 A 
ATOM      6  C   UNL d   1      53.408  30.418  54.074  0.00  0.00     0.003 A 
ATOM      7  C   UNL d   1      52.619  29.749  52.786  0.00  0.00     0.019 A 
ATOM      8  C   UNL d   1      53.440  29.603  53.955  0.00  0.00     0.000 A 
ATOM      9  C   UNL d   1      53.041  29.272  53.304  0.00  0.00     0.002 A 
ENDROOT
BRANCH   2  10
ATOM     10  N   UNL d   1      53.162  32.261  54.092  0.00  0.00    -0.216 NA
BRANCH  10  11
ATOM     11  C   UNL d   1      53.976  32.403  54.122  0.00  0.00     0.221 C 
ATOM     12  S   UNL d   1      54.434  32.392  53.431  0.00  0.00    -0.037 SA
BRANCH  11  13
ATOM     13  N   UNL d   1      54.332  32.557  54.854  0.00  0.00    -0.217 NA
BRANCH  13  14
ATOM     14  C   UNL d   1      54.530  33.333  55.054  0.00  0.00     0.084 A 
ATOM     15  C   UNL d   1      55.311  33.587  54.992  0.00  0.00     0.019 A 
ATOM     16  C   UNL d   1      55.518  34.367  55.192  0.00  0.00     0.002 A 
ATOM     17  C   UNL d   1      54.928  34.888  55.453  0.00  0.00     0.000 A 
ATOM     18  C   UNL d   1      54.141  34.638  55.518  0.00  0.00     0.002 A 
ATOM     19  C   UNL d   1      53.950  33.864  55.317  0.00  0.00     0.019 A 
ENDBRANCH  13  14
ENDBRANCH  11  13
ENDBRANCH  10  11
ENDBRANCH   2  10
BRANCH   1  20
ATOM     20  C   UNL d   1      52.132  32.638  52.667  0.00  0.00     0.320 C 
ATOM     21  O   UNL d   1      52.548  33.058  52.088  0.00  0.00    -0.257 OA
BRANCH  20  22
ATOM     22  O   UNL d   1      51.467  32.976  53.010  0.00  0.00    -0.270 OA
BRANCH  22  23
ATOM     23  C   UNL d   1      51.135  33.655  52.671  0.00  0.00     0.126 C 
ATOM     24  C   UNL d   1      50.497  34.020  53.033  0.00  0.00     0.029 C 
ENDBRANCH  22  23
ENDBRANCH  20  22
ENDBRANCH   1  20
TORSDOF 7
ENDMDL
