MODEL 1
REMARK VINA RESULT:      -8.5      0.000      0.000
REMARK  5 active torsions:
REMARK  status: ('A' for Active; 'I' for Inactive)
REMARK    1  A    between atoms: N_5  and  C_3 
REMARK    2  A    between atoms: O_13  and  C_4 
REMARK       I    between atoms: C_6  and  N_5 
REMARK    3  A    between atoms: C_9  and  C_6 
REMARK    4  A    between atoms: O_14  and  C_7 
REMARK    5  A    between atoms: O_18  and  C_15 
ROOT
ATOM      1  N   UNL d   1      52.326  32.448  53.578  0.00  0.00    -0.189 NA
ATOM      2  C   UNL d   1      52.834  31.978  53.113  0.00  0.00     0.281 C 
ATOM      3  O   UNL d   1      53.203  32.304  52.431  0.00  0.00    -0.265 OA
ENDROOT
BRANCH   1   4
ATOM      4  C   UNL d   1      52.188  33.234  53.365  0.00  0.00     0.173 A 
ATOM      5  N   UNL d   1      52.713  33.833  53.607  0.00  0.00    -0.186 NA
ATOM      6  C   UNL d   1      52.569  34.612  53.391  0.00  0.00     0.273 A 
ATOM      7  N   UNL d   1      51.893  34.787  52.931  0.00  0.00    -0.181 NA
ATOM      8  C   UNL d   1      51.393  34.215  52.701  0.00  0.00     0.185 A 
ATOM      9  C   UNL d   1      51.524  33.420  52.911  0.00  0.00     0.083 A 
BRANCH   6  10
ATOM     10  O   UNL d   1      53.076  35.191  53.624  0.00  0.00    -0.297 OA
ATOM     11  C   UNL d   1      53.032  35.507  54.371  0.00  0.00     0.185 C 
ENDBRANCH   6  10
BRANCH   8  12
ATOM     12  O   UNL d   1      50.727  34.420  52.242  0.00  0.00    -0.312 OA
ATOM     13  C   UNL d   1      49.979  34.433  52.613  0.00  0.00     0.183 C 
ENDBRANCH   8  12
ENDBRANCH   1   4
BRANCH   2  14
ATOM     14  C   UNL d   1      52.963  31.194  53.337  0.00  0.00     0.058 A 
ATOM     15  C   UNL d   1      52.480  30.585  53.054  0.00  0.00     0.007 A 
ATOM     16  C   UNL d   1      52.604  29.831  53.268  0.00  0.00     0.024 A 
ATOM     17  C   UNL d   1      53.228  29.625  53.788  0.00  0.00     0.094 A 
ATOM     18  C   UNL d   1      53.715  30.225  54.075  0.00  0.00     0.024 A 
ATOM     19  C   UNL d   1      53.569  31.000  53.840  0.00  0.00     0.007 A 
BRANCH  17  20
ATOM     20  O   UNL d   1      53.363  28.853  54.013  0.00  0.00    -0.328 OA
ATOM     21  C   UNL d   1      53.401  28.659  54.796  0.00  0.00     0.181 C 
ENDBRANCH  17  20
ENDBRANCH   2  14
TORSDOF 5
ENDMDL
MODEL 2
REMARK VINA RESULT:      -7.5      1.405      4.340
REMARK  5 active torsions:
REMARK  status: ('A' for Active; 'I' for Inactive)
REMARK    1  A    between atoms: N_5  and  C_3 
REMARK    2  A    between atoms: O_13  and  C_4 
REMARK       I    between atoms: C_6  and  N_5 
REMARK    3  A    between atoms: C_9  and  C_6 
REMARK    4  A    between atoms: O_14  and  C_7 
REMARK    5  A    between atoms: O_18  and  C_15 
ROOT
ATOM      1  N   UNL d   1      51.884  33.201  53.457  0.00  0.00    -0.189 NA
ATOM      2  C   UNL d   1      51.863  33.822  52.901  0.00  0.00     0.281 C 
ATOM      3  O   UNL d   1      52.581  34.167  52.627  0.00  0.00    -0.265 OA
ENDROOT
BRANCH   1   4
ATOM      4  C   UNL d   1      52.611  32.928  53.737  0.00  0.00     0.173 A 
ATOM      5  N   UNL d   1      53.012  33.340  54.337  0.00  0.00    -0.186 NA
ATOM      6  C   UNL d   1      53.735  33.062  54.611  0.00  0.00     0.273 A 
ATOM      7  N   UNL d   1      54.053  32.366  54.276  0.00  0.00    -0.181 NA
ATOM      8  C   UNL d   1      53.670  31.972  53.703  0.00  0.00     0.185 A 
ATOM      9  C   UNL d   1      52.937  32.240  53.414  0.00  0.00     0.083 A 
BRANCH   6  10
ATOM     10  O   UNL d   1      54.123  33.461  55.192  0.00  0.00    -0.297 OA
ATOM     11  C   UNL d   1      54.909  33.646  55.115  0.00  0.00     0.185 C 
ENDBRANCH   6  10
BRANCH   8  12
ATOM     12  O   UNL d   1      54.013  31.279  53.389  0.00  0.00    -0.312 OA
ATOM     13  C   UNL d   1      53.618  30.553  53.508  0.00  0.00     0.183 C 
ENDBRANCH   8  12
ENDBRANCH   1   4
BRANCH   2  14
ATOM     14  C   UNL d   1      51.131  34.087  52.629  0.00  0.00     0.058 A 
ATOM     15  C   UNL d   1      50.929  34.033  51.829  0.00  0.00     0.007 A 
ATOM     16  C   UNL d   1      50.224  34.287  51.566  0.00  0.00     0.024 A 
ATOM     17  C   UNL d   1      49.660  34.618  52.089  0.00  0.00     0.094 A 
ATOM     18  C   UNL d   1      49.852  34.676  52.889  0.00  0.00     0.024 A 
ATOM     19  C   UNL d   1      50.588  34.407  53.140  0.00  0.00     0.007 A 
BRANCH  17  20
ATOM     20  O   UNL d   1      48.934  34.882  51.829  0.00  0.00    -0.328 OA
ATOM     21  C   UNL d   1      48.690  34.721  51.076  0.00  0.00     0.181 C 
ENDBRANCH  17  20
ENDBRANCH   2  14
TORSDOF 5
ENDMDL
MODEL 3
REMARK VINA RESULT:      -7.3      1.356      4.613
REMARK  5 active torsions:
REMARK  status: ('A' for Active; 'I' for Inactive)
REMARK    1  A    between atoms: N_5  and  C_3 
REMARK    2  A    between atoms: O_13  and  C_4 
REMARK       I    between atoms: C_6  and  N_5 
REMARK    3  A    between atoms: C_9  and  C_6 
REMARK    4  A    between atoms: O_14  and  C_7 
REMARK    5  A    between atoms: O_18  and  C_15 
ROOT
ATOM      1  N   UNL d   1      51.776  33.148  53.377  0.00  0.00    -0.189 NA
ATOM      2  C   UNL d   1      51.633  33.609  52.697  0.00  0.00     0.281 C 
ATOM      3  O   UNL d   1      52.209  33.645  52.084  0.00  0.00    -0.265 OA
ENDROOT
BRANCH   1   4
ATOM      4  C   UNL d   1      52.485  32.730  53.446  0.00  0.00     0.173 A 
ATOM      5  N   UNL d   1      52.548  31.958  53.141  0.00  0.00    -0.186 NA
ATOM      6  C   UNL d   1      53.256  31.548  53.213  0.00  0.00     0.273 A 
ATOM      7  N   UNL d   1      53.901  31.918  53.594  0.00  0.00    -0.181 NA
ATOM      8  C   UNL d   1      53.841  32.654  53.885  0.00  0.00     0.185 A 
ATOM      9  C   UNL d   1      53.130  33.084  53.820  0.00  0.00     0.083 A 
BRANCH   6  10
ATOM     10  O   UNL d   1      53.317  30.802  52.918  0.00  0.00    -0.297 OA
ATOM     11  C   UNL d   1      53.041  30.165  53.338  0.00  0.00     0.185 C 
ENDBRANCH   6  10
BRANCH   8  12
ATOM     12  O   UNL d   1      54.502  32.997  54.260  0.00  0.00    -0.312 OA
ATOM     13  C   UNL d   1      54.473  33.113  55.086  0.00  0.00     0.183 C 
ENDBRANCH   8  12
ENDBRANCH   1   4
BRANCH   2  14
ATOM     14  C   UNL d   1      50.922  34.022  52.641  0.00  0.00     0.058 A 
ATOM     15  C   UNL d   1      50.491  34.034  51.935  0.00  0.00     0.007 A 
ATOM     16  C   UNL d   1      49.806  34.431  51.879  0.00  0.00     0.024 A 
ATOM     17  C   UNL d   1      49.495  34.853  52.533  0.00  0.00     0.094 A 
ATOM     18  C   UNL d   1      49.918  34.847  53.242  0.00  0.00     0.024 A 
ATOM     19  C   UNL d   1      50.626  34.429  53.277  0.00  0.00     0.007 A 
BRANCH  17  20
ATOM     20  O   UNL d   1      48.793  35.264  52.486  0.00  0.00    -0.328 OA
ATOM     21  C   UNL d   1      48.526  35.688  53.119  0.00  0.00     0.181 C 
ENDBRANCH  17  20
ENDBRANCH   2  14
TORSDOF 5
ENDMDL
MODEL 4
REMARK VINA RESULT:      -6.0      1.198      2.124
REMARK  5 active torsions:
REMARK  status: ('A' for Active; 'I' for Inactive)
REMARK    1  A    between atoms: N_5  and  C_3 
REMARK    2  A    between atoms: O_13  and  C_4 
REMARK       I    between atoms: C_6  and  N_5 
REMARK    3  A    between atoms: C_9  and  C_6 
REMARK    4  A    between atoms: O_14  and  C_7 
REMARK    5  A    between atoms: O_18  and  C_15 
ROOT
ATOM      1  N   UNL d   1      53.200  32.357  54.341  0.00  0.00    -0.189 NA
ATOM      2  C   UNL d   1      53.502  31.868  53.736  0.00  0.00     0.281 C 
ATOM      3  O   UNL d   1      53.910  32.209  53.083  0.00  0.00    -0.265 OA
ENDROOT
BRANCH   1   4
ATOM      4  C   UNL d   1      53.303  33.175  54.295  0.00  0.00     0.173 A 
ATOM      5  N   UNL d   1      52.826  33.630  53.788  0.00  0.00    -0.186 NA
ATOM      6  C   UNL d   1      52.934  34.444  53.747  0.00  0.00     0.273 A 
ATOM      7  N   UNL d   1      53.525  34.797  54.220  0.00  0.00    -0.181 NA
ATOM      8  C   UNL d   1      53.980  34.362  54.704  0.00  0.00     0.185 A 
ATOM      9  C   UNL d   1      53.884  33.537  54.757  0.00  0.00     0.083 A 
BRANCH   6  10
ATOM     10  O   UNL d   1      52.473  34.884  53.257  0.00  0.00    -0.297 OA
ATOM     11  C   UNL d   1      51.669  34.917  53.362  0.00  0.00     0.185 C 
ENDBRANCH   6  10
BRANCH   8  12
ATOM     12  O   UNL d   1      54.562  34.744  55.164  0.00  0.00    -0.312 OA
ATOM     13  C   UNL d   1      55.322  34.399  55.207  0.00  0.00     0.183 C 
ENDBRANCH   8  12
ENDBRANCH   1   4
BRANCH   2  14
ATOM     14  C   UNL d   1      53.393  31.053  53.794  0.00  0.00     0.058 A 
ATOM     15  C   UNL d   1      53.181  30.604  53.132  0.00  0.00     0.007 A 
ATOM     16  C   UNL d   1      53.075  29.819  53.187  0.00  0.00     0.024 A 
ATOM     17  C   UNL d   1      53.175  29.417  53.915  0.00  0.00     0.094 A 
ATOM     18  C   UNL d   1      53.387  29.856  54.580  0.00  0.00     0.024 A 
ATOM     19  C   UNL d   1      53.491  30.669  54.502  0.00  0.00     0.007 A 
BRANCH  17  20
ATOM     20  O   UNL d   1      53.069  28.612  53.980  0.00  0.00    -0.328 OA
ATOM     21  C   UNL d   1      53.441  28.199  54.567  0.00  0.00     0.181 C 
ENDBRANCH  17  20
ENDBRANCH   2  14
TORSDOF 5
ENDMDL
MODEL 5
REMARK VINA RESULT:      -6.0      2.063      3.234
REMARK  5 active torsions:
REMARK  status: ('A' for Active; 'I' for Inactive)
REMARK    1  A    between atoms: N_5  and  C_3 
REMARK    2  A    between atoms: O_13  and  C_4 
REMARK       I    between atoms: C_6  and  N_5 
REMARK    3  A    between atoms: C_9  and  C_6 
REMARK    4  A    between atoms: O_14  and  C_7 
REMARK    5  A    between atoms: O_18  and  C_15 
ROOT
ATOM      1  N   UNL d   1      50.676  33.993  53.150  0.00  0.00    -0.189 NA
ATOM      2  C   UNL d   1      51.456  34.144  52.894  0.00  0.00     0.281 C 
ATOM      3  O   UNL d   1      51.598  34.716  52.293  0.00  0.00    -0.265 OA
ENDROOT
BRANCH   1   4
ATOM      4  C   UNL d   1      50.047  34.406  52.810  0.00  0.00     0.173 A 
ATOM      5  N   UNL d   1      49.689  35.037  53.218  0.00  0.00    -0.186 NA
ATOM      6  C   UNL d   1      49.064  35.443  52.873  0.00  0.00     0.273 A 
ATOM      7  N   UNL d   1      48.800  35.211  52.115  0.00  0.00    -0.181 NA
ATOM      8  C   UNL d   1      49.142  34.610  51.726  0.00  0.00     0.185 A 
ATOM      9  C   UNL d   1      49.777  34.187  52.060  0.00  0.00     0.083 A 
BRANCH   6  10
ATOM     10  O   UNL d   1      48.718  36.052  53.268  0.00  0.00    -0.297 OA
ATOM     11  C   UNL d   1      48.082  35.925  53.756  0.00  0.00     0.185 C 
ENDBRANCH   6  10
BRANCH   8  12
ATOM     12  O   UNL d   1      48.856  34.402  50.970  0.00  0.00    -0.312 OA
ATOM     13  C   UNL d   1      48.189  34.808  50.674  0.00  0.00     0.183 C 
ENDBRANCH   8  12
ENDBRANCH   1   4
BRANCH   2  14
ATOM     14  C   UNL d   1      52.075  33.725  53.242  0.00  0.00     0.058 A 
ATOM     15  C   UNL d   1      52.475  34.024  53.901  0.00  0.00     0.007 A 
ATOM     16  C   UNL d   1      53.071  33.622  54.236  0.00  0.00     0.024 A 
ATOM     17  C   UNL d   1      53.317  32.880  53.934  0.00  0.00     0.094 A 
ATOM     18  C   UNL d   1      52.924  32.573  53.277  0.00  0.00     0.024 A 
ATOM     19  C   UNL d   1      52.309  33.007  52.946  0.00  0.00     0.007 A 
BRANCH  17  20
ATOM     20  O   UNL d   1      53.928  32.459  54.272  0.00  0.00    -0.328 OA
ATOM     21  C   UNL d   1      54.441  32.823  54.779  0.00  0.00     0.181 C 
ENDBRANCH  17  20
ENDBRANCH   2  14
TORSDOF 5
ENDMDL
MODEL 6
REMARK VINA RESULT:      -5.8      2.072      3.519
REMARK  5 active torsions:
REMARK  status: ('A' for Active; 'I' for Inactive)
REMARK    1  A    between atoms: N_5  and  C_3 
REMARK    2  A    between atoms: O_13  and  C_4 
REMARK       I    between atoms: C_6  and  N_5 
REMARK    3  A    between atoms: C_9  and  C_6 
REMARK    4  A    between atoms: O_14  and  C_7 
REMARK    5  A    between atoms: O_18  and  C_15 
ROOT
ATOM      1  N   UNL d   1      50.535  34.147  53.052  0.00  0.00    -0.189 NA
ATOM      2  C   UNL d   1      51.260  34.115  52.641  0.00  0.00     0.281 C 
ATOM      3  O   UNL d   1      51.334  34.482  51.886  0.00  0.00    -0.265 OA
ENDROOT
BRANCH   1   4
ATOM      4  C   UNL d   1      49.892  34.540  52.715  0.00  0.00     0.173 A 
ATOM      5  N   UNL d   1      49.620  34.328  51.957  0.00  0.00    -0.186 NA
ATOM      6  C   UNL d   1      48.979  34.723  51.629  0.00  0.00     0.273 A 
ATOM      7  N   UNL d   1      48.613  35.333  52.066  0.00  0.00    -0.181 NA
ATOM      8  C   UNL d   1      48.872  35.536  52.789  0.00  0.00     0.185 A 
ATOM      9  C   UNL d   1      49.521  35.145  53.137  0.00  0.00     0.083 A 
BRANCH   6  10
ATOM     10  O   UNL d   1      48.716  34.518  50.897  0.00  0.00    -0.297 OA
ATOM     11  C   UNL d   1      47.951  34.670  50.672  0.00  0.00     0.185 C 
ENDBRANCH   6  10
BRANCH   8  12
ATOM     12  O   UNL d   1      48.486  36.149  53.201  0.00  0.00    -0.312 OA
ATOM     13  C   UNL d   1      48.144  35.974  53.942  0.00  0.00     0.183 C 
ENDBRANCH   8  12
ENDBRANCH   1   4
BRANCH   2  14
ATOM     14  C   UNL d   1      51.896  33.720  52.988  0.00  0.00     0.058 A 
ATOM     15  C   UNL d   1      52.476  34.133  53.408  0.00  0.00     0.007 A 
ATOM     16  C   UNL d   1      53.088  33.754  53.743  0.00  0.00     0.024 A 
ATOM     17  C   UNL d   1      53.168  32.922  53.682  0.00  0.00     0.094 A 
ATOM     18  C   UNL d   1      52.594  32.501  53.265  0.00  0.00     0.024 A 
ATOM     19  C   UNL d   1      51.968  32.914  52.927  0.00  0.00     0.007 A 
BRANCH  17  20
ATOM     20  O   UNL d   1      53.792  32.524  54.022  0.00  0.00    -0.328 OA
ATOM     21  C   UNL d   1      54.011  32.684  54.783  0.00  0.00     0.181 C 
ENDBRANCH  17  20
ENDBRANCH   2  14
TORSDOF 5
ENDMDL
MODEL 7
REMARK VINA RESULT:      -5.8      1.731      5.187
REMARK  5 active torsions:
REMARK  status: ('A' for Active; 'I' for Inactive)
REMARK    1  A    between atoms: N_5  and  C_3 
REMARK    2  A    between atoms: O_13  and  C_4 
REMARK       I    between atoms: C_6  and  N_5 
REMARK    3  A    between atoms: C_9  and  C_6 
REMARK    4  A    between atoms: O_14  and  C_7 
REMARK    5  A    between atoms: O_18  and  C_15 
ROOT
ATOM      1  N   UNL d   1      50.490  34.515  52.388  0.00  0.00    -0.189 NA
ATOM      2  C   UNL d   1      49.811  34.686  52.841  0.00  0.00     0.281 C 
ATOM      3  O   UNL d   1      49.822  34.571  53.675  0.00  0.00    -0.265 OA
ENDROOT
BRANCH   1   4
ATOM      4  C   UNL d   1      51.171  34.233  52.762  0.00  0.00     0.173 A 
ATOM      5  N   UNL d   1      51.751  34.764  53.034  0.00  0.00    -0.186 NA
ATOM      6  C   UNL d   1      52.425  34.476  53.405  0.00  0.00     0.273 A 
ATOM      7  N   UNL d   1      52.513  33.651  53.501  0.00  0.00    -0.181 NA
ATOM      8  C   UNL d   1      51.959  33.144  53.241  0.00  0.00     0.185 A 
ATOM      9  C   UNL d   1      51.269  33.419  52.863  0.00  0.00     0.083 A 
BRANCH   6  10
ATOM     10  O   UNL d   1      52.986  34.989  53.667  0.00  0.00    -0.297 OA
ATOM     11  C   UNL d   1      53.104  35.105  54.462  0.00  0.00     0.185 C 
ENDBRANCH   6  10
BRANCH   8  12
ATOM     12  O   UNL d   1      52.075  32.326  53.352  0.00  0.00    -0.312 OA
ATOM     13  C   UNL d   1      52.512  31.907  52.778  0.00  0.00     0.183 C 
ENDBRANCH   8  12
ENDBRANCH   1   4
BRANCH   2  14
ATOM     14  C   UNL d   1      49.138  34.967  52.456  0.00  0.00     0.058 A 
ATOM     15  C   UNL d   1      48.920  34.676  51.714  0.00  0.00     0.007 A 
ATOM     16  C   UNL d   1      48.272  34.945  51.342  0.00  0.00     0.024 A 
ATOM     17  C   UNL d   1      47.787  35.534  51.688  0.00  0.00     0.094 A 
ATOM     18  C   UNL d   1      47.997  35.831  52.429  0.00  0.00     0.024 A 
ATOM     19  C   UNL d   1      48.672  35.537  52.796  0.00  0.00     0.007 A 
BRANCH  17  20
ATOM     20  O   UNL d   1      47.120  35.817  51.314  0.00  0.00    -0.328 OA
ATOM     21  C   UNL d   1      46.399  35.484  51.462  0.00  0.00     0.181 C 
ENDBRANCH  17  20
ENDBRANCH   2  14
TORSDOF 5
ENDMDL
