MODEL 1
REMARK VINA RESULT:      -5.1      0.000      0.000
REMARK  8 active torsions:
REMARK  status: ('A' for Active; 'I' for Inactive)
REMARK    1  A    between atoms: C_4  and  C_1 
REMARK    2  A    between atoms: N_6  and  C_3 
REMARK    3  A    between atoms: O_18  and  C_4 
REMARK       I    between atoms: C_7  and  N_6 
REMARK    4  A    between atoms: C_16  and  C_7 
REMARK    5  A    between atoms: C_10  and  C_8 
REMARK    6  A    between atoms: C_9  and  S_11 
REMARK    7  A    between atoms: S_11  and  C_16 
REMARK    8  A    between atoms: C_24  and  O_18 
ROOT
ATOM      1  N   UNL d   1     -45.142  13.016  22.311  0.00  0.00    -0.207 NA
ATOM      2  C   UNL d   1     -44.424  12.671  22.096  0.00  0.00     0.286 C 
ATOM      3  O   UNL d   1     -44.246  11.905  22.346  0.00  0.00    -0.265 OA
ENDROOT
BRANCH   2   4
ATOM      4  C   UNL d   1     -43.887  13.088  21.634  0.00  0.00     0.099 C 
BRANCH   4   5
ATOM      5  S   UNL d   1     -43.175  12.738  21.424  0.00  0.00    -0.061 SA
BRANCH   5   6
ATOM      6  C   UNL d   1     -42.572  13.188  21.086  0.00  0.00     0.133 A 
ATOM      7  N   UNL d   1     -42.441  13.170  20.277  0.00  0.00    -0.141 NA
ATOM      8  N   UNL d   1     -41.838  13.621  19.940  0.00  0.00    -0.148 NA
ATOM      9  C   UNL d   1     -41.358  14.098  20.418  0.00  0.00     0.104 A 
ATOM     10  C   UNL d   1     -41.488  14.118  21.235  0.00  0.00     0.023 A 
ATOM     11  C   UNL d   1     -42.090  13.668  21.569  0.00  0.00     0.029 A 
BRANCH   9  12
ATOM     12  C   UNL d   1     -40.755  14.548  20.080  0.00  0.00     0.039 A 
ATOM     13  C   UNL d   1     -40.049  14.194  19.882  0.00  0.00     0.101 A 
ATOM     14  N   UNL d   1     -39.448  14.636  19.546  0.00  0.00    -0.242 NA
ATOM     15  C   UNL d   1     -39.561  15.450  19.409  0.00  0.00     0.099 A 
ATOM     16  C   UNL d   1     -40.272  15.801  19.610  0.00  0.00     0.021 A 
ATOM     17  C   UNL d   1     -40.881  15.358  19.949  0.00  0.00     0.005 A 
ENDBRANCH   9  12
ENDBRANCH   5   6
ENDBRANCH   4   5
ENDBRANCH   2   4
BRANCH   1  18
ATOM     18  C   UNL d   1     -45.676  12.601  22.770  0.00  0.00     0.090 A 
ATOM     19  C   UNL d   1     -46.326  12.987  23.100  0.00  0.00     0.081 A 
ATOM     20  C   UNL d   1     -46.863  12.569  23.562  0.00  0.00     0.007 A 
ATOM     21  C   UNL d   1     -46.754  11.766  23.697  0.00  0.00     0.000 A 
ATOM     22  C   UNL d   1     -46.100  11.367  23.369  0.00  0.00     0.002 A 
ATOM     23  C   UNL d   1     -45.565  11.794  22.906  0.00  0.00     0.019 A 
BRANCH  19  24
ATOM     24  C   UNL d   1     -46.429  13.788  22.961  0.00  0.00     0.302 C 
ATOM     25  O   UNL d   1     -45.916  14.330  23.302  0.00  0.00    -0.259 OA
BRANCH  24  26
ATOM     26  O   UNL d   1     -47.043  14.051  22.482  0.00  0.00    -0.271 OA
BRANCH  26  27
ATOM     27  C   UNL d   1     -47.336  14.817  22.574  0.00  0.00     0.126 C 
ATOM     28  C   UNL d   1     -48.022  15.043  22.172  0.00  0.00     0.029 C 
ENDBRANCH  26  27
ENDBRANCH  24  26
ENDBRANCH  19  24
ENDBRANCH   1  18
TORSDOF 8
ENDMDL
MODEL 2
REMARK VINA RESULT:      -5.0      2.058      6.284
REMARK  8 active torsions:
REMARK  status: ('A' for Active; 'I' for Inactive)
REMARK    1  A    between atoms: C_4  and  C_1 
REMARK    2  A    between atoms: N_6  and  C_3 
REMARK    3  A    between atoms: O_18  and  C_4 
REMARK       I    between atoms: C_7  and  N_6 
REMARK    4  A    between atoms: C_16  and  C_7 
REMARK    5  A    between atoms: C_10  and  C_8 
REMARK    6  A    between atoms: C_9  and  S_11 
REMARK    7  A    between atoms: S_11  and  C_16 
REMARK    8  A    between atoms: C_24  and  O_18 
ROOT
ATOM      1  N   UNL d   1     -41.192  14.294  20.965  0.00  0.00    -0.207 NA
ATOM      2  C   UNL d   1     -41.786  13.766  20.741  0.00  0.00     0.286 C 
ATOM      3  O   UNL d   1     -41.796  13.462  19.974  0.00  0.00    -0.265 OA
ENDROOT
BRANCH   2   4
ATOM      4  C   UNL d   1     -42.366  13.545  21.280  0.00  0.00     0.099 C 
BRANCH   4   5
ATOM      5  S   UNL d   1     -42.863  12.915  21.104  0.00  0.00    -0.061 SA
BRANCH   5   6
ATOM      6  C   UNL d   1     -43.554  12.796  21.538  0.00  0.00     0.133 A 
ATOM      7  N   UNL d   1     -43.607  12.181  22.077  0.00  0.00    -0.141 NA
ATOM      8  N   UNL d   1     -44.299  12.062  22.510  0.00  0.00    -0.148 NA
ATOM      9  C   UNL d   1     -44.948  12.566  22.404  0.00  0.00     0.104 A 
ATOM     10  C   UNL d   1     -44.897  13.188  21.861  0.00  0.00     0.023 A 
ATOM     11  C   UNL d   1     -44.206  13.304  21.430  0.00  0.00     0.029 A 
BRANCH   9  12
ATOM     12  C   UNL d   1     -45.640  12.446  22.838  0.00  0.00     0.039 A 
ATOM     13  C   UNL d   1     -45.734  11.760  23.265  0.00  0.00     0.101 A 
ATOM     14  N   UNL d   1     -46.418  11.637  23.697  0.00  0.00    -0.242 NA
ATOM     15  C   UNL d   1     -47.017  12.216  23.697  0.00  0.00     0.099 A 
ATOM     16  C   UNL d   1     -46.917  12.904  23.266  0.00  0.00     0.021 A 
ATOM     17  C   UNL d   1     -46.228  13.032  22.829  0.00  0.00     0.005 A 
ENDBRANCH   9  12
ENDBRANCH   5   6
ENDBRANCH   4   5
ENDBRANCH   2   4
BRANCH   1  18
ATOM     18  C   UNL d   1     -40.615  14.514  20.429  0.00  0.00     0.090 A 
ATOM     19  C   UNL d   1     -39.950  14.930  20.685  0.00  0.00     0.081 A 
ATOM     20  C   UNL d   1     -39.370  15.152  20.146  0.00  0.00     0.007 A 
ATOM     21  C   UNL d   1     -39.450  14.960  19.351  0.00  0.00     0.000 A 
ATOM     22  C   UNL d   1     -40.118  14.540  19.083  0.00  0.00     0.002 A 
ATOM     23  C   UNL d   1     -40.696  14.321  19.631  0.00  0.00     0.019 A 
BRANCH  19  24
ATOM     24  C   UNL d   1     -39.876  15.118  21.479  0.00  0.00     0.302 C 
ATOM     25  O   UNL d   1     -40.329  15.724  21.798  0.00  0.00    -0.259 OA
BRANCH  24  26
ATOM     26  O   UNL d   1     -39.351  14.704  21.957  0.00  0.00    -0.271 OA
BRANCH  26  27
ATOM     27  C   UNL d   1     -39.092  15.037  22.667  0.00  0.00     0.126 C 
ATOM     28  C   UNL d   1     -38.544  14.629  23.133  0.00  0.00     0.029 C 
ENDBRANCH  26  27
ENDBRANCH  24  26
ENDBRANCH  19  24
ENDBRANCH   1  18
TORSDOF 8
ENDMDL
MODEL 3
REMARK VINA RESULT:      -4.9      2.119      6.293
REMARK  8 active torsions:
REMARK  status: ('A' for Active; 'I' for Inactive)
REMARK    1  A    between atoms: C_4  and  C_1 
REMARK    2  A    between atoms: N_6  and  C_3 
REMARK    3  A    between atoms: O_18  and  C_4 
REMARK       I    between atoms: C_7  and  N_6 
REMARK    4  A    between atoms: C_16  and  C_7 
REMARK    5  A    between atoms: C_10  and  C_8 
REMARK    6  A    between atoms: C_9  and  S_11 
REMARK    7  A    between atoms: S_11  and  C_16 
REMARK    8  A    between atoms: C_24  and  O_18 
ROOT
ATOM      1  N   UNL d   1     -41.081  14.107  19.957  0.00  0.00    -0.207 NA
ATOM      2  C   UNL d   1     -41.354  13.903  20.708  0.00  0.00     0.286 C 
ATOM      3  O   UNL d   1     -40.824  13.858  21.339  0.00  0.00    -0.265 OA
ENDROOT
BRANCH   2   4
ATOM      4  C   UNL d   1     -42.152  13.744  20.828  0.00  0.00     0.099 C 
BRANCH   4   5
ATOM      5  S   UNL d   1     -42.379  13.011  21.120  0.00  0.00    -0.061 SA
BRANCH   5   6
ATOM      6  C   UNL d   1     -43.117  12.915  21.477  0.00  0.00     0.133 A 
ATOM      7  N   UNL d   1     -43.279  12.249  21.925  0.00  0.00    -0.141 NA
ATOM      8  N   UNL d   1     -44.017  12.153  22.282  0.00  0.00    -0.148 NA
ATOM      9  C   UNL d   1     -44.602  12.732  22.189  0.00  0.00     0.104 A 
ATOM     10  C   UNL d   1     -44.441  13.406  21.737  0.00  0.00     0.023 A 
ATOM     11  C   UNL d   1     -43.704  13.499  21.383  0.00  0.00     0.029 A 
BRANCH   9  12
ATOM     12  C   UNL d   1     -45.340  12.636  22.546  0.00  0.00     0.039 A 
ATOM     13  C   UNL d   1     -45.451  12.039  23.088  0.00  0.00     0.101 A 
ATOM     14  N   UNL d   1     -46.181  11.940  23.444  0.00  0.00    -0.242 NA
ATOM     15  C   UNL d   1     -46.808  12.451  23.250  0.00  0.00     0.099 A 
ATOM     16  C   UNL d   1     -46.692  13.049  22.705  0.00  0.00     0.021 A 
ATOM     17  C   UNL d   1     -45.957  13.153  22.343  0.00  0.00     0.005 A 
ENDBRANCH   9  12
ENDBRANCH   5   6
ENDBRANCH   4   5
ENDBRANCH   2   4
BRANCH   1  18
ATOM     18  C   UNL d   1     -40.287  14.266  19.838  0.00  0.00     0.090 A 
ATOM     19  C   UNL d   1     -40.010  14.448  19.082  0.00  0.00     0.081 A 
ATOM     20  C   UNL d   1     -39.213  14.608  18.962  0.00  0.00     0.007 A 
ATOM     21  C   UNL d   1     -38.688  14.586  19.594  0.00  0.00     0.000 A 
ATOM     22  C   UNL d   1     -38.958  14.402  20.362  0.00  0.00     0.002 A 
ATOM     23  C   UNL d   1     -39.761  14.244  20.473  0.00  0.00     0.019 A 
BRANCH  19  24
ATOM     24  C   UNL d   1     -40.539  14.468  18.456  0.00  0.00     0.302 C 
ATOM     25  O   UNL d   1     -40.836  13.767  18.151  0.00  0.00    -0.259 OA
BRANCH  24  26
ATOM     26  O   UNL d   1     -40.774  15.187  18.133  0.00  0.00    -0.271 OA
BRANCH  26  27
ATOM     27  C   UNL d   1     -41.046  15.217  17.354  0.00  0.00     0.126 C 
ATOM     28  C   UNL d   1     -41.367  15.921  17.061  0.00  0.00     0.029 C 
ENDBRANCH  26  27
ENDBRANCH  24  26
ENDBRANCH  19  24
ENDBRANCH   1  18
TORSDOF 8
ENDMDL
MODEL 4
REMARK VINA RESULT:      -4.8      2.733      6.564
REMARK  8 active torsions:
REMARK  status: ('A' for Active; 'I' for Inactive)
REMARK    1  A    between atoms: C_4  and  C_1 
REMARK    2  A    between atoms: N_6  and  C_3 
REMARK    3  A    between atoms: O_18  and  C_4 
REMARK       I    between atoms: C_7  and  N_6 
REMARK    4  A    between atoms: C_16  and  C_7 
REMARK    5  A    between atoms: C_10  and  C_8 
REMARK    6  A    between atoms: C_9  and  S_11 
REMARK    7  A    between atoms: S_11  and  C_16 
REMARK    8  A    between atoms: C_24  and  O_18 
ROOT
ATOM      1  N   UNL d   1     -45.379  11.934  22.978  0.00  0.00    -0.207 NA
ATOM      2  C   UNL d   1     -46.139  11.819  23.280  0.00  0.00     0.286 C 
ATOM      3  O   UNL d   1     -46.314  11.128  23.695  0.00  0.00    -0.265 OA
ENDROOT
BRANCH   2   4
ATOM      4  C   UNL d   1     -46.718  12.390  23.167  0.00  0.00     0.099 C 
BRANCH   4   5
ATOM      5  S   UNL d   1     -47.507  12.196  23.285  0.00  0.00    -0.061 SA
BRANCH   5   6
ATOM      6  C   UNL d   1     -48.094  12.772  23.217  0.00  0.00     0.133 A 
ATOM      7  N   UNL d   1     -47.918  13.562  23.343  0.00  0.00    -0.141 NA
ATOM      8  N   UNL d   1     -48.505  14.139  23.275  0.00  0.00    -0.148 NA
ATOM      9  C   UNL d   1     -49.280  13.921  23.077  0.00  0.00     0.104 A 
ATOM     10  C   UNL d   1     -49.460  13.124  22.950  0.00  0.00     0.023 A 
ATOM     11  C   UNL d   1     -48.873  12.552  23.018  0.00  0.00     0.029 A 
BRANCH   9  12
ATOM     12  C   UNL d   1     -49.866  14.497  23.010  0.00  0.00     0.039 A 
ATOM     13  C   UNL d   1     -50.387  14.472  22.384  0.00  0.00     0.101 A 
ATOM     14  N   UNL d   1     -50.970  15.041  22.313  0.00  0.00    -0.242 NA
ATOM     15  C   UNL d   1     -51.029  15.646  22.881  0.00  0.00     0.099 A 
ATOM     16  C   UNL d   1     -50.504  15.667  23.508  0.00  0.00     0.021 A 
ATOM     17  C   UNL d   1     -49.914  15.095  23.584  0.00  0.00     0.005 A 
ENDBRANCH   9  12
ENDBRANCH   5   6
ENDBRANCH   4   5
ENDBRANCH   2   4
BRANCH   1  18
ATOM     18  C   UNL d   1     -44.802  11.365  23.090  0.00  0.00     0.090 A 
ATOM     19  C   UNL d   1     -44.071  11.437  22.714  0.00  0.00     0.081 A 
ATOM     20  C   UNL d   1     -43.491  10.866  22.827  0.00  0.00     0.007 A 
ATOM     21  C   UNL d   1     -43.637  10.220  23.314  0.00  0.00     0.000 A 
ATOM     22  C   UNL d   1     -44.373  10.138  23.698  0.00  0.00     0.002 A 
ATOM     23  C   UNL d   1     -44.950  10.717  23.579  0.00  0.00     0.019 A 
BRANCH  19  24
ATOM     24  C   UNL d   1     -43.932  12.084  22.230  0.00  0.00     0.302 C 
ATOM     25  O   UNL d   1     -44.536  12.620  22.082  0.00  0.00    -0.259 OA
BRANCH  24  26
ATOM     26  O   UNL d   1     -43.191  12.199  21.892  0.00  0.00    -0.271 OA
BRANCH  26  27
ATOM     27  C   UNL d   1     -43.064  12.841  21.390  0.00  0.00     0.126 C 
ATOM     28  C   UNL d   1     -42.313  13.184  21.349  0.00  0.00     0.029 C 
ENDBRANCH  26  27
ENDBRANCH  24  26
ENDBRANCH  19  24
ENDBRANCH   1  18
TORSDOF 8
ENDMDL
MODEL 5
REMARK VINA RESULT:      -4.2      5.016      6.470
REMARK  8 active torsions:
REMARK  status: ('A' for Active; 'I' for Inactive)
REMARK    1  A    between atoms: C_4  and  C_1 
REMARK    2  A    between atoms: N_6  and  C_3 
REMARK    3  A    between atoms: O_18  and  C_4 
REMARK       I    between atoms: C_7  and  N_6 
REMARK    4  A    between atoms: C_16  and  C_7 
REMARK    5  A    between atoms: C_10  and  C_8 
REMARK    6  A    between atoms: C_9  and  S_11 
REMARK    7  A    between atoms: S_11  and  C_16 
REMARK    8  A    between atoms: C_24  and  O_18 
ROOT
ATOM      1  N   UNL d   1     -38.337  14.187  20.781  0.00  0.00    -0.207 NA
ATOM      2  C   UNL d   1     -38.079  13.604  20.257  0.00  0.00     0.286 C 
ATOM      3  O   UNL d   1     -37.942  12.838  20.532  0.00  0.00    -0.265 OA
ENDROOT
BRANCH   2   4
ATOM      4  C   UNL d   1     -37.957  13.786  19.465  0.00  0.00     0.099 C 
BRANCH   4   5
ATOM      5  S   UNL d   1     -38.593  13.777  18.946  0.00  0.00    -0.061 SA
BRANCH   5   6
ATOM      6  C   UNL d   1     -38.484  13.965  18.150  0.00  0.00     0.133 A 
ATOM      7  N   UNL d   1     -38.172  14.690  17.931  0.00  0.00    -0.141 NA
ATOM      8  N   UNL d   1     -38.064  14.878  17.135  0.00  0.00    -0.148 NA
ATOM      9  C   UNL d   1     -38.270  14.330  16.547  0.00  0.00     0.104 A 
ATOM     10  C   UNL d   1     -38.585  13.597  16.765  0.00  0.00     0.023 A 
ATOM     11  C   UNL d   1     -38.692  13.413  17.560  0.00  0.00     0.029 A 
BRANCH   9  12
ATOM     12  C   UNL d   1     -38.161  14.518  15.752  0.00  0.00     0.039 A 
ATOM     13  C   UNL d   1     -38.135  15.298  15.521  0.00  0.00     0.101 A 
ATOM     14  N   UNL d   1     -38.027  15.489  14.733  0.00  0.00    -0.242 NA
ATOM     15  C   UNL d   1     -37.945  14.883  14.168  0.00  0.00     0.099 A 
ATOM     16  C   UNL d   1     -37.972  14.101  14.404  0.00  0.00     0.021 A 
ATOM     17  C   UNL d   1     -38.080  13.903  15.199  0.00  0.00     0.005 A 
ENDBRANCH   9  12
ENDBRANCH   5   6
ENDBRANCH   4   5
ENDBRANCH   2   4
BRANCH   1  18
ATOM     18  C   UNL d   1     -38.458  14.006  21.570  0.00  0.00     0.090 A 
ATOM     19  C   UNL d   1     -38.902  14.512  22.047  0.00  0.00     0.081 A 
ATOM     20  C   UNL d   1     -39.024  14.330  22.839  0.00  0.00     0.007 A 
ATOM     21  C   UNL d   1     -38.703  13.645  23.160  0.00  0.00     0.000 A 
ATOM     22  C   UNL d   1     -38.253  13.127  22.686  0.00  0.00     0.002 A 
ATOM     23  C   UNL d   1     -38.136  13.317  21.890  0.00  0.00     0.019 A 
BRANCH  19  24
ATOM     24  C   UNL d   1     -39.219  15.194  21.721  0.00  0.00     0.302 C 
ATOM     25  O   UNL d   1     -38.788  15.892  21.740  0.00  0.00    -0.259 OA
BRANCH  24  26
ATOM     26  O   UNL d   1     -39.965  15.182  21.377  0.00  0.00    -0.271 OA
BRANCH  26  27
ATOM     27  C   UNL d   1     -40.409  15.877  21.336  0.00  0.00     0.126 C 
ATOM     28  C   UNL d   1     -41.167  15.858  21.005  0.00  0.00     0.029 C 
ENDBRANCH  26  27
ENDBRANCH  24  26
ENDBRANCH  19  24
ENDBRANCH   1  18
TORSDOF 8
ENDMDL
MODEL 6
REMARK VINA RESULT:      -4.1      1.132      1.566
REMARK  8 active torsions:
REMARK  status: ('A' for Active; 'I' for Inactive)
REMARK    1  A    between atoms: C_4  and  C_1 
REMARK    2  A    between atoms: N_6  and  C_3 
REMARK    3  A    between atoms: O_18  and  C_4 
REMARK       I    between atoms: C_7  and  N_6 
REMARK    4  A    between atoms: C_16  and  C_7 
REMARK    5  A    between atoms: C_10  and  C_8 
REMARK    6  A    between atoms: C_9  and  S_11 
REMARK    7  A    between atoms: S_11  and  C_16 
REMARK    8  A    between atoms: C_24  and  O_18 
ROOT
ATOM      1  N   UNL d   1     -46.477  12.900  22.446  0.00  0.00    -0.207 NA
ATOM      2  C   UNL d   1     -45.694  12.695  22.610  0.00  0.00     0.286 C 
ATOM      3  O   UNL d   1     -45.532  12.112  23.171  0.00  0.00    -0.265 OA
ENDROOT
BRANCH   2   4
ATOM      4  C   UNL d   1     -45.078  13.069  22.215  0.00  0.00     0.099 C 
BRANCH   4   5
ATOM      5  S   UNL d   1     -44.461  12.622  21.911  0.00  0.00    -0.061 SA
BRANCH   5   6
ATOM      6  C   UNL d   1     -43.757  12.985  21.679  0.00  0.00     0.133 A 
ATOM      7  N   UNL d   1     -43.649  13.790  21.785  0.00  0.00    -0.141 NA
ATOM      8  N   UNL d   1     -42.945  14.153  21.553  0.00  0.00    -0.148 NA
ATOM      9  C   UNL d   1     -42.339  13.703  21.210  0.00  0.00     0.104 A 
ATOM     10  C   UNL d   1     -42.445  12.890  21.103  0.00  0.00     0.023 A 
ATOM     11  C   UNL d   1     -43.149  12.531  21.335  0.00  0.00     0.029 A 
BRANCH   9  12
ATOM     12  C   UNL d   1     -41.635  14.066  20.979  0.00  0.00     0.039 A 
ATOM     13  C   UNL d   1     -40.943  13.888  21.367  0.00  0.00     0.101 A 
ATOM     14  N   UNL d   1     -40.242  14.245  21.141  0.00  0.00    -0.242 NA
ATOM     15  C   UNL d   1     -40.241  14.792  20.513  0.00  0.00     0.099 A 
ATOM     16  C   UNL d   1     -40.940  14.968  20.125  0.00  0.00     0.021 A 
ATOM     17  C   UNL d   1     -41.649  14.609  20.350  0.00  0.00     0.005 A 
ENDBRANCH   9  12
ENDBRANCH   5   6
ENDBRANCH   4   5
ENDBRANCH   2   4
BRANCH   1  18
ATOM     18  C   UNL d   1     -47.090  12.528  22.839  0.00  0.00     0.090 A 
ATOM     19  C   UNL d   1     -47.859  12.820  22.778  0.00  0.00     0.081 A 
ATOM     20  C   UNL d   1     -48.475  12.446  23.173  0.00  0.00     0.007 A 
ATOM     21  C   UNL d   1     -48.328  11.779  23.630  0.00  0.00     0.000 A 
ATOM     22  C   UNL d   1     -47.554  11.476  23.698  0.00  0.00     0.002 A 
ATOM     23  C   UNL d   1     -46.941  11.858  23.298  0.00  0.00     0.019 A 
BRANCH  19  24
ATOM     24  C   UNL d   1     -47.999  13.486  22.320  0.00  0.00     0.302 C 
ATOM     25  O   UNL d   1     -48.028  13.419  21.503  0.00  0.00    -0.259 OA
BRANCH  24  26
ATOM     26  O   UNL d   1     -48.111  14.218  22.675  0.00  0.00    -0.271 OA
BRANCH  26  27
ATOM     27  C   UNL d   1     -48.538  14.805  22.281  0.00  0.00     0.126 C 
ATOM     28  C   UNL d   1     -48.729  15.506  22.676  0.00  0.00     0.029 C 
ENDBRANCH  26  27
ENDBRANCH  24  26
ENDBRANCH  19  24
ENDBRANCH   1  18
TORSDOF 8
ENDMDL
MODEL 7
REMARK VINA RESULT:      -4.0      3.944      5.336
REMARK  8 active torsions:
REMARK  status: ('A' for Active; 'I' for Inactive)
REMARK    1  A    between atoms: C_4  and  C_1 
REMARK    2  A    between atoms: N_6  and  C_3 
REMARK    3  A    between atoms: O_18  and  C_4 
REMARK       I    between atoms: C_7  and  N_6 
REMARK    4  A    between atoms: C_16  and  C_7 
REMARK    5  A    between atoms: C_10  and  C_8 
REMARK    6  A    between atoms: C_9  and  S_11 
REMARK    7  A    between atoms: S_11  and  C_16 
REMARK    8  A    between atoms: C_24  and  O_18 
ROOT
ATOM      1  N   UNL d   1     -49.141  13.319  22.938  0.00  0.00    -0.207 NA
ATOM      2  C   UNL d   1     -49.233  12.584  23.302  0.00  0.00     0.286 C 
ATOM      3  O   UNL d   1     -49.962  12.199  23.271  0.00  0.00    -0.265 OA
ENDROOT
BRANCH   2   4
ATOM      4  C   UNL d   1     -48.600  12.237  23.696  0.00  0.00     0.099 C 
BRANCH   4   5
ATOM      5  S   UNL d   1     -48.303  11.519  23.431  0.00  0.00    -0.061 SA
BRANCH   5   6
ATOM      6  C   UNL d   1     -47.489  11.387  23.408  0.00  0.00     0.133 A 
ATOM      7  N   UNL d   1     -46.966  11.964  23.661  0.00  0.00    -0.141 NA
ATOM      8  N   UNL d   1     -46.152  11.832  23.638  0.00  0.00    -0.148 NA
ATOM      9  C   UNL d   1     -45.855  11.111  23.356  0.00  0.00     0.104 A 
ATOM     10  C   UNL d   1     -46.381  10.526  23.100  0.00  0.00     0.023 A 
ATOM     11  C   UNL d   1     -47.193  10.661  23.125  0.00  0.00     0.029 A 
BRANCH   9  12
ATOM     12  C   UNL d   1     -45.042  10.979  23.333  0.00  0.00     0.039 A 
ATOM     13  C   UNL d   1     -44.729  10.322  23.698  0.00  0.00     0.101 A 
ATOM     14  N   UNL d   1     -43.922  10.187  23.677  0.00  0.00    -0.242 NA
ATOM     15  C   UNL d   1     -43.423  10.723  23.283  0.00  0.00     0.099 A 
ATOM     16  C   UNL d   1     -43.742  11.383  22.918  0.00  0.00     0.021 A 
ATOM     17  C   UNL d   1     -44.555  11.523  22.936  0.00  0.00     0.005 A 
ENDBRANCH   9  12
ENDBRANCH   5   6
ENDBRANCH   4   5
ENDBRANCH   2   4
BRANCH   1  18
ATOM     18  C   UNL d   1     -49.771  13.664  22.546  0.00  0.00     0.090 A 
ATOM     19  C   UNL d   1     -49.782  14.479  22.419  0.00  0.00     0.081 A 
ATOM     20  C   UNL d   1     -50.415  14.826  22.025  0.00  0.00     0.007 A 
ATOM     21  C   UNL d   1     -51.038  14.364  21.757  0.00  0.00     0.000 A 
ATOM     22  C   UNL d   1     -51.036  13.539  21.881  0.00  0.00     0.002 A 
ATOM     23  C   UNL d   1     -50.397  13.198  22.277  0.00  0.00     0.019 A 
BRANCH  19  24
ATOM     24  C   UNL d   1     -49.157  14.936  22.689  0.00  0.00     0.302 C 
ATOM     25  O   UNL d   1     -49.235  15.362  23.386  0.00  0.00    -0.259 OA
BRANCH  24  26
ATOM     26  O   UNL d   1     -48.453  14.968  22.266  0.00  0.00    -0.271 OA
BRANCH  26  27
ATOM     27  C   UNL d   1     -47.909  15.570  22.419  0.00  0.00     0.126 C 
ATOM     28  C   UNL d   1     -47.114  15.380  22.544  0.00  0.00     0.029 C 
ENDBRANCH  26  27
ENDBRANCH  24  26
ENDBRANCH  19  24
ENDBRANCH   1  18
TORSDOF 8
ENDMDL
MODEL 8
REMARK VINA RESULT:      -3.7      2.387      3.901
REMARK  8 active torsions:
REMARK  status: ('A' for Active; 'I' for Inactive)
REMARK    1  A    between atoms: C_4  and  C_1 
REMARK    2  A    between atoms: N_6  and  C_3 
REMARK    3  A    between atoms: O_18  and  C_4 
REMARK       I    between atoms: C_7  and  N_6 
REMARK    4  A    between atoms: C_16  and  C_7 
REMARK    5  A    between atoms: C_10  and  C_8 
REMARK    6  A    between atoms: C_9  and  S_11 
REMARK    7  A    between atoms: S_11  and  C_16 
REMARK    8  A    between atoms: C_24  and  O_18 
ROOT
ATOM      1  N   UNL d   1     -48.862  12.719  22.700  0.00  0.00    -0.207 NA
ATOM      2  C   UNL d   1     -48.181  12.351  22.986  0.00  0.00     0.286 C 
ATOM      3  O   UNL d   1     -48.239  11.802  23.600  0.00  0.00    -0.265 OA
ENDROOT
BRANCH   2   4
ATOM      4  C   UNL d   1     -47.448  12.530  22.661  0.00  0.00     0.099 C 
BRANCH   4   5
ATOM      5  S   UNL d   1     -46.790  12.582  23.149  0.00  0.00    -0.061 SA
BRANCH   5   6
ATOM      6  C   UNL d   1     -46.033  12.625  22.825  0.00  0.00     0.133 A 
ATOM      7  N   UNL d   1     -45.476  12.046  22.988  0.00  0.00    -0.141 NA
ATOM      8  N   UNL d   1     -44.719  12.090  22.664  0.00  0.00    -0.148 NA
ATOM      9  C   UNL d   1     -44.514  12.723  22.169  0.00  0.00     0.104 A 
ATOM     10  C   UNL d   1     -45.074  13.308  22.003  0.00  0.00     0.023 A 
ATOM     11  C   UNL d   1     -45.828  13.262  22.328  0.00  0.00     0.029 A 
BRANCH   9  12
ATOM     12  C   UNL d   1     -43.756  12.766  21.845  0.00  0.00     0.039 A 
ATOM     13  C   UNL d   1     -43.190  12.226  22.070  0.00  0.00     0.101 A 
ATOM     14  N   UNL d   1     -42.437  12.265  21.751  0.00  0.00    -0.242 NA
ATOM     15  C   UNL d   1     -42.253  12.858  21.197  0.00  0.00     0.099 A 
ATOM     16  C   UNL d   1     -42.825  13.399  20.974  0.00  0.00     0.021 A 
ATOM     17  C   UNL d   1     -43.587  13.363  21.293  0.00  0.00     0.005 A 
ENDBRANCH   9  12
ENDBRANCH   5   6
ENDBRANCH   4   5
ENDBRANCH   2   4
BRANCH   1  18
ATOM     18  C   UNL d   1     -49.592  12.540  23.024  0.00  0.00     0.090 A 
ATOM     19  C   UNL d   1     -50.200  13.097  23.006  0.00  0.00     0.081 A 
ATOM     20  C   UNL d   1     -50.934  12.917  23.332  0.00  0.00     0.007 A 
ATOM     21  C   UNL d   1     -51.064  12.183  23.675  0.00  0.00     0.000 A 
ATOM     22  C   UNL d   1     -50.456  11.613  23.698  0.00  0.00     0.002 A 
ATOM     23  C   UNL d   1     -49.722  11.801  23.369  0.00  0.00     0.019 A 
BRANCH  19  24
ATOM     24  C   UNL d   1     -50.064  13.828  22.662  0.00  0.00     0.302 C 
ATOM     25  O   UNL d   1     -50.094  13.906  21.845  0.00  0.00    -0.259 OA
BRANCH  24  26
ATOM     26  O   UNL d   1     -49.897  14.483  23.130  0.00  0.00    -0.271 OA
BRANCH  26  27
ATOM     27  C   UNL d   1     -49.946  15.241  22.807  0.00  0.00     0.126 C 
ATOM     28  C   UNL d   1     -49.846  15.900  23.296  0.00  0.00     0.029 C 
ENDBRANCH  26  27
ENDBRANCH  24  26
ENDBRANCH  19  24
ENDBRANCH   1  18
TORSDOF 8
ENDMDL
MODEL 9
REMARK VINA RESULT:      -3.5      2.641      6.494
REMARK  8 active torsions:
REMARK  status: ('A' for Active; 'I' for Inactive)
REMARK    1  A    between atoms: C_4  and  C_1 
REMARK    2  A    between atoms: N_6  and  C_3 
REMARK    3  A    between atoms: O_18  and  C_4 
REMARK       I    between atoms: C_7  and  N_6 
REMARK    4  A    between atoms: C_16  and  C_7 
REMARK    5  A    between atoms: C_10  and  C_8 
REMARK    6  A    between atoms: C_9  and  S_11 
REMARK    7  A    between atoms: S_11  and  C_16 
REMARK    8  A    between atoms: C_24  and  O_18 
ROOT
ATOM      1  N   UNL d   1     -44.860  12.521  22.333  0.00  0.00    -0.207 NA
ATOM      2  C   UNL d   1     -45.219  13.250  22.190  0.00  0.00     0.286 C 
ATOM      3  O   UNL d   1     -44.780  13.863  21.854  0.00  0.00    -0.265 OA
ENDROOT
BRANCH   2   4
ATOM      4  C   UNL d   1     -46.010  13.365  22.381  0.00  0.00     0.099 C 
BRANCH   4   5
ATOM      5  S   UNL d   1     -46.259  14.101  22.647  0.00  0.00    -0.061 SA
BRANCH   5   6
ATOM      6  C   UNL d   1     -47.060  14.248  22.777  0.00  0.00     0.133 A 
ATOM      7  N   UNL d   1     -47.500  13.760  23.265  0.00  0.00    -0.141 NA
ATOM      8  N   UNL d   1     -48.301  13.907  23.395  0.00  0.00    -0.148 NA
ATOM      9  C   UNL d   1     -48.669  14.554  23.030  0.00  0.00     0.104 A 
ATOM     10  C   UNL d   1     -48.228  15.049  22.537  0.00  0.00     0.023 A 
ATOM     11  C   UNL d   1     -47.429  14.900  22.409  0.00  0.00     0.029 A 
BRANCH   9  12
ATOM     12  C   UNL d   1     -49.470  14.702  23.160  0.00  0.00     0.039 A 
ATOM     13  C   UNL d   1     -50.012  14.103  23.057  0.00  0.00     0.101 A 
ATOM     14  N   UNL d   1     -50.808  14.244  23.185  0.00  0.00    -0.242 NA
ATOM     15  C   UNL d   1     -51.061  15.002  23.420  0.00  0.00     0.099 A 
ATOM     16  C   UNL d   1     -50.513  15.600  23.522  0.00  0.00     0.021 A 
ATOM     17  C   UNL d   1     -49.709  15.462  23.394  0.00  0.00     0.005 A 
ENDBRANCH   9  12
ENDBRANCH   5   6
ENDBRANCH   4   5
ENDBRANCH   2   4
BRANCH   1  18
ATOM     18  C   UNL d   1     -44.073  12.406  22.143  0.00  0.00     0.090 A 
ATOM     19  C   UNL d   1     -43.663  11.758  22.449  0.00  0.00     0.081 A 
ATOM     20  C   UNL d   1     -42.872  11.643  22.257  0.00  0.00     0.007 A 
ATOM     21  C   UNL d   1     -42.486  12.171  21.761  0.00  0.00     0.000 A 
ATOM     22  C   UNL d   1     -42.891  12.829  21.446  0.00  0.00     0.002 A 
ATOM     23  C   UNL d   1     -43.686  12.937  21.644  0.00  0.00     0.019 A 
BRANCH  19  24
ATOM     24  C   UNL d   1     -44.054  11.235  22.943  0.00  0.00     0.302 C 
ATOM     25  O   UNL d   1     -44.686  11.497  23.397  0.00  0.00    -0.259 OA
BRANCH  24  26
ATOM     26  O   UNL d   1     -43.817  10.449  22.988  0.00  0.00    -0.271 OA
BRANCH  26  27
ATOM     27  C   UNL d   1     -44.153   9.950  23.554  0.00  0.00     0.126 C 
ATOM     28  C   UNL d   1     -43.816   9.208  23.695  0.00  0.00     0.029 C 
ENDBRANCH  26  27
ENDBRANCH  24  26
ENDBRANCH  19  24
ENDBRANCH   1  18
TORSDOF 8
ENDMDL
