MODEL 1
REMARK VINA RESULT:      -3.3      0.000      0.000
REMARK  6 active torsions:
REMARK  status: ('A' for Active; 'I' for Inactive)
REMARK    1  A    between atoms: N_4  and  S_1 
REMARK    2  A    between atoms: C_12  and  S_1 
REMARK    3  A    between atoms: N_3  and  C_2 
REMARK    4  A    between atoms: C_7  and  N_4 
REMARK    5  A    between atoms: C_6  and  C_8 
REMARK       I    between atoms: C_8  and  N_13 
REMARK    6  A    between atoms: N_13  and  C_22 
ROOT
ATOM      1  C   UNL d   1      32.941  18.592 -23.224  0.00  0.00     0.106 A 
ATOM      2  C   UNL d   1      32.847  19.299 -23.626  0.00  0.00     0.015 A 
ATOM      3  C   UNL d   1      33.131  18.583 -22.420  0.00  0.00     0.015 A 
ATOM      4  C   UNL d   1      33.132  20.011 -22.418  0.00  0.00     0.085 A 
ATOM      5  C   UNL d   1      33.227  19.296 -22.016  0.00  0.00     0.020 A 
ATOM      6  C   UNL d   1      32.943  20.012 -23.222  0.00  0.00     0.020 A 
ENDROOT
BRANCH   1   7
ATOM      7  S   UNL d   1      32.846  17.879 -23.628  0.00  0.00     0.300 S 
ATOM      8  O   UNL d   1      32.467  18.270 -24.247  0.00  0.00    -0.198 OA
ATOM      9  O   UNL d   1      33.224  17.472 -23.012  0.00  0.00    -0.198 OA
BRANCH   7  10
ATOM     10  N   UNL d   1      32.752  17.157 -24.031  0.00  0.00     0.034 NA
BRANCH  10  11
ATOM     11  C   UNL d   1      31.996  16.858 -24.174  0.00  0.00     0.760 A 
ATOM     12  N   UNL d   1      31.547  16.534 -23.544  0.00  0.00    -0.059 NA
ATOM     13  C   UNL d   1      30.791  16.234 -23.686  0.00  0.00     0.102 A 
ATOM     14  C   UNL d   1      30.347  15.915 -23.065  0.00  0.00     0.021 C 
ATOM     15  C   UNL d   1      30.479  16.253 -24.450  0.00  0.00     0.041 A 
ATOM     16  C   UNL d   1      30.929  16.577 -25.080  0.00  0.00     0.120 A 
ATOM     17  N   UNL d   1      31.680  16.873 -24.931  0.00  0.00    -0.057 NA
ENDBRANCH  10  11
ENDBRANCH   7  10
ENDBRANCH   1   7
BRANCH   4  18
ATOM     18  N   UNL d   1      33.230  20.732 -22.007  0.00  0.00    -0.208 NA
ATOM     19  C   UNL d   1      32.608  21.045 -21.560  0.00  0.00     0.285 C 
ATOM     20  O   UNL d   1      31.889  20.636 -21.525  0.00  0.00    -0.265 OA
BRANCH  19  21
ATOM     21  C   UNL d   1      32.708  21.757 -21.155  0.00  0.00     0.089 A 
ATOM     22  S   UNL d   1      32.482  21.910 -20.370  0.00  0.00    -0.059 SA
ATOM     23  C   UNL d   1      32.693  22.695 -20.208  0.00  0.00     0.156 A 
ATOM     24  C   UNL d   1      33.043  23.014 -20.889  0.00  0.00     0.031 A 
ATOM     25  C   UNL d   1      33.046  22.433 -21.458  0.00  0.00     0.014 A 
BRANCH  23  26
ATOM     26  N   UNL d   1      32.567  23.084 -19.478  0.00  0.00    -0.107 N 
ATOM     27  O   UNL d   1      32.019  23.702 -19.417  0.00  0.00    -0.531 OA
ATOM     28  O   UNL d   1      32.998  22.843 -18.813  0.00  0.00    -0.531 OA
ENDBRANCH  23  26
ENDBRANCH  19  21
ENDBRANCH   4  18
TORSDOF 6
ENDMDL
MODEL 2
REMARK VINA RESULT:      -1.2      1.471      6.111
REMARK  6 active torsions:
REMARK  status: ('A' for Active; 'I' for Inactive)
REMARK    1  A    between atoms: N_4  and  S_1 
REMARK    2  A    between atoms: C_12  and  S_1 
REMARK    3  A    between atoms: N_3  and  C_2 
REMARK    4  A    between atoms: C_7  and  N_4 
REMARK    5  A    between atoms: C_6  and  C_8 
REMARK       I    between atoms: C_8  and  N_13 
REMARK    6  A    between atoms: N_13  and  C_22 
ROOT
ATOM      1  C   UNL d   1      33.165  21.185 -22.065  0.00  0.00     0.106 A 
ATOM      2  C   UNL d   1      33.241  20.624 -21.473  0.00  0.00     0.015 A 
ATOM      3  C   UNL d   1      33.073  20.960 -22.854  0.00  0.00     0.015 A 
ATOM      4  C   UNL d   1      33.133  19.589 -22.456  0.00  0.00     0.085 A 
ATOM      5  C   UNL d   1      33.057  20.158 -23.050  0.00  0.00     0.020 A 
ATOM      6  C   UNL d   1      33.225  19.822 -21.669  0.00  0.00     0.020 A 
ENDROOT
BRANCH   1   7
ATOM      7  S   UNL d   1      33.181  21.986 -21.869  0.00  0.00     0.300 S 
ATOM      8  O   UNL d   1      33.149  21.800 -21.066  0.00  0.00    -0.198 OA
ATOM      9  O   UNL d   1      33.214  22.188 -22.672  0.00  0.00    -0.198 OA
BRANCH   7  10
ATOM     10  N   UNL d   1      33.198  22.795 -21.676  0.00  0.00     0.034 NA
BRANCH  10  11
ATOM     11  C   UNL d   1      32.682  23.097 -21.108  0.00  0.00     0.760 A 
ATOM     12  N   UNL d   1      32.954  23.238 -20.327  0.00  0.00    -0.059 NA
ATOM     13  C   UNL d   1      32.438  23.539 -19.757  0.00  0.00     0.102 A 
ATOM     14  C   UNL d   1      32.706  23.678 -18.987  0.00  0.00     0.021 C 
ATOM     15  C   UNL d   1      31.655  23.702 -19.959  0.00  0.00     0.041 A 
ATOM     16  C   UNL d   1      31.383  23.562 -20.740  0.00  0.00     0.120 A 
ATOM     17  N   UNL d   1      31.901  23.262 -21.301  0.00  0.00    -0.057 NA
ENDBRANCH  10  11
ENDBRANCH   7  10
ENDBRANCH   1   7
BRANCH   4  18
ATOM     18  N   UNL d   1      33.116  18.778 -22.657  0.00  0.00    -0.208 NA
ATOM     19  C   UNL d   1      32.584  18.500 -23.226  0.00  0.00     0.285 C 
ATOM     20  O   UNL d   1      32.069  19.033 -23.594  0.00  0.00    -0.265 OA
BRANCH  19  21
ATOM     21  C   UNL d   1      32.570  17.699 -23.422  0.00  0.00     0.089 A 
ATOM     22  S   UNL d   1      31.910  17.272 -23.695  0.00  0.00    -0.059 SA
ATOM     23  C   UNL d   1      32.163  16.493 -23.817  0.00  0.00     0.156 A 
ATOM     24  C   UNL d   1      32.968  16.447 -23.620  0.00  0.00     0.031 A 
ATOM     25  C   UNL d   1      33.203  17.188 -23.381  0.00  0.00     0.014 A 
BRANCH  23  26
ATOM     26  N   UNL d   1      31.677  15.869 -24.092  0.00  0.00    -0.107 N 
ATOM     27  O   UNL d   1      31.156  15.481 -23.579  0.00  0.00    -0.531 OA
ATOM     28  O   UNL d   1      31.723  15.643 -24.889  0.00  0.00    -0.531 OA
ENDBRANCH  23  26
ENDBRANCH  19  21
ENDBRANCH   4  18
TORSDOF 6
ENDMDL
