MODEL 1
REMARK VINA RESULT:       7.6      0.000      0.000
REMARK  4 active torsions:
REMARK  status: ('A' for Active; 'I' for Inactive)
REMARK    1  A    between atoms: S_3  and  N_1 
REMARK    2  A    between atoms: C_9  and  S_3 
REMARK    3  A    between atoms: C_10  and  N_5 
REMARK    4  A    between atoms: C_15  and  C_10 
ROOT
ATOM      1  N   UNL d   1     -41.434-121.846 -52.464  0.00  0.00    -0.195 N 
ATOM      2  C   UNL d   1     -41.712-122.012 -51.716  0.00  0.00     0.193 A 
ATOM      3  C   UNL d   1     -41.660-121.444 -51.121  0.00  0.00     0.185 A 
ATOM      4  N   UNL d   1     -41.306-120.795 -51.469  0.00  0.00    -0.269 N 
ATOM      5  C   UNL d   1     -41.174-121.021 -52.240  0.00  0.00     0.179 A 
ATOM      6  N   UNL d   1     -42.045-122.748 -51.560  0.00  0.00    -0.223 NA
ATOM      7  N   UNL d   1     -41.942-121.614 -50.366  0.00  0.00    -0.224 NA
ATOM      8  C   UNL d   1     -42.326-122.914 -50.805  0.00  0.00     0.101 A 
ATOM      9  C   UNL d   1     -42.275-122.350 -50.211  0.00  0.00     0.101 A 
ATOM     10  C   UNL d   1     -42.559-122.525 -49.457  0.00  0.00     0.021 A 
ATOM     11  C   UNL d   1     -42.658-123.649 -50.653  0.00  0.00     0.021 A 
ATOM     12  C   UNL d   1     -42.939-123.816 -49.898  0.00  0.00     0.002 A 
ATOM     13  C   UNL d   1     -42.887-123.251 -49.307  0.00  0.00     0.002 A 
ENDROOT
BRANCH   1  14
ATOM     14  S   UNL d   1     -41.506-122.485 -53.086  0.00  0.00     0.274 S 
ATOM     15  O   UNL d   1     -41.188-123.289 -52.876  0.00  0.00    -0.200 OA
ATOM     16  O   UNL d   1     -41.131-122.849 -52.430  0.00  0.00    -0.200 OA
BRANCH  14  17
ATOM     17  C   UNL d   1     -41.816-122.498 -53.847  0.00  0.00     0.104 A 
ATOM     18  C   UNL d   1     -41.989-121.782 -54.236  0.00  0.00     0.013 A 
ATOM     19  C   UNL d   1     -42.302-121.803 -55.007  0.00  0.00     0.001 A 
ATOM     20  C   UNL d   1     -42.442-122.526 -55.381  0.00  0.00     0.000 A 
ATOM     21  C   UNL d   1     -42.266-123.238 -54.983  0.00  0.00     0.001 A 
ATOM     22  C   UNL d   1     -42.752-122.543 -56.143  0.00  0.00     0.000 C 
ATOM     23  C   UNL d   1     -41.956-123.221 -54.222  0.00  0.00     0.013 A 
ENDBRANCH  14  17
ENDBRANCH   1  14
BRANCH   4  24
ATOM     24  C   UNL d   1     -41.124-120.072 -51.114  0.00  0.00     0.108 C 
BRANCH  24  25
ATOM     25  C   UNL d   1     -41.128-119.372 -51.562  0.00  0.00     0.118 A 
ATOM     26  O   UNL d   1     -41.132-119.326 -52.389  0.00  0.00    -0.304 OA
ATOM     27  C   UNL d   1     -41.136-118.515 -52.607  0.00  0.00     0.123 A 
ATOM     28  C   UNL d   1     -41.133-118.068 -51.908  0.00  0.00     0.029 A 
ATOM     29  C   UNL d   1     -41.128-118.601 -51.264  0.00  0.00     0.028 A 
ENDBRANCH  24  25
ENDBRANCH   4  24
TORSDOF 4
ENDMDL
MODEL 2
REMARK VINA RESULT:       9.0      1.205      3.162
REMARK  4 active torsions:
REMARK  status: ('A' for Active; 'I' for Inactive)
REMARK    1  A    between atoms: S_3  and  N_1 
REMARK    2  A    between atoms: C_9  and  S_3 
REMARK    3  A    between atoms: C_10  and  N_5 
REMARK    4  A    between atoms: C_15  and  C_10 
ROOT
ATOM      1  N   UNL d   1     -41.708-123.263 -52.415  0.00  0.00    -0.195 N 
ATOM      2  C   UNL d   1     -41.595-122.561 -52.018  0.00  0.00     0.193 A 
ATOM      3  C   UNL d   1     -41.603-122.547 -51.194  0.00  0.00     0.185 A 
ATOM      4  N   UNL d   1     -41.736-123.320 -50.964  0.00  0.00    -0.269 N 
ATOM      5  C   UNL d   1     -41.797-123.734 -51.662  0.00  0.00     0.179 A 
ATOM      6  N   UNL d   1     -41.473-121.868 -52.444  0.00  0.00    -0.223 NA
ATOM      7  N   UNL d   1     -41.489-121.836 -50.795  0.00  0.00    -0.224 NA
ATOM      8  C   UNL d   1     -41.359-121.159 -52.042  0.00  0.00     0.101 A 
ATOM      9  C   UNL d   1     -41.366-121.142 -51.221  0.00  0.00     0.101 A 
ATOM     10  C   UNL d   1     -41.251-120.428 -50.826  0.00  0.00     0.021 A 
ATOM     11  C   UNL d   1     -41.237-120.469 -52.470  0.00  0.00     0.021 A 
ATOM     12  C   UNL d   1     -41.123-119.760 -52.068  0.00  0.00     0.002 A 
ATOM     13  C   UNL d   1     -41.131-119.747 -51.249  0.00  0.00     0.002 A 
ENDROOT
BRANCH   1  14
ATOM     14  S   UNL d   1     -41.693-123.243 -53.309  0.00  0.00     0.274 S 
ATOM     15  O   UNL d   1     -41.123-123.793 -53.715  0.00  0.00    -0.200 OA
ATOM     16  O   UNL d   1     -41.123-123.817 -53.086  0.00  0.00    -0.200 OA
BRANCH  14  17
ATOM     17  C   UNL d   1     -42.108-122.808 -53.870  0.00  0.00     0.104 A 
ATOM     18  C   UNL d   1     -41.710-122.239 -54.330  0.00  0.00     0.013 A 
ATOM     19  C   UNL d   1     -42.136-121.803 -54.896  0.00  0.00     0.001 A 
ATOM     20  C   UNL d   1     -42.945-121.933 -55.000  0.00  0.00     0.000 A 
ATOM     21  C   UNL d   1     -43.335-122.505 -54.535  0.00  0.00     0.001 A 
ATOM     22  C   UNL d   1     -43.364-121.500 -55.561  0.00  0.00     0.000 C 
ATOM     23  C   UNL d   1     -42.917-122.938 -53.975  0.00  0.00     0.013 A 
ENDBRANCH  14  17
ENDBRANCH   1  14
BRANCH   4  24
ATOM     24  C   UNL d   1     -41.795-123.611 -50.193  0.00  0.00     0.108 C 
BRANCH  24  25
ATOM     25  C   UNL d   1     -42.523-123.596 -49.794  0.00  0.00     0.118 A 
ATOM     26  O   UNL d   1     -43.264-123.749 -50.131  0.00  0.00    -0.304 OA
ATOM     27  C   UNL d   1     -43.847-123.673 -49.532  0.00  0.00     0.123 A 
ATOM     28  C   UNL d   1     -43.457-123.474 -48.827  0.00  0.00     0.029 A 
ATOM     29  C   UNL d   1     -42.639-123.427 -48.993  0.00  0.00     0.028 A 
ENDBRANCH  24  25
ENDBRANCH   4  24
TORSDOF 4
ENDMDL
