MODEL 1
REMARK VINA RESULT:      37.5      0.000      0.000
REMARK  6 active torsions:
REMARK  status: ('A' for Active; 'I' for Inactive)
REMARK    1  A    between atoms: N_2  and  S_1 
REMARK    2  A    between atoms: C_3  and  S_1 
REMARK    3  A    between atoms: C_4  and  C_9 
REMARK    4  A    between atoms: O_12  and  C_4 
REMARK    5  A    between atoms: C_19  and  O_12 
REMARK    6  A    between atoms: C_18  and  C_19 
ROOT
ATOM      1  C   UNL d   1      46.481 -19.213  41.649  0.00  0.00     0.104 A 
ATOM      2  C   UNL d   1      46.290 -18.472  41.320  0.00  0.00     0.018 A 
ATOM      3  C   UNL d   1      46.266 -18.389  40.498  0.00  0.00     0.064 A 
ATOM      4  C   UNL d   1      46.645 -19.861  41.165  0.00  0.00     0.013 A 
ATOM      5  C   UNL d   1      46.430 -19.039  40.009  0.00  0.00     0.005 A 
ATOM      6  C   UNL d   1      46.621 -19.778  40.343  0.00  0.00     0.001 A 
ENDROOT
BRANCH   3   7
ATOM      7  C   UNL d   1      46.077 -17.658  40.154  0.00  0.00     0.300 C 
ATOM      8  O   UNL d   1      46.295 -16.953  40.524  0.00  0.00    -0.259 OA
BRANCH   7   9
ATOM      9  O   UNL d   1      45.668 -17.642  39.436  0.00  0.00    -0.271 OA
BRANCH   9  10
ATOM     10  C   UNL d   1      45.042 -17.118  39.333  0.00  0.00     0.126 C 
BRANCH  10  11
ATOM     11  C   UNL d   1      44.969 -16.707  38.631  0.00  0.00     0.027 A 
ATOM     12  C   UNL d   1      45.629 -16.376  38.288  0.00  0.00     0.028 A 
ATOM     13  C   UNL d   1      45.553 -15.963  37.581  0.00  0.00     0.119 A 
ATOM     14  O   UNL d   1      46.112 -15.572  37.106  0.00  0.00    -0.300 OA
ATOM     15  C   UNL d   1      44.821 -15.883  37.221  0.00  0.00     0.119 A 
ATOM     16  C   UNL d   1      45.710 -15.256  36.459  0.00  0.00     0.304 A 
ATOM     17  O   UNL d   1      44.916 -15.447  36.529  0.00  0.00    -0.300 OA
ATOM     18  C   UNL d   1      44.155 -16.219  37.570  0.00  0.00     0.026 A 
ATOM     19  C   UNL d   1      44.230 -16.632  38.277  0.00  0.00     0.004 A 
ENDBRANCH  10  11
ENDBRANCH   9  10
ENDBRANCH   7   9
ENDBRANCH   3   7
BRANCH   1  20
ATOM     20  S   UNL d   1      46.506 -19.296  42.471  0.00  0.00     0.271 S 
ATOM     21  O   UNL d   1      46.520 -20.126  42.423  0.00  0.00    -0.200 OA
ATOM     22  O   UNL d   1      46.492 -18.466  42.523  0.00  0.00    -0.200 OA
BRANCH  20  23
ATOM     23  N   UNL d   1      46.531 -19.394  43.296  0.00  0.00    -0.229 N 
ATOM     24  C   UNL d   1      46.493 -18.724  43.791  0.00  0.00     0.092 A 
ATOM     25  C   UNL d   1      46.518 -18.833  44.608  0.00  0.00     0.020 A 
ATOM     26  C   UNL d   1      46.580 -19.588  44.946  0.00  0.00     0.003 A 
ATOM     27  C   UNL d   1      46.617 -20.242  44.447  0.00  0.00     0.020 A 
ATOM     28  C   UNL d   1      46.592 -20.146  43.622  0.00  0.00     0.092 A 
ENDBRANCH  20  23
ENDBRANCH   1  20
TORSDOF 6
ENDMDL
