MODEL 1
REMARK VINA RESULT:      -4.7      0.000      0.000
REMARK  4 active torsions:
REMARK  status: ('A' for Active; 'I' for Inactive)
REMARK    1  A    between atoms: C_2  and  S_1 
REMARK    2  A    between atoms: N_3  and  S_1 
REMARK    3  A    between atoms: C_12  and  N_3 
REMARK    4  A    between atoms: N_4  and  C_8 
ROOT
ATOM      1  C   UNL d   1      56.949  -0.017  31.745  0.00  0.00     0.064 A 
ATOM      2  C   UNL d   1      57.758  -0.068  30.310  0.00  0.00     0.094 A 
ATOM      3  C   UNL d   1      57.080   0.681  31.325  0.00  0.00     0.019 A 
ATOM      4  C   UNL d   1      57.220  -0.739  31.449  0.00  0.00     0.019 A 
ATOM      5  C   UNL d   1      57.489   0.651  30.601  0.00  0.00     0.021 A 
ATOM      6  C   UNL d   1      57.622  -0.761  30.736  0.00  0.00     0.021 A 
ENDROOT
BRANCH   2   7
ATOM      7  N   UNL d   1      58.156  -0.087  29.601  0.00  0.00    -0.158 NA
BRANCH   7   8
ATOM      8  S   UNL d   1      58.980  -0.135  29.590  0.00  0.00     0.291 S 
ATOM      9  O   UNL d   1      59.029   0.682  29.663  0.00  0.00    -0.198 OA
ATOM     10  O   UNL d   1      58.931  -0.950  29.518  0.00  0.00    -0.198 OA
BRANCH   8  11
ATOM     11  C   UNL d   1      59.795  -0.183  29.580  0.00  0.00     0.135 A 
ATOM     12  S   UNL d   1      60.229  -0.740  29.173  0.00  0.00    -0.073 SA
ATOM     13  C   UNL d   1      61.039  -0.585  29.317  0.00  0.00     0.036 A 
ATOM     14  C   UNL d   1      61.073   0.050  29.797  0.00  0.00     0.008 A 
ATOM     15  C   UNL d   1      60.337   0.318  29.976  0.00  0.00     0.020 A 
ENDBRANCH   8  11
ENDBRANCH   7   8
ENDBRANCH   2   7
BRANCH   1  16
ATOM     16  N   UNL d   1      56.544   0.009  32.462  0.00  0.00    -0.304 N 
ATOM     17  C   UNL d   1      56.774   0.550  33.041  0.00  0.00     0.080 A 
ATOM     18  C   UNL d   1      56.362   0.572  33.765  0.00  0.00     0.019 A 
ATOM     19  C   UNL d   1      55.728   0.054  33.901  0.00  0.00     0.003 A 
ATOM     20  C   UNL d   1      55.510  -0.480  33.315  0.00  0.00     0.019 A 
ATOM     21  C   UNL d   1      55.921  -0.504  32.590  0.00  0.00     0.080 A 
ENDBRANCH   1  16
TORSDOF 4
ENDMDL
MODEL 2
REMARK VINA RESULT:      -3.4      9.491     10.314
REMARK  4 active torsions:
REMARK  status: ('A' for Active; 'I' for Inactive)
REMARK    1  A    between atoms: C_2  and  S_1 
REMARK    2  A    between atoms: N_3  and  S_1 
REMARK    3  A    between atoms: C_12  and  N_3 
REMARK    4  A    between atoms: N_4  and  C_8 
ROOT
ATOM      1  C   UNL d   1      58.720  -9.812  32.569  0.00  0.00     0.064 A 
ATOM      2  C   UNL d   1      59.442  -9.810  34.051  0.00  0.00     0.094 A 
ATOM      3  C   UNL d   1      59.544  -9.813  32.623  0.00  0.00     0.019 A 
ATOM      4  C   UNL d   1      58.258  -9.810  33.254  0.00  0.00     0.019 A 
ATOM      5  C   UNL d   1      59.904  -9.812  33.373  0.00  0.00     0.021 A 
ATOM      6  C   UNL d   1      58.619  -9.809  33.989  0.00  0.00     0.021 A 
ENDROOT
BRANCH   2   7
ATOM      7  N   UNL d   1      59.803  -9.809  34.780  0.00  0.00    -0.158 NA
BRANCH   7   8
ATOM      8  S   UNL d   1      59.884  -9.104  35.201  0.00  0.00     0.291 S 
ATOM      9  O   UNL d   1      59.246  -9.314  35.675  0.00  0.00    -0.198 OA
ATOM     10  O   UNL d   1      60.519  -8.895  34.728  0.00  0.00    -0.198 OA
BRANCH   8  11
ATOM     11  C   UNL d   1      59.964  -8.407  35.617  0.00  0.00     0.135 A 
ATOM     12  S   UNL d   1      60.665  -8.109  35.906  0.00  0.00    -0.073 SA
ATOM     13  C   UNL d   1      60.494  -7.387  36.294  0.00  0.00     0.036 A 
ATOM     14  C   UNL d   1      59.708  -7.269  36.230  0.00  0.00     0.008 A 
ATOM     15  C   UNL d   1      59.357  -7.868  35.826  0.00  0.00     0.020 A 
ENDBRANCH   8  11
ENDBRANCH   7   8
ENDBRANCH   2   7
BRANCH   1  16
ATOM     16  N   UNL d   1      58.360  -9.813  31.828  0.00  0.00    -0.304 N 
ATOM     17  C   UNL d   1      58.826  -9.811  31.147  0.00  0.00     0.080 A 
ATOM     18  C   UNL d   1      58.457  -9.812  30.401  0.00  0.00     0.019 A 
ATOM     19  C   UNL d   1      57.629  -9.816  30.343  0.00  0.00     0.003 A 
ATOM     20  C   UNL d   1      57.177  -9.818  31.030  0.00  0.00     0.019 A 
ATOM     21  C   UNL d   1      57.544  -9.817  31.779  0.00  0.00     0.080 A 
ENDBRANCH   1  16
TORSDOF 4
ENDMDL
MODEL 3
REMARK VINA RESULT:      -3.2      1.832      4.524
REMARK  4 active torsions:
REMARK  status: ('A' for Active; 'I' for Inactive)
REMARK    1  A    between atoms: C_2  and  S_1 
REMARK    2  A    between atoms: N_3  and  S_1 
REMARK    3  A    between atoms: C_12  and  N_3 
REMARK    4  A    between atoms: N_4  and  C_8 
ROOT
ATOM      1  C   UNL d   1      59.178  -1.434  29.431  0.00  0.00     0.064 A 
ATOM      2  C   UNL d   1      58.118  -0.335  30.052  0.00  0.00     0.094 A 
ATOM      3  C   UNL d   1      59.328  -0.627  29.344  0.00  0.00     0.019 A 
ATOM      4  C   UNL d   1      58.500  -1.692  29.827  0.00  0.00     0.019 A 
ATOM      5  C   UNL d   1      58.790  -0.076  29.659  0.00  0.00     0.021 A 
ATOM      6  C   UNL d   1      57.975  -1.144  30.135  0.00  0.00     0.021 A 
ENDROOT
BRANCH   2   7
ATOM      7  N   UNL d   1      57.597   0.212  30.357  0.00  0.00    -0.158 NA
BRANCH   7   8
ATOM      8  S   UNL d   1      57.448   0.233  31.168  0.00  0.00     0.291 S 
ATOM      9  O   UNL d   1      58.135   0.670  31.283  0.00  0.00    -0.198 OA
ATOM     10  O   UNL d   1      56.763  -0.201  31.053  0.00  0.00    -0.198 OA
BRANCH   8  11
ATOM     11  C   UNL d   1      57.301   0.255  31.970  0.00  0.00     0.135 A 
ATOM     12  S   UNL d   1      57.729   0.682  32.516  0.00  0.00    -0.073 SA
ATOM     13  C   UNL d   1      57.388   0.545  33.269  0.00  0.00     0.036 A 
ATOM     14  C   UNL d   1      56.774   0.048  33.160  0.00  0.00     0.008 A 
ATOM     15  C   UNL d   1      56.694  -0.147  32.385  0.00  0.00     0.020 A 
ENDBRANCH   8  11
ENDBRANCH   7   8
ENDBRANCH   2   7
BRANCH   1  16
ATOM     16  N   UNL d   1      59.708  -1.983  29.121  0.00  0.00    -0.304 N 
ATOM     17  C   UNL d   1      59.432  -2.716  28.862  0.00  0.00     0.080 A 
ATOM     18  C   UNL d   1      59.972  -3.268  28.549  0.00  0.00     0.019 A 
ATOM     19  C   UNL d   1      60.779  -3.081  28.498  0.00  0.00     0.003 A 
ATOM     20  C   UNL d   1      61.040  -2.347  28.760  0.00  0.00     0.019 A 
ATOM     21  C   UNL d   1      60.501  -1.792  29.073  0.00  0.00     0.080 A 
ENDBRANCH   1  16
TORSDOF 4
ENDMDL
MODEL 4
REMARK VINA RESULT:      -3.1      2.329      4.712
REMARK  4 active torsions:
REMARK  status: ('A' for Active; 'I' for Inactive)
REMARK    1  A    between atoms: C_2  and  S_1 
REMARK    2  A    between atoms: N_3  and  S_1 
REMARK    3  A    between atoms: C_12  and  N_3 
REMARK    4  A    between atoms: N_4  and  C_8 
ROOT
ATOM      1  C   UNL d   1      57.806   0.055  30.800  0.00  0.00     0.064 A 
ATOM      2  C   UNL d   1      56.592  -0.335  31.844  0.00  0.00     0.094 A 
ATOM      3  C   UNL d   1      57.624  -0.738  30.936  0.00  0.00     0.019 A 
ATOM      4  C   UNL d   1      57.383   0.652  31.183  0.00  0.00     0.019 A 
ATOM      5  C   UNL d   1      57.010  -0.931  31.464  0.00  0.00     0.021 A 
ATOM      6  C   UNL d   1      56.781   0.455  31.702  0.00  0.00     0.021 A 
ENDROOT
BRANCH   2   7
ATOM      7  N   UNL d   1      55.994  -0.533  32.358  0.00  0.00    -0.158 NA
BRANCH   7   8
ATOM      8  S   UNL d   1      55.963  -0.192  33.109  0.00  0.00     0.291 S 
ATOM      9  O   UNL d   1      56.725  -0.460  33.262  0.00  0.00    -0.198 OA
ATOM     10  O   UNL d   1      55.204   0.075  32.956  0.00  0.00    -0.198 OA
BRANCH   8  11
ATOM     11  C   UNL d   1      55.933   0.146  33.851  0.00  0.00     0.135 A 
ATOM     12  S   UNL d   1      55.251   0.355  34.246  0.00  0.00    -0.073 SA
ATOM     13  C   UNL d   1      55.475   0.680  34.985  0.00  0.00     0.036 A 
ATOM     14  C   UNL d   1      56.272   0.659  35.016  0.00  0.00     0.008 A 
ATOM     15  C   UNL d   1      56.580   0.342  34.345  0.00  0.00     0.020 A 
ENDBRANCH   8  11
ENDBRANCH   7   8
ENDBRANCH   2   7
BRANCH   1  16
ATOM     16  N   UNL d   1      58.413   0.250  30.278  0.00  0.00    -0.304 N 
ATOM     17  C   UNL d   1      58.271   0.243  29.465  0.00  0.00     0.080 A 
ATOM     18  C   UNL d   1      58.887   0.441  28.941  0.00  0.00     0.019 A 
ATOM     19  C   UNL d   1      59.637   0.643  29.235  0.00  0.00     0.003 A 
ATOM     20  C   UNL d   1      59.765   0.645  30.047  0.00  0.00     0.019 A 
ATOM     21  C   UNL d   1      59.149   0.448  30.574  0.00  0.00     0.080 A 
ENDBRANCH   1  16
TORSDOF 4
ENDMDL
