MODEL 1
REMARK VINA RESULT:      53.7      0.000      0.000
REMARK  3 active torsions:
REMARK  status: ('A' for Active; 'I' for Inactive)
REMARK    1  A    between atoms: N_4  and  C_1 
REMARK    2  A    between atoms: C_3  and  N_4 
REMARK    3  A    between atoms: C_8  and  C_5 
ROOT
ATOM      1  C   UNL d   1      60.161  49.488  50.157  0.00  0.00     0.750 A 
ATOM      2  N   UNL d   1      59.395  49.454  50.462  0.00  0.00    -0.059 NA
ATOM      3  C   UNL d   1      58.748  49.543  49.961  0.00  0.00     0.103 A 
ATOM      4  N   UNL d   1      60.285  49.609  49.363  0.00  0.00    -0.058 NA
ATOM      5  C   UNL d   1      58.870  49.667  49.154  0.00  0.00     0.041 A 
ATOM      6  C   UNL d   1      59.646  49.700  48.850  0.00  0.00     0.120 A 
ENDROOT
BRANCH   1   7
ATOM      7  N   UNL d   1      60.803  49.397  50.665  0.00  0.00    -0.059 NA
BRANCH   7   8
ATOM      8  C   UNL d   1      60.885  48.709  51.113  0.00  0.00     0.101 A 
ATOM      9  C   UNL d   1      60.814  47.968  50.756  0.00  0.00     0.041 A 
ATOM     10  C   UNL d   1      60.898  47.280  51.212  0.00  0.00     0.104 A 
ATOM     11  N   UNL d   1      60.827  46.540  50.855  0.00  0.00    -0.148 N 
ATOM     12  C   UNL d   1      61.050  47.336  52.020  0.00  0.00     0.021 A 
ATOM     13  C   UNL d   1      61.121  48.076  52.377  0.00  0.00     0.003 A 
ATOM     14  C   UNL d   1      61.039  48.760  51.926  0.00  0.00     0.018 A 
ATOM     15  C   UNL d   1      61.109  49.501  52.284  0.00  0.00     0.002 C 
ENDBRANCH   7   8
ENDBRANCH   1   7
BRANCH   3  16
ATOM     16  C   UNL d   1      57.986  49.510  50.264  0.00  0.00     0.037 A 
ATOM     17  C   UNL d   1      57.854  49.705  51.049  0.00  0.00     0.100 A 
ATOM     18  N   UNL d   1      57.093  49.675  51.365  0.00  0.00    -0.242 NA
ATOM     19  C   UNL d   1      56.457  49.445  50.882  0.00  0.00     0.099 A 
ATOM     20  C   UNL d   1      56.593  49.247  50.087  0.00  0.00     0.021 A 
ATOM     21  C   UNL d   1      57.356  49.281  49.784  0.00  0.00     0.005 A 
ENDBRANCH   3  16
TORSDOF 3
ENDMDL
