MODEL 1
REMARK VINA RESULT:      -5.2      0.000      0.000
REMARK  3 active torsions:
REMARK  status: ('A' for Active; 'I' for Inactive)
REMARK    1  A    between atoms: C_10  and  C_4 
REMARK    2  A    between atoms: S_9  and  C_10 
REMARK    3  A    between atoms: C_11  and  S_9 
ROOT
ATOM      1  C   UNL d   1      57.336   0.393  31.069  0.00  0.00     0.056 C 
ENDROOT
BRANCH   1   2
ATOM      2  S   UNL d   1      57.269  -0.152  31.658  0.00  0.00    -0.085 SA
BRANCH   2   3
ATOM      3  C   UNL d   1      56.648  -0.097  32.199  0.00  0.00     0.030 A 
ATOM      4  C   UNL d   1      56.387   0.642  32.450  0.00  0.00     0.007 A 
ATOM      5  C   UNL d   1      55.765   0.682  32.991  0.00  0.00     0.012 A 
ATOM      6  C   UNL d   1      55.406   0.002  33.280  0.00  0.00     0.058 A 
ATOM      7  C   UNL d   1      55.674  -0.733  33.022  0.00  0.00     0.012 A 
ATOM      8 CL   UNL d   1      54.782   0.057  33.823  0.00  0.00    -0.082 Cl
ATOM      9  C   UNL d   1      56.292  -0.787  32.485  0.00  0.00     0.007 A 
ENDBRANCH   2   3
ENDBRANCH   1   2
BRANCH   1  10
ATOM     10  C   UNL d   1      57.917   0.312  30.509  0.00  0.00     0.107 A 
ATOM     11  N   UNL d   1      57.831  -0.069  29.763  0.00  0.00    -0.220 NA
ATOM     12  C   UNL d   1      58.578  -0.024  29.358  0.00  0.00     0.180 A 
ATOM     13  N   UNL d   1      59.125   0.390  29.866  0.00  0.00    -0.282 N 
ATOM     14  S   UNL d   1      58.992  -0.231  28.643  0.00  0.00    -0.048 SA
ATOM     15  C   UNL d   1      58.706   0.593  30.575  0.00  0.00     0.102 A 
ATOM     16  C   UNL d   1      59.873   0.435  29.461  0.00  0.00     0.089 A 
ATOM     17  C   UNL d   1      59.787   0.050  28.707  0.00  0.00     0.057 A 
ENDBRANCH   1  10
TORSDOF 3
ENDMDL
MODEL 2
REMARK VINA RESULT:      -4.1      2.261      4.560
REMARK  3 active torsions:
REMARK  status: ('A' for Active; 'I' for Inactive)
REMARK    1  A    between atoms: C_10  and  C_4 
REMARK    2  A    between atoms: S_9  and  C_10 
REMARK    3  A    between atoms: C_11  and  S_9 
ROOT
ATOM      1  C   UNL d   1      57.595  -0.277  31.265  0.00  0.00     0.056 C 
ENDROOT
BRANCH   1   2
ATOM      2  S   UNL d   1      57.715   0.309  30.726  0.00  0.00    -0.085 SA
BRANCH   2   3
ATOM      3  C   UNL d   1      58.342   0.253  30.193  0.00  0.00     0.030 A 
ATOM      4  C   UNL d   1      58.273  -0.227  29.528  0.00  0.00     0.007 A 
ATOM      5  C   UNL d   1      58.907  -0.274  29.003  0.00  0.00     0.012 A 
ATOM      6  C   UNL d   1      59.601   0.147  29.131  0.00  0.00     0.058 A 
ATOM      7  C   UNL d   1      59.660   0.625  29.800  0.00  0.00     0.012 A 
ATOM      8 CL   UNL d   1      60.231   0.091  28.595  0.00  0.00    -0.082 Cl
ATOM      9  C   UNL d   1      59.037   0.681  30.330  0.00  0.00     0.007 A 
ENDBRANCH   2   3
ENDBRANCH   1   2
BRANCH   1  10
ATOM     10  C   UNL d   1      57.009  -0.199  31.821  0.00  0.00     0.107 A 
ATOM     11  N   UNL d   1      56.764   0.523  32.180  0.00  0.00    -0.220 NA
ATOM     12  C   UNL d   1      56.138   0.344  32.727  0.00  0.00     0.180 A 
ATOM     13  N   UNL d   1      56.001  -0.499  32.700  0.00  0.00    -0.282 N 
ATOM     14  S   UNL d   1      55.595   0.678  33.291  0.00  0.00    -0.048 SA
ATOM     15  C   UNL d   1      56.545  -0.824  32.137  0.00  0.00     0.102 A 
ATOM     16  C   UNL d   1      55.374  -0.677  33.248  0.00  0.00     0.089 A 
ATOM     17  C   UNL d   1      55.126   0.051  33.610  0.00  0.00     0.057 A 
ENDBRANCH   1  10
TORSDOF 3
ENDMDL
