MODEL 1
REMARK VINA RESULT:      49.1      0.000      0.000
REMARK  3 active torsions:
REMARK  status: ('A' for Active; 'I' for Inactive)
REMARK    1  A    between atoms: C_5  and  C_2 
REMARK    2  A    between atoms: C_10  and  C_4 
REMARK    3  A    between atoms: O_19  and  C_16 
ROOT
ATOM      1  N   UNL d   1     -57.666 -98.813 -43.112  0.00  0.00    -0.245 NA
ATOM      2  C   UNL d   1     -57.425 -98.833 -43.890  0.00  0.00     0.088 A 
ATOM      3  S   UNL d   1     -59.255 -98.808 -44.079  0.00  0.00    -0.085 SA
ATOM      4  C   UNL d   1     -58.713 -98.828 -44.674  0.00  0.00     0.031 A 
ATOM      5  C   UNL d   1     -57.878 -98.840 -44.589  0.00  0.00     0.026 A 
ATOM      6  C   UNL d   1     -58.439 -98.796 -42.844  0.00  0.00     0.087 A 
ATOM      7  C   UNL d   1     -59.142 -98.794 -43.272  0.00  0.00     0.047 A 
ATOM      8  C   UNL d   1     -58.475 -98.779 -42.025  0.00  0.00     0.020 A 
ATOM      9  C   UNL d   1     -59.887 -98.774 -42.883  0.00  0.00     0.008 A 
ATOM     10  C   UNL d   1     -59.180 -98.760 -41.625  0.00  0.00     0.002 A 
ATOM     11  C   UNL d   1     -59.884 -98.758 -42.053  0.00  0.00     0.001 A 
ENDROOT
BRANCH   4  12
ATOM     12  C   UNL d   1     -58.931 -98.840 -45.456  0.00  0.00     0.006 A 
ATOM     13  C   UNL d   1     -58.342 -98.817 -46.048  0.00  0.00     0.003 A 
ATOM     14  C   UNL d   1     -58.560 -98.829 -46.828  0.00  0.00     0.024 A 
ATOM     15  C   UNL d   1     -59.359 -98.864 -47.033  0.00  0.00     0.094 A 
ATOM     16  C   UNL d   1     -59.939 -98.888 -46.459  0.00  0.00     0.024 A 
ATOM     17  C   UNL d   1     -59.732 -98.876 -45.659  0.00  0.00     0.003 A 
BRANCH  15  18
ATOM     18  O   UNL d   1     -59.604 -98.877 -47.835  0.00  0.00    -0.328 OA
ATOM     19  C   UNL d   1     -59.046 -98.821 -48.452  0.00  0.00     0.181 C 
ENDBRANCH  15  18
ENDBRANCH   4  12
BRANCH   2  20
ATOM     20  C   UNL d   1     -56.798 -98.854 -44.466  0.00  0.00     0.047 A 
ATOM     21  S   UNL d   1     -56.019 -98.910 -44.228  0.00  0.00    -0.085 SA
ATOM     22  C   UNL d   1     -55.563 -98.917 -44.914  0.00  0.00     0.035 A 
ATOM     23  C   UNL d   1     -56.036 -98.867 -45.569  0.00  0.00     0.007 A 
ATOM     24  C   UNL d   1     -56.799 -98.828 -45.295  0.00  0.00     0.009 A 
ENDBRANCH   2  20
TORSDOF 3
ENDMDL
