MODEL 1
REMARK VINA RESULT:      32.5      0.000      0.000
REMARK  1 active torsions:
REMARK  status: ('A' for Active; 'I' for Inactive)
REMARK    1  A    between atoms: C_12  and  N_4 
ROOT
ATOM      1  C   UNL d   1      14.799  14.047  -1.111  0.00  0.00     0.081 A 
ATOM      2  C   UNL d   1      15.029  13.950  -0.359  0.00  0.00     0.118 A 
ATOM      3  C   UNL d   1      14.535  13.397  -1.555  0.00  0.00     0.268 A 
ATOM      4  N   UNL d   1      14.517  12.657  -1.203  0.00  0.00    -0.249 N 
ATOM      5  N   UNL d   1      15.010  13.216  -0.015  0.00  0.00    -0.212 NA
ATOM      6  C   UNL d   1      14.743  12.546  -0.454  0.00  0.00     0.209 A 
ATOM      7  S   UNL d   1      15.270  14.664  -0.020  0.00  0.00    -0.068 SA
ATOM      8  C   UNL d   1      14.890  14.858  -1.282  0.00  0.00     0.013 A 
ATOM      9  C   UNL d   1      15.185  15.249  -0.601  0.00  0.00     0.031 A 
ATOM     10  S   UNL d   1      14.709  11.779  -0.136  0.00  0.00    -0.038 SA
ATOM     11  O   UNL d   1      14.290  13.474  -2.341  0.00  0.00    -0.267 OA
ATOM     12  C   UNL d   1      14.696  15.123  -2.018  0.00  0.00     0.001 A 
ATOM     13  C   UNL d   1      15.348  16.051  -0.549  0.00  0.00     0.006 A 
ATOM     14  C   UNL d   1      14.750  15.917  -2.289  0.00  0.00     0.000 A 
ATOM     15  C   UNL d   1      15.272  16.639  -1.103  0.00  0.00     0.001 A 
ATOM     16  C   UNL d   1      15.006  16.588  -1.882  0.00  0.00     0.000 A 
ENDROOT
BRANCH   4  17
ATOM     17  C   UNL d   1      14.249  11.986  -1.649  0.00  0.00     0.085 C 
ATOM     18  C   UNL d   1      13.625  12.073  -2.174  0.00  0.00     0.021 C 
ENDBRANCH   4  17
TORSDOF 1
ENDMDL
