MODEL 1
REMARK VINA RESULT:      -6.7      0.000      0.000
REMARK  2 active torsions:
REMARK  status: ('A' for Active; 'I' for Inactive)
REMARK    1  A    between atoms: S_2  and  C_1 
REMARK    2  A    between atoms: N_3  and  S_2 
ROOT
ATOM      1  C   UNL d   1      56.806  -0.418  31.746  0.00  0.00     0.125 A 
ATOM      2  C   UNL d   1      56.658  -1.193  32.073  0.00  0.00    -0.009 A 
ATOM      3  C   UNL d   1      56.638   0.295  31.849  0.00  0.00     0.031 A 
ATOM      4  C   UNL d   1      56.502  -0.874  32.227  0.00  0.00    -0.009 A 
ATOM      5  C   UNL d   1      55.956  -0.790  32.939  0.00  0.00    -0.007 A 
ATOM      6  C   UNL d   1      56.133   0.380  32.507  0.00  0.00     0.045 A 
ATOM      7  C   UNL d   1      56.230  -1.138  32.633  0.00  0.00    -0.007 A 
ATOM      8  C   UNL d   1      55.794  -0.098  33.039  0.00  0.00    -0.022 A 
ATOM      9  C   UNL d   1      56.000  -0.216  32.784  0.00  0.00    -0.022 A 
ATOM     10  C   UNL d   1      55.795  -1.570  33.284  0.00  0.00    -0.001 A 
ENDROOT
BRANCH   1  11
ATOM     11  S   UNL d   1      57.292   0.142  31.005  0.00  0.00     0.142 S 
ATOM     12  O   UNL d   1      56.710   0.679  30.743  0.00  0.00    -0.233 OA
BRANCH  11  13
ATOM     13  N   UNL d   1      58.024   0.150  30.684  0.00  0.00    -0.251 N 
ATOM     14  C   UNL d   1      58.589   0.657  30.982  0.00  0.00     0.108 A 
ATOM     15  C   UNL d   1      59.369   0.655  30.629  0.00  0.00     0.100 A 
ATOM     16  N   UNL d   1      59.531   0.163  30.020  0.00  0.00    -0.299 N 
ATOM     17  C   UNL d   1      58.934  -0.343  29.737  0.00  0.00     0.100 A 
ATOM     18  C   UNL d   1      60.344   0.319  29.824  0.00  0.00     0.100 C 
ATOM     19  C   UNL d   1      58.187  -0.346  30.071  0.00  0.00     0.108 A 
ENDBRANCH  11  13
ENDBRANCH   1  11
TORSDOF 2
ENDMDL
MODEL 2
REMARK VINA RESULT:      -5.4      1.878      3.872
REMARK  2 active torsions:
REMARK  status: ('A' for Active; 'I' for Inactive)
REMARK    1  A    between atoms: S_2  and  C_1 
REMARK    2  A    between atoms: N_3  and  S_2 
ROOT
ATOM      1  C   UNL d   1      56.853  -0.174  31.865  0.00  0.00     0.125 A 
ATOM      2  C   UNL d   1      57.141   0.526  31.469  0.00  0.00    -0.009 A 
ATOM      3  C   UNL d   1      56.881  -0.912  31.829  0.00  0.00     0.031 A 
ATOM      4  C   UNL d   1      57.232   0.171  31.345  0.00  0.00    -0.009 A 
ATOM      5  C   UNL d   1      57.742  -0.080  30.647  0.00  0.00    -0.007 A 
ATOM      6  C   UNL d   1      57.353  -1.151  31.184  0.00  0.00     0.045 A 
ATOM      7  C   UNL d   1      57.543   0.340  30.918  0.00  0.00    -0.007 A 
ATOM      8  C   UNL d   1      57.769  -0.797  30.612  0.00  0.00    -0.022 A 
ATOM      9  C   UNL d   1      57.592  -0.619  30.853  0.00  0.00    -0.022 A 
ATOM     10  C   UNL d   1      58.043   0.621  30.232  0.00  0.00    -0.001 A 
ENDROOT
BRANCH   1  11
ATOM     11  S   UNL d   1      56.280  -0.561  32.653  0.00  0.00     0.142 S 
ATOM     12  O   UNL d   1      56.219  -1.375  32.477  0.00  0.00    -0.233 OA
BRANCH  11  13
ATOM     13  N   UNL d   1      55.933  -0.262  33.308  0.00  0.00    -0.251 N 
ATOM     14  C   UNL d   1      56.394  -0.051  33.947  0.00  0.00     0.108 A 
ATOM     15  C   UNL d   1      56.010   0.269  34.642  0.00  0.00     0.100 A 
ATOM     16  N   UNL d   1      55.215   0.355  34.655  0.00  0.00    -0.299 N 
ATOM     17  C   UNL d   1      54.771   0.131  33.987  0.00  0.00     0.100 A 
ATOM     18  C   UNL d   1      55.043   0.682  35.422  0.00  0.00     0.100 C 
ATOM     19  C   UNL d   1      55.132  -0.175  33.321  0.00  0.00     0.108 A 
ENDBRANCH  11  13
ENDBRANCH   1  11
TORSDOF 2
ENDMDL
MODEL 3
REMARK VINA RESULT:      -4.4      8.847      9.352
REMARK  2 active torsions:
REMARK  status: ('A' for Active; 'I' for Inactive)
REMARK    1  A    between atoms: S_2  and  C_1 
REMARK    2  A    between atoms: N_3  and  S_2 
ROOT
ATOM      1  C   UNL d   1      60.293  -7.915  35.339  0.00  0.00     0.125 A 
ATOM      2  C   UNL d   1      60.924  -7.359  35.485  0.00  0.00    -0.009 A 
ATOM      3  C   UNL d   1      59.582  -8.039  35.501  0.00  0.00     0.031 A 
ATOM      4  C   UNL d   1      60.571  -7.310  35.637  0.00  0.00    -0.009 A 
ATOM      5  C   UNL d   1      60.262  -6.653  36.169  0.00  0.00    -0.007 A 
ATOM      6  C   UNL d   1      59.289  -7.434  35.994  0.00  0.00     0.045 A 
ATOM      7  C   UNL d   1      60.691  -6.838  35.902  0.00  0.00    -0.007 A 
ATOM      8  C   UNL d   1      59.571  -6.773  36.326  0.00  0.00    -0.022 A 
ATOM      9  C   UNL d   1      59.766  -6.981  36.125  0.00  0.00    -0.022 A 
ATOM     10  C   UNL d   1      60.892  -6.077  36.327  0.00  0.00    -0.001 A 
ENDROOT
BRANCH   1  11
ATOM     11  S   UNL d   1      59.999  -8.802  34.864  0.00  0.00     0.142 S 
ATOM     12  O   UNL d   1      59.771  -9.302  35.491  0.00  0.00    -0.233 OA
BRANCH  11  13
ATOM     13  N   UNL d   1      59.958  -9.058  34.107  0.00  0.00    -0.251 N 
ATOM     14  C   UNL d   1      60.635  -9.082  33.653  0.00  0.00     0.108 A 
ATOM     15  C   UNL d   1      60.576  -9.358  32.845  0.00  0.00     0.100 A 
ATOM     16  N   UNL d   1      59.868  -9.585  32.550  0.00  0.00    -0.299 N 
ATOM     17  C   UNL d   1      59.194  -9.548  33.038  0.00  0.00     0.100 A 
ATOM     18  C   UNL d   1      60.030  -9.818  31.747  0.00  0.00     0.100 C 
ATOM     19  C   UNL d   1      59.245  -9.286  33.811  0.00  0.00     0.108 A 
ENDBRANCH  11  13
ENDBRANCH   1  11
TORSDOF 2
ENDMDL
MODEL 4
REMARK VINA RESULT:      -4.2      0.843      3.922
REMARK  2 active torsions:
REMARK  status: ('A' for Active; 'I' for Inactive)
REMARK    1  A    between atoms: S_2  and  C_1 
REMARK    2  A    between atoms: N_3  and  S_2 
ROOT
ATOM      1  C   UNL d   1      58.701   0.424  30.454  0.00  0.00     0.125 A 
ATOM      2  C   UNL d   1      59.454   0.681  30.764  0.00  0.00    -0.009 A 
ATOM      3  C   UNL d   1      58.392   0.139  29.845  0.00  0.00     0.031 A 
ATOM      4  C   UNL d   1      59.419   0.541  30.405  0.00  0.00    -0.009 A 
ATOM      5  C   UNL d   1      60.049   0.425  29.772  0.00  0.00    -0.007 A 
ATOM      6  C   UNL d   1      58.971   0.029  29.254  0.00  0.00     0.045 A 
ATOM      7  C   UNL d   1      59.955   0.594  30.274  0.00  0.00    -0.007 A 
ATOM      8  C   UNL d   1      59.750   0.148  29.181  0.00  0.00    -0.022 A 
ATOM      9  C   UNL d   1      59.574   0.224  29.472  0.00  0.00    -0.022 A 
ATOM     10  C   UNL d   1      60.822   0.682  30.072  0.00  0.00    -0.001 A 
ENDROOT
BRANCH   1  11
ATOM     11  S   UNL d   1      57.676   0.298  30.634  0.00  0.00     0.142 S 
ATOM     12  O   UNL d   1      57.319   0.462  29.899  0.00  0.00    -0.233 OA
BRANCH  11  13
ATOM     13  N   UNL d   1      57.227   0.099  31.266  0.00  0.00    -0.251 N 
ATOM     14  C   UNL d   1      57.056  -0.686  31.407  0.00  0.00     0.108 A 
ATOM     15  C   UNL d   1      56.575  -0.885  32.087  0.00  0.00     0.100 A 
ATOM     16  N   UNL d   1      56.304  -0.306  32.568  0.00  0.00    -0.299 N 
ATOM     17  C   UNL d   1      56.496   0.486  32.398  0.00  0.00     0.100 A 
ATOM     18  C   UNL d   1      55.858  -0.713  33.168  0.00  0.00     0.100 C 
ATOM     19  C   UNL d   1      56.954   0.682  31.751  0.00  0.00     0.108 A 
ENDBRANCH  11  13
ENDBRANCH   1  11
TORSDOF 2
ENDMDL
MODEL 5
REMARK VINA RESULT:      -4.0      1.130      3.678
REMARK  2 active torsions:
REMARK  status: ('A' for Active; 'I' for Inactive)
REMARK    1  A    between atoms: S_2  and  C_1 
REMARK    2  A    between atoms: N_3  and  S_2 
ROOT
ATOM      1  C   UNL d   1      58.147  -0.608  30.073  0.00  0.00     0.125 A 
ATOM      2  C   UNL d   1      58.374  -1.421  29.944  0.00  0.00    -0.009 A 
ATOM      3  C   UNL d   1      58.240   0.071  29.793  0.00  0.00     0.031 A 
ATOM      4  C   UNL d   1      58.497  -1.136  29.713  0.00  0.00    -0.009 A 
ATOM      5  C   UNL d   1      59.033  -1.177  28.990  0.00  0.00    -0.007 A 
ATOM      6  C   UNL d   1      58.736   0.040  29.122  0.00  0.00     0.045 A 
ATOM      7  C   UNL d   1      58.796  -1.464  29.379  0.00  0.00    -0.007 A 
ATOM      8  C   UNL d   1      59.124  -0.519  28.718  0.00  0.00    -0.022 A 
ATOM      9  C   UNL d   1      58.930  -0.590  28.999  0.00  0.00    -0.022 A 
ATOM     10  C   UNL d   1      59.274  -1.999  28.845  0.00  0.00    -0.001 A 
ENDROOT
BRANCH   1  11
ATOM     11  S   UNL d   1      57.604   0.068  30.663  0.00  0.00     0.142 S 
ATOM     12  O   UNL d   1      57.403   0.682  30.135  0.00  0.00    -0.233 OA
BRANCH  11  13
ATOM     13  N   UNL d   1      57.374   0.101  31.428  0.00  0.00    -0.251 N 
ATOM     14  C   UNL d   1      56.800  -0.410  31.699  0.00  0.00     0.108 A 
ATOM     15  C   UNL d   1      56.564  -0.364  32.520  0.00  0.00     0.100 A 
ATOM     16  N   UNL d   1      56.905   0.173  33.005  0.00  0.00    -0.299 N 
ATOM     17  C   UNL d   1      57.489   0.682  32.699  0.00  0.00     0.100 A 
ATOM     18  C   UNL d   1      56.534   0.052  33.761  0.00  0.00     0.100 C 
ATOM     19  C   UNL d   1      57.718   0.642  31.916  0.00  0.00     0.108 A 
ENDBRANCH  11  13
ENDBRANCH   1  11
TORSDOF 2
ENDMDL
MODEL 6
REMARK VINA RESULT:      -3.9      1.498      2.091
REMARK  2 active torsions:
REMARK  status: ('A' for Active; 'I' for Inactive)
REMARK    1  A    between atoms: S_2  and  C_1 
REMARK    2  A    between atoms: N_3  and  S_2 
ROOT
ATOM      1  C   UNL d   1      56.073   0.475  33.304  0.00  0.00     0.125 A 
ATOM      2  C   UNL d   1      55.241   0.482  33.113  0.00  0.00    -0.009 A 
ATOM      3  C   UNL d   1      56.536   0.527  33.879  0.00  0.00     0.031 A 
ATOM      4  C   UNL d   1      55.366   0.521  33.477  0.00  0.00    -0.009 A 
ATOM      5  C   UNL d   1      54.895   0.630  34.237  0.00  0.00    -0.007 A 
ATOM      6  C   UNL d   1      56.105   0.628  34.586  0.00  0.00     0.045 A 
ATOM      7  C   UNL d   1      54.862   0.567  33.703  0.00  0.00    -0.007 A 
ATOM      8  C   UNL d   1      55.344   0.681  34.795  0.00  0.00    -0.022 A 
ATOM      9  C   UNL d   1      55.446   0.637  34.465  0.00  0.00    -0.022 A 
ATOM     10  C   UNL d   1      54.045   0.640  34.060  0.00  0.00    -0.001 A 
ENDROOT
BRANCH   1  11
ATOM     11  S   UNL d   1      57.054   0.395  32.943  0.00  0.00     0.142 S 
ATOM     12  O   UNL d   1      57.508   0.230  33.623  0.00  0.00    -0.233 OA
BRANCH  11  13
ATOM     13  N   UNL d   1      57.406   0.456  32.227  0.00  0.00    -0.251 N 
ATOM     14  C   UNL d   1      58.204   0.618  32.183  0.00  0.00     0.108 A 
ATOM     15  C   UNL d   1      58.568   0.680  31.410  0.00  0.00     0.100 A 
ATOM     16  N   UNL d   1      58.126   0.581  30.751  0.00  0.00    -0.299 N 
ATOM     17  C   UNL d   1      57.313   0.416  30.829  0.00  0.00     0.100 A 
ATOM     18  C   UNL d   1      58.670   0.682  30.106  0.00  0.00     0.100 C 
ATOM     19  C   UNL d   1      56.961   0.356  31.563  0.00  0.00     0.108 A 
ENDBRANCH  11  13
ENDBRANCH   1  11
TORSDOF 2
ENDMDL
