MODEL 1
REMARK VINA RESULT:     101.1      0.000      0.000
REMARK  6 active torsions:
REMARK  status: ('A' for Active; 'I' for Inactive)
REMARK    1  A    between atoms: C_7  and  C_1 
REMARK    2  A    between atoms: C_9  and  N_2 
REMARK    3  A    between atoms: C_18  and  C_7 
REMARK    4  A    between atoms: C_8  and  C_9 
REMARK       I    between atoms: N_14  and  C_8 
REMARK    5  A    between atoms: C_16  and  N_14 
REMARK    6  A    between atoms: C_29  and  C_23 
ROOT
ATOM      1  C   UNL d   1     -50.514  27.041  34.326  0.00  0.00     0.095 A 
ATOM      2  N   UNL d   1     -50.057  27.127  35.697  0.00  0.00    -0.300 N 
ATOM      3  C   UNL d   1     -49.936  27.585  34.099  0.00  0.00     0.202 A 
ATOM      4  C   UNL d   1     -50.581  26.807  35.128  0.00  0.00     0.087 A 
ATOM      5  C   UNL d   1     -49.412  27.904  34.669  0.00  0.00     0.055 A 
ATOM      6  C   UNL d   1     -49.479  27.669  35.471  0.00  0.00     0.067 A 
ATOM      7  C   UNL d   1     -48.965  27.981  36.037  0.00  0.00     0.018 A 
ATOM      8  C   UNL d   1     -48.833  28.447  34.443  0.00  0.00     0.005 A 
ATOM      9  O   UNL d   1     -49.870  27.816  33.308  0.00  0.00    -0.286 OA
ATOM     10  C   UNL d   1     -48.321  28.758  35.009  0.00  0.00     0.000 A 
ATOM     11  C   UNL d   1     -48.387  28.524  35.811  0.00  0.00     0.002 A 
ENDROOT
BRANCH   2  12
ATOM     12  C   UNL d   1     -50.123  26.895  36.488  0.00  0.00     0.144 C 
BRANCH  12  13
ATOM     13  C   UNL d   1     -50.842  26.615  36.778  0.00  0.00     0.297 C 
ATOM     14  N   UNL d   1     -50.914  26.408  37.576  0.00  0.00    -0.207 NA
ATOM     15  O   UNL d   1     -51.489  26.542  36.272  0.00  0.00    -0.264 OA
BRANCH  14  16
ATOM     16  C   UNL d   1     -51.634  26.128  37.866  0.00  0.00     0.086 A 
ATOM     17  C   UNL d   1     -51.660  25.417  38.283  0.00  0.00     0.031 A 
ATOM     18  C   UNL d   1     -52.370  25.131  38.576  0.00  0.00     0.059 A 
ATOM     19 CL   UNL d   1     -52.392  24.417  38.994  0.00  0.00    -0.082 Cl
ATOM     20  C   UNL d   1     -53.074  25.568  38.446  0.00  0.00     0.011 A 
ATOM     21  C   UNL d   1     -53.047  26.279  38.029  0.00  0.00     0.002 A 
ATOM     22  C   UNL d   1     -53.790  25.286  38.737  0.00  0.00     0.001 C 
ATOM     23  C   UNL d   1     -52.328  26.559  37.739  0.00  0.00     0.019 A 
ENDBRANCH  14  16
ENDBRANCH  12  13
ENDBRANCH   2  12
BRANCH   1  24
ATOM     24  C   UNL d   1     -51.038  26.719  33.769  0.00  0.00     0.200 C 
ATOM     25  O   UNL d   1     -51.563  27.232  33.361  0.00  0.00    -0.286 OA
BRANCH  24  26
ATOM     26  C   UNL d   1     -51.048  25.909  33.614  0.00  0.00     0.039 A 
ATOM     27  C   UNL d   1     -51.771  25.507  33.609  0.00  0.00     0.003 A 
ATOM     28  C   UNL d   1     -51.780  24.697  33.454  0.00  0.00     0.000 A 
ATOM     29  C   UNL d   1     -51.074  24.299  33.306  0.00  0.00     0.000 A 
ATOM     30  C   UNL d   1     -50.357  24.710  33.312  0.00  0.00     0.000 A 
ATOM     31  C   UNL d   1     -50.347  25.520  33.468  0.00  0.00     0.003 A 
ENDBRANCH  24  26
ENDBRANCH   1  24
BRANCH  10  32
ATOM     32  C   UNL d   1     -47.741  29.302  34.783  0.00  0.00     0.000 C 
ATOM     33  C   UNL d   1     -47.615  29.985  35.236  0.00  0.00     0.000 C 
ENDBRANCH  10  32
TORSDOF 6
ENDMDL
MODEL 2
REMARK VINA RESULT:     102.4      3.112      5.346
REMARK  6 active torsions:
REMARK  status: ('A' for Active; 'I' for Inactive)
REMARK    1  A    between atoms: C_7  and  C_1 
REMARK    2  A    between atoms: C_9  and  N_2 
REMARK    3  A    between atoms: C_18  and  C_7 
REMARK    4  A    between atoms: C_8  and  C_9 
REMARK       I    between atoms: N_14  and  C_8 
REMARK    5  A    between atoms: C_16  and  N_14 
REMARK    6  A    between atoms: C_29  and  C_23 
ROOT
ATOM      1  C   UNL d   1     -48.202  30.801  34.707  0.00  0.00     0.095 A 
ATOM      2  N   UNL d   1     -47.854  29.397  34.636  0.00  0.00    -0.300 N 
ATOM      3  C   UNL d   1     -47.819  30.858  35.436  0.00  0.00     0.202 A 
ATOM      4  C   UNL d   1     -48.223  30.068  34.299  0.00  0.00     0.087 A 
ATOM      5  C   UNL d   1     -47.450  30.187  35.772  0.00  0.00     0.055 A 
ATOM      6  C   UNL d   1     -47.471  29.454  35.364  0.00  0.00     0.067 A 
ATOM      7  C   UNL d   1     -47.109  28.789  35.691  0.00  0.00     0.018 A 
ATOM      8  C   UNL d   1     -47.067  30.245  36.501  0.00  0.00     0.005 A 
ATOM      9  O   UNL d   1     -47.798  31.581  35.838  0.00  0.00    -0.286 OA
ATOM     10  C   UNL d   1     -46.705  29.579  36.826  0.00  0.00     0.000 A 
ATOM     11  C   UNL d   1     -46.726  28.846  36.419  0.00  0.00     0.002 A 
ENDROOT
BRANCH   2  12
ATOM     12  C   UNL d   1     -47.875  28.675  34.234  0.00  0.00     0.144 C 
BRANCH  12  13
ATOM     13  C   UNL d   1     -48.569  28.231  34.219  0.00  0.00     0.297 C 
ATOM     14  N   UNL d   1     -48.885  27.980  33.496  0.00  0.00    -0.207 NA
ATOM     15  O   UNL d   1     -48.949  28.037  34.925  0.00  0.00    -0.264 OA
BRANCH  14  16
ATOM     16  C   UNL d   1     -49.580  27.536  33.481  0.00  0.00     0.086 A 
ATOM     17  C   UNL d   1     -50.308  27.914  33.403  0.00  0.00     0.031 A 
ATOM     18  C   UNL d   1     -51.004  27.482  33.387  0.00  0.00     0.059 A 
ATOM     19 CL   UNL d   1     -51.732  27.866  33.308  0.00  0.00    -0.082 Cl
ATOM     20  C   UNL d   1     -50.969  26.646  33.451  0.00  0.00     0.011 A 
ATOM     21  C   UNL d   1     -50.241  26.268  33.529  0.00  0.00     0.002 A 
ATOM     22  C   UNL d   1     -51.664  26.206  33.435  0.00  0.00     0.001 C 
ATOM     23  C   UNL d   1     -49.546  26.712  33.544  0.00  0.00     0.019 A 
ENDBRANCH  14  16
ENDBRANCH  12  13
ENDBRANCH   2  12
BRANCH   1  24
ATOM     24  C   UNL d   1     -48.571  31.461  34.365  0.00  0.00     0.200 C 
ATOM     25  O   UNL d   1     -49.409  31.512  34.384  0.00  0.00    -0.286 OA
BRANCH  24  26
ATOM     26  C   UNL d   1     -48.128  32.060  34.011  0.00  0.00     0.039 A 
ATOM     27  C   UNL d   1     -47.304  31.987  33.979  0.00  0.00     0.003 A 
ATOM     28  C   UNL d   1     -46.861  32.586  33.624  0.00  0.00     0.000 A 
ATOM     29  C   UNL d   1     -47.241  33.247  33.308  0.00  0.00     0.000 A 
ATOM     30  C   UNL d   1     -48.065  33.308  33.346  0.00  0.00     0.000 A 
ATOM     31  C   UNL d   1     -48.508  32.709  33.700  0.00  0.00     0.003 A 
ENDBRANCH  24  26
ENDBRANCH   1  24
BRANCH  10  32
ATOM     32  C   UNL d   1     -46.321  29.636  37.556  0.00  0.00     0.000 C 
ATOM     33  C   UNL d   1     -46.564  30.205  38.108  0.00  0.00     0.000 C 
ENDBRANCH  10  32
TORSDOF 6
ENDMDL
MODEL 3
REMARK VINA RESULT:     102.7      3.135      5.084
REMARK  6 active torsions:
REMARK  status: ('A' for Active; 'I' for Inactive)
REMARK    1  A    between atoms: C_7  and  C_1 
REMARK    2  A    between atoms: C_9  and  N_2 
REMARK    3  A    between atoms: C_18  and  C_7 
REMARK    4  A    between atoms: C_8  and  C_9 
REMARK       I    between atoms: N_14  and  C_8 
REMARK    5  A    between atoms: C_16  and  N_14 
REMARK    6  A    between atoms: C_29  and  C_23 
ROOT
ATOM      1  C   UNL d   1     -47.924  30.007  34.951  0.00  0.00     0.095 A 
ATOM      2  N   UNL d   1     -49.045  30.086  34.038  0.00  0.00    -0.300 N 
ATOM      3  C   UNL d   1     -47.778  30.812  34.840  0.00  0.00     0.202 A 
ATOM      4  C   UNL d   1     -48.561  29.636  34.550  0.00  0.00     0.087 A 
ATOM      5  C   UNL d   1     -48.262  31.262  34.327  0.00  0.00     0.055 A 
ATOM      6  C   UNL d   1     -48.899  30.890  33.926  0.00  0.00     0.067 A 
ATOM      7  C   UNL d   1     -49.380  31.329  33.419  0.00  0.00     0.018 A 
ATOM      8  C   UNL d   1     -48.116  32.066  34.216  0.00  0.00     0.005 A 
ATOM      9  O   UNL d   1     -47.150  31.178  35.235  0.00  0.00    -0.286 OA
ATOM     10  C   UNL d   1     -48.597  32.504  33.709  0.00  0.00     0.000 A 
ATOM     11  C   UNL d   1     -49.234  32.132  33.308  0.00  0.00     0.002 A 
ENDROOT
BRANCH   2  12
ATOM     12  C   UNL d   1     -49.672  29.720  33.642  0.00  0.00     0.144 C 
BRANCH  12  13
ATOM     13  C   UNL d   1     -49.730  28.898  33.631  0.00  0.00     0.297 C 
ATOM     14  N   UNL d   1     -50.419  28.534  33.354  0.00  0.00    -0.207 NA
ATOM     15  O   UNL d   1     -49.098  28.438  33.896  0.00  0.00    -0.264 OA
BRANCH  14  16
ATOM     16  C   UNL d   1     -50.477  27.712  33.343  0.00  0.00     0.086 A 
ATOM     17  C   UNL d   1     -51.218  27.351  33.331  0.00  0.00     0.031 A 
ATOM     18  C   UNL d   1     -51.286  26.535  33.319  0.00  0.00     0.059 A 
ATOM     19 CL   UNL d   1     -52.032  26.178  33.307  0.00  0.00    -0.082 Cl
ATOM     20  C   UNL d   1     -50.591  26.066  33.321  0.00  0.00     0.011 A 
ATOM     21  C   UNL d   1     -49.849  26.426  33.333  0.00  0.00     0.002 A 
ATOM     22  C   UNL d   1     -50.652  25.245  33.309  0.00  0.00     0.001 C 
ATOM     23  C   UNL d   1     -49.791  27.249  33.344  0.00  0.00     0.019 A 
ENDBRANCH  14  16
ENDBRANCH  12  13
ENDBRANCH   2  12
BRANCH   1  24
ATOM     24  C   UNL d   1     -47.449  29.553  35.457  0.00  0.00     0.200 C 
ATOM     25  O   UNL d   1     -46.815  29.110  35.130  0.00  0.00    -0.286 OA
BRANCH  24  26
ATOM     26  C   UNL d   1     -47.592  29.532  36.269  0.00  0.00     0.039 A 
ATOM     27  C   UNL d   1     -47.057  29.897  36.783  0.00  0.00     0.003 A 
ATOM     28  C   UNL d   1     -47.200  29.876  37.595  0.00  0.00     0.000 A 
ATOM     29  C   UNL d   1     -47.871  29.493  37.885  0.00  0.00     0.000 A 
ATOM     30  C   UNL d   1     -48.399  29.131  37.362  0.00  0.00     0.000 A 
ATOM     31  C   UNL d   1     -48.256  29.152  36.550  0.00  0.00     0.003 A 
ENDBRANCH  24  26
ENDBRANCH   1  24
BRANCH  10  32
ATOM     32  C   UNL d   1     -48.451  33.309  33.598  0.00  0.00     0.000 C 
ATOM     33  C   UNL d   1     -47.684  33.570  33.423  0.00  0.00     0.000 C 
ENDBRANCH  10  32
TORSDOF 6
ENDMDL
MODEL 4
REMARK VINA RESULT:     102.7      2.008      4.641
REMARK  6 active torsions:
REMARK  status: ('A' for Active; 'I' for Inactive)
REMARK    1  A    between atoms: C_7  and  C_1 
REMARK    2  A    between atoms: C_9  and  N_2 
REMARK    3  A    between atoms: C_18  and  C_7 
REMARK    4  A    between atoms: C_8  and  C_9 
REMARK       I    between atoms: N_14  and  C_8 
REMARK    5  A    between atoms: C_16  and  N_14 
REMARK    6  A    between atoms: C_29  and  C_23 
ROOT
ATOM      1  C   UNL d   1     -50.238  26.982  34.666  0.00  0.00     0.095 A 
ATOM      2  N   UNL d   1     -49.297  27.605  35.573  0.00  0.00    -0.300 N 
ATOM      3  C   UNL d   1     -50.748  26.834  35.297  0.00  0.00     0.202 A 
ATOM      4  C   UNL d   1     -49.506  27.370  34.798  0.00  0.00     0.087 A 
ATOM      5  C   UNL d   1     -50.539  27.069  36.072  0.00  0.00     0.055 A 
ATOM      6  C   UNL d   1     -49.806  27.457  36.205  0.00  0.00     0.067 A 
ATOM      7  C   UNL d   1     -49.595  27.691  36.967  0.00  0.00     0.018 A 
ATOM      8  C   UNL d   1     -51.049  26.921  36.704  0.00  0.00     0.005 A 
ATOM      9  O   UNL d   1     -51.470  26.451  35.166  0.00  0.00    -0.286 OA
ATOM     10  C   UNL d   1     -50.836  27.155  37.465  0.00  0.00     0.000 A 
ATOM     11  C   UNL d   1     -50.104  27.543  37.598  0.00  0.00     0.002 A 
ENDROOT
BRANCH   2  12
ATOM     12  C   UNL d   1     -48.576  27.987  35.704  0.00  0.00     0.144 C 
BRANCH  12  13
ATOM     13  C   UNL d   1     -48.481  28.777  35.485  0.00  0.00     0.297 C 
ATOM     14  N   UNL d   1     -47.777  29.174  35.661  0.00  0.00    -0.207 NA
ATOM     15  O   UNL d   1     -49.090  29.170  35.091  0.00  0.00    -0.264 OA
BRANCH  14  16
ATOM     16  C   UNL d   1     -47.683  29.964  35.443  0.00  0.00     0.086 A 
ATOM     17  C   UNL d   1     -48.155  30.285  34.848  0.00  0.00     0.031 A 
ATOM     18  C   UNL d   1     -48.069  31.068  34.624  0.00  0.00     0.059 A 
ATOM     19 CL   UNL d   1     -48.545  31.387  34.027  0.00  0.00    -0.082 Cl
ATOM     20  C   UNL d   1     -47.494  31.544  35.007  0.00  0.00     0.011 A 
ATOM     21  C   UNL d   1     -47.021  31.222  35.602  0.00  0.00     0.002 A 
ATOM     22  C   UNL d   1     -47.402  32.331  34.787  0.00  0.00     0.001 C 
ATOM     23  C   UNL d   1     -47.116  30.432  35.820  0.00  0.00     0.019 A 
ENDBRANCH  14  16
ENDBRANCH  12  13
ENDBRANCH   2  12
BRANCH   1  24
ATOM     24  C   UNL d   1     -50.436  26.753  33.893  0.00  0.00     0.200 C 
ATOM     25  O   UNL d   1     -50.537  27.346  33.307  0.00  0.00    -0.286 OA
BRANCH  24  26
ATOM     26  C   UNL d   1     -50.535  25.958  33.698  0.00  0.00     0.039 A 
ATOM     27  C   UNL d   1     -51.299  25.659  33.597  0.00  0.00     0.003 A 
ATOM     28  C   UNL d   1     -51.398  24.863  33.401  0.00  0.00     0.000 A 
ATOM     29  C   UNL d   1     -50.738  24.377  33.309  0.00  0.00     0.000 A 
ATOM     30  C   UNL d   1     -49.978  24.687  33.413  0.00  0.00     0.000 A 
ATOM     31  C   UNL d   1     -49.879  25.483  33.608  0.00  0.00     0.003 A 
ENDBRANCH  24  26
ENDBRANCH   1  24
BRANCH  10  32
ATOM     32  C   UNL d   1     -51.347  27.007  38.098  0.00  0.00     0.000 C 
ATOM     33  C   UNL d   1     -51.056  26.659  38.791  0.00  0.00     0.000 C 
ENDBRANCH  10  32
TORSDOF 6
ENDMDL
