MODEL 1
REMARK VINA RESULT:       0.1      0.000      0.000
REMARK  6 active torsions:
REMARK  status: ('A' for Active; 'I' for Inactive)
REMARK    1  A    between atoms: C_7  and  N_1 
REMARK    2  A    between atoms: S_10  and  C_2 
REMARK    3  A    between atoms: C_22  and  S_10 
REMARK    4  A    between atoms: C_13  and  C_22 
REMARK       I    between atoms: N_17  and  C_13 
REMARK    5  A    between atoms: C_14  and  C_23 
REMARK    6  A    between atoms: C_23  and  N_17 
ROOT
ATOM      1  N   UNL d   1      32.854  22.046 -22.161  0.00  0.00    -0.254 N 
ATOM      2  C   UNL d   1      32.989  21.434 -22.700  0.00  0.00     0.183 A 
ATOM      3  N   UNL d   1      33.121  21.600 -23.495  0.00  0.00    -0.201 NA
ATOM      4  C   UNL d   1      32.854  22.828 -22.435  0.00  0.00     0.271 A 
ATOM      5  C   UNL d   1      32.986  22.987 -23.225  0.00  0.00     0.115 A 
ATOM      6  C   UNL d   1      33.119  22.376 -23.756  0.00  0.00     0.192 A 
ATOM      7  N   UNL d   1      33.168  23.521 -24.428  0.00  0.00    -0.145 NA
ATOM      8  N   UNL d   1      33.232  22.708 -24.501  0.00  0.00    -0.128 NA
ATOM      9  C   UNL d   1      33.014  23.702 -23.636  0.00  0.00     0.130 A 
ATOM     10  O   UNL d   1      32.719  23.444 -21.898  0.00  0.00    -0.266 OA
ENDROOT
BRANCH   2  11
ATOM     11  S   UNL d   1      32.991  20.646 -22.437  0.00  0.00    -0.044 SA
BRANCH  11  12
ATOM     12  C   UNL d   1      33.175  20.040 -22.964  0.00  0.00     0.101 C 
BRANCH  12  13
ATOM     13  C   UNL d   1      33.026  19.255 -22.762  0.00  0.00     0.286 C 
ATOM     14  N   UNL d   1      32.744  18.730 -23.337  0.00  0.00    -0.204 NA
ATOM     15  O   UNL d   1      33.156  18.988 -21.991  0.00  0.00    -0.265 OA
BRANCH  14  16
ATOM     16  C   UNL d   1      32.595  17.943 -23.138  0.00  0.00     0.127 C 
BRANCH  16  17
ATOM     17  C   UNL d   1      32.184  17.456 -23.666  0.00  0.00     0.119 A 
ATOM     18  O   UNL d   1      32.180  17.516 -24.482  0.00  0.00    -0.304 OA
ATOM     19  C   UNL d   1      31.699  16.921 -24.789  0.00  0.00     0.123 A 
ATOM     20  C   UNL d   1      31.404  16.489 -24.160  0.00  0.00     0.029 A 
ATOM     21  C   UNL d   1      31.697  16.811 -23.466  0.00  0.00     0.028 A 
ENDBRANCH  16  17
ENDBRANCH  14  16
ENDBRANCH  12  13
ENDBRANCH  11  12
ENDBRANCH   2  11
BRANCH   1  22
ATOM     22  C   UNL d   1      32.722  21.881 -21.371  0.00  0.00     0.075 A 
ATOM     23  C   UNL d   1      32.068  22.211 -20.985  0.00  0.00     0.051 A 
ATOM     24 BR   UNL d   1      31.553  22.701 -21.395  0.00  0.00    -0.048 Br
ATOM     25  C   UNL d   1      31.935  22.045 -20.189  0.00  0.00     0.008 A 
ATOM     26  C   UNL d   1      32.455  21.550 -19.778  0.00  0.00     0.001 A 
ATOM     27  C   UNL d   1      33.107  21.224 -20.168  0.00  0.00     0.002 A 
ATOM     28  C   UNL d   1      33.240  21.390 -20.964  0.00  0.00     0.018 A 
ENDBRANCH   1  22
TORSDOF 6
ENDMDL
