MODEL 1
REMARK VINA RESULT:      -5.3      0.000      0.000
REMARK  5 active torsions:
REMARK  status: ('A' for Active; 'I' for Inactive)
REMARK    1  A    between atoms: N_2  and  C_1 
REMARK    2  A    between atoms: N_3  and  C_1 
REMARK       I    between atoms: C_4  and  N_2 
REMARK    3  A    between atoms: C_7  and  N_3 
REMARK    4  A    between atoms: C_8  and  C_4 
REMARK    5  A    between atoms: C_9  and  C_8 
ROOT
ATOM      1  C   UNL d   1      57.890   0.100  30.645  0.00  0.00     0.209 C 
ATOM      2  S   UNL d   1      58.025   0.681  31.238  0.00  0.00    -0.038 SA
ENDROOT
BRANCH   1   3
ATOM      3  N   UNL d   1      57.523  -0.574  30.840  0.00  0.00    -0.180 NA
ATOM      4  C   UNL d   1      57.016  -0.610  31.469  0.00  0.00     0.281 C 
ATOM      5  O   UNL d   1      56.632  -1.323  31.671  0.00  0.00    -0.265 OA
BRANCH   4   6
ATOM      6  C   UNL d   1      56.872   0.055  31.920  0.00  0.00     0.063 C 
BRANCH   6   7
ATOM      7  C   UNL d   1      56.298   0.039  32.513  0.00  0.00     0.005 A 
ATOM      8  C   UNL d   1      55.793   0.680  32.599  0.00  0.00     0.000 A 
ATOM      9  C   UNL d   1      55.206   0.680  33.195  0.00  0.00     0.000 A 
ATOM     10  C   UNL d   1      55.145   0.023  33.693  0.00  0.00     0.000 A 
ATOM     11  C   UNL d   1      55.647  -0.623  33.612  0.00  0.00     0.000 A 
ATOM     12  C   UNL d   1      56.240  -0.628  33.014  0.00  0.00     0.000 A 
ENDBRANCH   6   7
ENDBRANCH   4   6
ENDBRANCH   1   3
BRANCH   1  13
ATOM     13  N   UNL d   1      58.136   0.241  29.889  0.00  0.00    -0.281 N 
ATOM     14  C   UNL d   1      57.662   0.682  29.284  0.00  0.00     0.101 C 
BRANCH  13  15
ATOM     15  C   UNL d   1      58.849  -0.020  29.633  0.00  0.00     0.066 A 
ATOM     16  C   UNL d   1      59.556   0.334  29.868  0.00  0.00     0.018 A 
ATOM     17  C   UNL d   1      60.282   0.058  29.598  0.00  0.00     0.002 A 
ATOM     18  C   UNL d   1      60.317  -0.600  29.071  0.00  0.00     0.000 A 
ATOM     19  C   UNL d   1      59.610  -0.954  28.836  0.00  0.00     0.002 A 
ATOM     20  C   UNL d   1      58.877  -0.661  29.120  0.00  0.00     0.018 A 
ENDBRANCH  13  15
ENDBRANCH   1  13
TORSDOF 5
ENDMDL
MODEL 2
REMARK VINA RESULT:      -4.7      0.927      4.534
REMARK  5 active torsions:
REMARK  status: ('A' for Active; 'I' for Inactive)
REMARK    1  A    between atoms: N_2  and  C_1 
REMARK    2  A    between atoms: N_3  and  C_1 
REMARK       I    between atoms: C_4  and  N_2 
REMARK    3  A    between atoms: C_7  and  N_3 
REMARK    4  A    between atoms: C_8  and  C_4 
REMARK    5  A    between atoms: C_9  and  C_8 
ROOT
ATOM      1  C   UNL d   1      57.096   0.061  31.534  0.00  0.00     0.209 C 
ATOM      2  S   UNL d   1      56.797   0.681  31.051  0.00  0.00    -0.038 SA
ENDROOT
BRANCH   1   3
ATOM      3  N   UNL d   1      57.411  -0.579  31.190  0.00  0.00    -0.180 NA
ATOM      4  C   UNL d   1      57.929  -0.514  30.574  0.00  0.00     0.281 C 
ATOM      5  O   UNL d   1      58.258  -1.193  30.216  0.00  0.00    -0.265 OA
BRANCH   4   6
ATOM      6  C   UNL d   1      58.141   0.222  30.290  0.00  0.00     0.063 C 
BRANCH   6   7
ATOM      7  C   UNL d   1      58.785   0.301  29.780  0.00  0.00     0.005 A 
ATOM      8  C   UNL d   1      59.544   0.310  30.092  0.00  0.00     0.000 A 
ATOM      9  C   UNL d   1      60.207   0.390  29.589  0.00  0.00     0.000 A 
ATOM     10  C   UNL d   1      60.084   0.460  28.775  0.00  0.00     0.000 A 
ATOM     11  C   UNL d   1      59.326   0.452  28.455  0.00  0.00     0.000 A 
ATOM     12  C   UNL d   1      58.654   0.371  28.957  0.00  0.00     0.000 A 
ENDBRANCH   6   7
ENDBRANCH   4   6
ENDBRANCH   1   3
BRANCH   1  13
ATOM     13  N   UNL d   1      57.057   0.132  32.338  0.00  0.00    -0.281 N 
ATOM     14  C   UNL d   1      57.726   0.413  32.846  0.00  0.00     0.101 C 
BRANCH  13  15
ATOM     15  C   UNL d   1      56.388  -0.056  32.736  0.00  0.00     0.066 A 
ATOM     16  C   UNL d   1      56.192  -0.836  32.922  0.00  0.00     0.018 A 
ATOM     17  C   UNL d   1      55.503  -1.016  33.331  0.00  0.00     0.002 A 
ATOM     18  C   UNL d   1      54.977  -0.401  33.569  0.00  0.00     0.000 A 
ATOM     19  C   UNL d   1      55.173   0.379  33.383  0.00  0.00     0.002 A 
ATOM     20  C   UNL d   1      55.879   0.547  32.965  0.00  0.00     0.018 A 
ENDBRANCH  13  15
ENDBRANCH   1  13
TORSDOF 5
ENDMDL
