MODEL 1
REMARK VINA RESULT:      20.4      0.000      0.000
REMARK  3 active torsions:
REMARK  status: ('A' for Active; 'I' for Inactive)
REMARK    1  A    between atoms: N_2  and  S_1 
REMARK    2  A    between atoms: N_3  and  S_1 
REMARK    3  A    between atoms: C_4  and  N_2 
ROOT
ATOM      1  S   UNL d   1     -57.229 -98.775 -44.493  0.00  0.00     0.351 S 
ATOM      2  O   UNL d   1     -57.189 -98.794 -43.671  0.00  0.00    -0.180 OA
ATOM      3  O   UNL d   1     -57.263 -98.756 -45.319  0.00  0.00    -0.180 OA
ENDROOT
BRANCH   1   4
ATOM      4  N   UNL d   1     -56.413 -98.791 -44.603  0.00  0.00    -0.144 NA
BRANCH   4   5
ATOM      5  C   UNL d   1     -55.986 -99.501 -44.492  0.00  0.00     0.095 A 
ATOM      6  C   UNL d   1     -55.156 -99.483 -44.400  0.00  0.00     0.018 A 
ATOM      7  C   UNL d   1     -54.736-100.185 -44.278  0.00  0.00     0.002 A 
ATOM      8  C   UNL d   1     -54.747 -98.776 -44.560  0.00  0.00     0.002 C 
ATOM      9  C   UNL d   1     -55.143-100.912 -44.254  0.00  0.00     0.000 A 
ATOM     10  C   UNL d   1     -55.975-100.945 -44.343  0.00  0.00     0.002 A 
ATOM     11  C   UNL d   1     -54.715-101.609 -44.150  0.00  0.00     0.000 C 
ATOM     12  C   UNL d   1     -56.395-100.232 -44.460  0.00  0.00     0.020 A 
ENDBRANCH   4   5
ENDBRANCH   1   4
BRANCH   1  13
ATOM     13  N   UNL d   1     -58.051 -98.757 -44.453  0.00  0.00    -0.215 N 
ATOM     14  C   UNL d   1     -58.429 -98.904 -43.727  0.00  0.00     0.093 C 
ATOM     15  C   UNL d   1     -59.245 -98.886 -43.691  0.00  0.00     0.020 C 
ATOM     16  C   UNL d   1     -59.698 -98.834 -44.379  0.00  0.00     0.003 C 
ATOM     17  C   UNL d   1     -59.322 -98.799 -45.110  0.00  0.00     0.020 C 
ATOM     18  C   UNL d   1     -58.494 -98.817 -45.155  0.00  0.00     0.093 C 
ENDBRANCH   1  13
TORSDOF 3
ENDMDL
