MODEL 1
REMARK VINA RESULT:      -3.3      0.000      0.000
REMARK  7 active torsions:
REMARK  status: ('A' for Active; 'I' for Inactive)
REMARK    1  A    between atoms: N_4  and  C_1 
REMARK       I    between atoms: C_3  and  N_4 
REMARK    2  A    between atoms: C_8  and  C_3 
REMARK    3  A    between atoms: S_10  and  C_5 
REMARK    4  A    between atoms: C_9  and  C_15 
REMARK       I    between atoms: N_12  and  C_9 
REMARK    5  A    between atoms: C_15  and  S_10 
REMARK    6  A    between atoms: C_17  and  N_12 
REMARK    7  A    between atoms: O_18  and  C_13 
ROOT
ATOM      1  C   UNL d   1      32.147  17.818 -23.927  0.00  0.00     0.219 A 
ATOM      2  S   UNL d   1      32.250  18.359 -23.313  0.00  0.00    -0.019 SA
ATOM      3  C   UNL d   1      32.917  18.811 -23.468  0.00  0.00     0.165 A 
ATOM      4  N   UNL d   1      32.762  17.940 -24.470  0.00  0.00    -0.120 NA
ATOM      5  N   UNL d   1      33.237  18.553 -24.186  0.00  0.00    -0.133 NA
ENDROOT
BRANCH   1   6
ATOM      6  N   UNL d   1      31.539  17.257 -23.987  0.00  0.00    -0.181 NA
ATOM      7  C   UNL d   1      30.963  17.345 -24.577  0.00  0.00     0.283 C 
ATOM      8  O   UNL d   1      30.995  17.982 -25.096  0.00  0.00    -0.265 OA
BRANCH   7   9
ATOM      9  C   UNL d   1      30.354  16.787 -24.640  0.00  0.00     0.080 A 
ATOM     10  C   UNL d   1      29.585  17.014 -24.511  0.00  0.00     0.099 A 
ATOM     11  C   UNL d   1      28.972  16.458 -24.573  0.00  0.00     0.024 A 
ATOM     12  C   UNL d   1      29.147  15.683 -24.764  0.00  0.00     0.002 A 
ATOM     13  C   UNL d   1      29.935  15.455 -24.895  0.00  0.00     0.000 A 
ATOM     14  C   UNL d   1      30.535  16.013 -24.831  0.00  0.00     0.007 A 
BRANCH  10  15
ATOM     15  O   UNL d   1      29.400  17.799 -24.317  0.00  0.00    -0.328 OA
ATOM     16  C   UNL d   1      28.627  18.025 -24.163  0.00  0.00     0.181 C 
ENDBRANCH  10  15
ENDBRANCH   7   9
ENDBRANCH   1   6
BRANCH   3  17
ATOM     17  S   UNL d   1      33.213  19.416 -22.989  0.00  0.00    -0.054 SA
BRANCH  17  18
ATOM     18  C   UNL d   1      32.851  19.569 -22.256  0.00  0.00     0.100 C 
BRANCH  18  19
ATOM     19  C   UNL d   1      32.903  20.320 -21.924  0.00  0.00     0.286 C 
ATOM     20  N   UNL d   1      32.639  20.450 -21.149  0.00  0.00    -0.208 NA
ATOM     21  O   UNL d   1      33.218  20.956 -22.356  0.00  0.00    -0.265 OA
BRANCH  20  22
ATOM     22  C   UNL d   1      32.685  21.191 -20.810  0.00  0.00     0.085 A 
ATOM     23  C   UNL d   1      33.165  21.411 -20.167  0.00  0.00     0.019 A 
ATOM     24  C   UNL d   1      33.035  22.207 -20.011  0.00  0.00     0.002 A 
ATOM     25  C   UNL d   1      32.474  22.491 -20.552  0.00  0.00     0.002 A 
ATOM     26  C   UNL d   1      32.261  21.858 -21.044  0.00  0.00     0.019 A 
ENDBRANCH  20  22
ENDBRANCH  18  19
ENDBRANCH  17  18
ENDBRANCH   3  17
TORSDOF 7
ENDMDL
MODEL 2
REMARK VINA RESULT:      -2.6      1.307      1.982
REMARK  7 active torsions:
REMARK  status: ('A' for Active; 'I' for Inactive)
REMARK    1  A    between atoms: N_4  and  C_1 
REMARK       I    between atoms: C_3  and  N_4 
REMARK    2  A    between atoms: C_8  and  C_3 
REMARK    3  A    between atoms: S_10  and  C_5 
REMARK    4  A    between atoms: C_9  and  C_15 
REMARK       I    between atoms: N_12  and  C_9 
REMARK    5  A    between atoms: C_15  and  S_10 
REMARK    6  A    between atoms: C_17  and  N_12 
REMARK    7  A    between atoms: O_18  and  C_13 
ROOT
ATOM      1  C   UNL d   1      32.949  18.976 -22.897  0.00  0.00     0.219 A 
ATOM      2  S   UNL d   1      32.976  19.418 -22.201  0.00  0.00    -0.019 SA
ATOM      3  C   UNL d   1      33.146  20.199 -22.391  0.00  0.00     0.165 A 
ATOM      4  N   UNL d   1      33.106  19.493 -23.526  0.00  0.00    -0.120 NA
ATOM      5  N   UNL d   1      33.228  20.248 -23.213  0.00  0.00    -0.133 NA
ENDROOT
BRANCH   1   6
ATOM      6  N   UNL d   1      32.793  18.163 -22.953  0.00  0.00    -0.181 NA
ATOM      7  C   UNL d   1      32.248  17.892 -23.516  0.00  0.00     0.283 C 
ATOM      8  O   UNL d   1      31.867  18.424 -24.014  0.00  0.00    -0.265 OA
BRANCH   7   9
ATOM      9  C   UNL d   1      32.090  17.082 -23.575  0.00  0.00     0.080 A 
ATOM     10  C   UNL d   1      31.347  16.830 -23.787  0.00  0.00     0.099 A 
ATOM     11  C   UNL d   1      31.185  16.019 -23.847  0.00  0.00     0.024 A 
ATOM     12  C   UNL d   1      31.775  15.475 -23.691  0.00  0.00     0.002 A 
ATOM     13  C   UNL d   1      32.534  15.736 -23.474  0.00  0.00     0.000 A 
ATOM     14  C   UNL d   1      32.685  16.542 -23.418  0.00  0.00     0.007 A 
BRANCH  10  15
ATOM     15  O   UNL d   1      30.744  17.377 -23.947  0.00  0.00    -0.328 OA
ATOM     16  C   UNL d   1      29.964  17.133 -24.023  0.00  0.00     0.181 C 
ENDBRANCH  10  15
ENDBRANCH   7   9
ENDBRANCH   1   6
BRANCH   3  17
ATOM     17  S   UNL d   1      33.223  20.821 -21.853  0.00  0.00    -0.054 SA
BRANCH  17  18
ATOM     18  C   UNL d   1      32.589  21.000 -21.345  0.00  0.00     0.100 C 
BRANCH  18  19
ATOM     19  C   UNL d   1      32.598  21.699 -20.910  0.00  0.00     0.286 C 
ATOM     20  N   UNL d   1      32.987  21.729 -20.180  0.00  0.00    -0.208 NA
ATOM     21  O   UNL d   1      32.221  22.382 -21.196  0.00  0.00    -0.265 OA
BRANCH  20  22
ATOM     22  C   UNL d   1      33.002  22.417 -19.740  0.00  0.00     0.085 A 
ATOM     23  C   UNL d   1      32.806  23.179 -20.009  0.00  0.00     0.019 A 
ATOM     24  C   UNL d   1      32.900  23.702 -19.384  0.00  0.00     0.002 A 
ATOM     25  C   UNL d   1      33.155  23.275 -18.720  0.00  0.00     0.002 A 
ATOM     26  C   UNL d   1      33.216  22.480 -18.947  0.00  0.00     0.019 A 
ENDBRANCH  20  22
ENDBRANCH  18  19
ENDBRANCH  17  18
ENDBRANCH   3  17
TORSDOF 7
ENDMDL
MODEL 3
REMARK VINA RESULT:      -0.5      2.478      3.532
REMARK  7 active torsions:
REMARK  status: ('A' for Active; 'I' for Inactive)
REMARK    1  A    between atoms: N_4  and  C_1 
REMARK       I    between atoms: C_3  and  N_4 
REMARK    2  A    between atoms: C_8  and  C_3 
REMARK    3  A    between atoms: S_10  and  C_5 
REMARK    4  A    between atoms: C_9  and  C_15 
REMARK       I    between atoms: N_12  and  C_9 
REMARK    5  A    between atoms: C_15  and  S_10 
REMARK    6  A    between atoms: C_17  and  N_12 
REMARK    7  A    between atoms: O_18  and  C_13 
ROOT
ATOM      1  C   UNL d   1      32.979  20.044 -21.949  0.00  0.00     0.219 A 
ATOM      2  S   UNL d   1      33.000  20.864 -21.867  0.00  0.00    -0.019 SA
ATOM      3  C   UNL d   1      32.840  21.055 -21.084  0.00  0.00     0.165 A 
ATOM      4  N   UNL d   1      32.804  19.724 -21.205  0.00  0.00    -0.120 NA
ATOM      5  N   UNL d   1      32.718  20.348 -20.671  0.00  0.00    -0.133 NA
ENDROOT
BRANCH   1   6
ATOM      6  N   UNL d   1      33.111  19.620 -22.650  0.00  0.00    -0.181 NA
ATOM      7  C   UNL d   1      32.681  18.925 -22.791  0.00  0.00     0.283 C 
ATOM      8  O   UNL d   1      32.130  18.660 -22.241  0.00  0.00    -0.265 OA
BRANCH   7   9
ATOM      9  C   UNL d   1      32.809  18.500 -23.490  0.00  0.00     0.080 A 
ATOM     10  C   UNL d   1      32.826  17.688 -23.470  0.00  0.00     0.099 A 
ATOM     11  C   UNL d   1      32.954  17.258 -24.168  0.00  0.00     0.024 A 
ATOM     12  C   UNL d   1      33.064  17.655 -24.874  0.00  0.00     0.002 A 
ATOM     13  C   UNL d   1      33.047  18.486 -24.890  0.00  0.00     0.000 A 
ATOM     14  C   UNL d   1      32.919  18.903 -24.193  0.00  0.00     0.007 A 
BRANCH  10  15
ATOM     15  O   UNL d   1      32.715  17.278 -22.757  0.00  0.00    -0.328 OA
ATOM     16  C   UNL d   1      32.755  16.459 -22.731  0.00  0.00     0.181 C 
ENDBRANCH  10  15
ENDBRANCH   7   9
ENDBRANCH   1   6
BRANCH   3  17
ATOM     17  S   UNL d   1      32.808  21.818 -20.770  0.00  0.00    -0.054 SA
BRANCH  17  18
ATOM     18  C   UNL d   1      33.240  21.994 -20.081  0.00  0.00     0.100 C 
BRANCH  18  19
ATOM     19  C   UNL d   1      32.929  22.514 -19.525  0.00  0.00     0.286 C 
ATOM     20  N   UNL d   1      32.963  22.328 -18.718  0.00  0.00    -0.208 NA
ATOM     21  O   UNL d   1      32.577  23.229 -19.761  0.00  0.00    -0.265 OA
BRANCH  20  22
ATOM     22  C   UNL d   1      32.658  22.836 -18.157  0.00  0.00     0.085 A 
ATOM     23  C   UNL d   1      31.856  23.029 -18.050  0.00  0.00     0.019 A 
ATOM     24  C   UNL d   1      31.802  23.559 -17.425  0.00  0.00     0.002 A 
ATOM     25  C   UNL d   1      32.566  23.702 -17.136  0.00  0.00     0.002 A 
ATOM     26  C   UNL d   1      33.092  23.252 -17.593  0.00  0.00     0.019 A 
ENDBRANCH  20  22
ENDBRANCH  18  19
ENDBRANCH  17  18
ENDBRANCH   3  17
TORSDOF 7
ENDMDL
