MODEL 1
REMARK VINA RESULT:      25.9      0.000      0.000
REMARK  3 active torsions:
REMARK  status: ('A' for Active; 'I' for Inactive)
REMARK    1  A    between atoms: C_6  and  C_2 
REMARK    2  A    between atoms: O_7  and  C_6 
REMARK    3  A    between atoms: C_8  and  O_7 
ROOT
ATOM      1  N   UNL d   1     -54.926-100.020 -43.699  0.00  0.00    -0.224 NA
ATOM      2  C   UNL d   1     -54.984 -99.915 -44.515  0.00  0.00     0.188 A 
ATOM      3  N   UNL d   1     -54.943-100.682 -44.873  0.00  0.00    -0.224 NA
ATOM      4  C   UNL d   1     -54.850-100.845 -43.553  0.00  0.00     0.101 A 
ATOM      5  C   UNL d   1     -54.861-101.251 -44.272  0.00  0.00     0.101 A 
ATOM      6  C   UNL d   1     -54.773-101.263 -42.845  0.00  0.00     0.021 A 
ATOM      7  C   UNL d   1     -54.795-102.074 -44.283  0.00  0.00     0.021 A 
ATOM      8  C   UNL d   1     -54.713-102.036 -42.883  0.00  0.00     0.002 A 
ATOM      9  C   UNL d   1     -54.724-102.442 -43.603  0.00  0.00     0.002 A 
ENDROOT
BRANCH   2  10
ATOM     10  C   UNL d   1     -55.047 -99.116 -44.495  0.00  0.00     0.161 C 
BRANCH  10  11
ATOM     11  O   UNL d   1     -55.785 -98.770 -44.381  0.00  0.00    -0.302 OA
BRANCH  11  12
ATOM     12  C   UNL d   1     -56.601 -98.767 -44.504  0.00  0.00     0.100 A 
ATOM     13  C   UNL d   1     -57.116 -98.772 -43.860  0.00  0.00     0.026 A 
ATOM     14  C   UNL d   1     -57.927 -98.769 -43.983  0.00  0.00     0.013 A 
ATOM     15  C   UNL d   1     -58.232 -98.761 -44.751  0.00  0.00     0.058 A 
ATOM     16  C   UNL d   1     -57.713 -98.756 -45.398  0.00  0.00     0.013 A 
ATOM     17 CL   UNL d   1     -59.043 -98.757 -44.874  0.00  0.00    -0.082 Cl
ATOM     18  C   UNL d   1     -56.902 -98.759 -45.275  0.00  0.00     0.026 A 
ENDBRANCH  11  12
ENDBRANCH  10  11
ENDBRANCH   2  10
TORSDOF 3
ENDMDL
