MODEL 1
REMARK VINA RESULT:      41.4      0.000      0.000
REMARK  8 active torsions:
REMARK  status: ('A' for Active; 'I' for Inactive)
REMARK    1  A    between atoms: C_20  and  N_7 
REMARK    2  A    between atoms: C_10  and  C_8 
REMARK       I    between atoms: N_18  and  C_10 
REMARK    3  A    between atoms: N_14  and  C_22 
REMARK    4  A    between atoms: C_21  and  N_18 
REMARK    5  A    between atoms: C_23  and  C_20 
REMARK    6  A    between atoms: C_22  and  C_21 
REMARK    7  A    between atoms: C_30  and  C_23 
REMARK    8  A    between atoms: O_27  and  C_30 
ROOT
ATOM      1  C   UNL d   1      45.456 -14.789  43.888  0.00  0.00     0.154 A 
ATOM      2  C   UNL d   1      45.969 -14.792  43.242  0.00  0.00     0.093 A 
ATOM      3  N   UNL d   1      45.095 -14.104  44.118  0.00  0.00    -0.210 NA
ATOM      4  N   UNL d   1      45.754 -13.437  43.065  0.00  0.00    -0.258 N 
ATOM      5  C   UNL d   1      45.241 -13.433  43.711  0.00  0.00     0.152 A 
ATOM      6  C   UNL d   1      46.122 -14.118  42.826  0.00  0.00     0.269 A 
ATOM      7  N   UNL d   1      45.309 -15.454  44.294  0.00  0.00    -0.285 N 
ATOM      8  C   UNL d   1      45.669 -16.132  44.064  0.00  0.00     0.137 A 
ATOM      9  C   UNL d   1      46.173 -16.135  43.428  0.00  0.00     0.031 A 
ATOM     10  C   UNL d   1      44.885 -12.761  43.938  0.00  0.00     0.035 A 
ATOM     11  C   UNL d   1      45.911 -12.767  42.646  0.00  0.00     0.084 A 
ATOM     12  O   UNL d   1      46.634 -14.121  42.180  0.00  0.00    -0.266 OA
ATOM     13  C   UNL d   1      45.541 -12.095  42.889  0.00  0.00     0.019 A 
ATOM     14  C   UNL d   1      45.029 -12.091  43.536  0.00  0.00     0.005 A 
ATOM     15  C   UNL d   1      44.366 -12.765  44.596  0.00  0.00     0.003 C 
ENDROOT
BRANCH   8  16
ATOM     16  C   UNL d   1      45.517 -16.814  44.482  0.00  0.00     0.344 C 
ATOM     17  O   UNL d   1      44.814 -16.892  44.900  0.00  0.00    -0.249 OA
ATOM     18  N   UNL d   1      46.085 -17.427  44.476  0.00  0.00    -0.359 NA
BRANCH  18  19
ATOM     19  C   UNL d   1      46.646 -18.041  44.476  0.00  0.00     0.184 C 
BRANCH  19  20
ATOM     20  C   UNL d   1      46.481 -18.761  44.081  0.00  0.00     0.116 C 
BRANCH  20  21
ATOM     21  N   UNL d   1      46.499 -18.787  43.246  0.00  0.00    -0.297 N 
ATOM     22  C   UNL d   1      46.631 -18.434  42.500  0.00  0.00     0.107 A 
ATOM     23  C   UNL d   1      46.515 -18.879  41.799  0.00  0.00     0.142 A 
ATOM     24  O   UNL d   1      46.266 -19.683  41.847  0.00  0.00    -0.300 OA
ATOM     25  C   UNL d   1      46.132 -20.039  42.599  0.00  0.00     0.142 A 
ATOM     26  C   UNL d   1      46.249 -19.591  43.298  0.00  0.00     0.107 A 
ENDBRANCH  20  21
ENDBRANCH  19  20
ENDBRANCH  18  19
ENDBRANCH   8  16
BRANCH   7  27
ATOM     27  C   UNL d   1      44.790 -15.442  44.946  0.00  0.00     0.084 C 
BRANCH  27  28
ATOM     28  C   UNL d   1      44.019 -15.141  44.862  0.00  0.00     0.045 C 
BRANCH  28  29
ATOM     29  C   UNL d   1      43.387 -15.664  44.717  0.00  0.00     0.118 C 
BRANCH  29  30
ATOM     30  O   UNL d   1      42.609 -15.371  44.696  0.00  0.00    -0.326 OA
ATOM     31  C   UNL d   1      42.455 -14.580  44.925  0.00  0.00     0.181 C 
ENDBRANCH  29  30
ENDBRANCH  28  29
ENDBRANCH  27  28
ENDBRANCH   7  27
TORSDOF 8
ENDMDL
