MODEL 1
REMARK VINA RESULT:      -2.2      0.000      0.000
REMARK  1 active torsions:
REMARK  status: ('A' for Active; 'I' for Inactive)
REMARK    1  A    between atoms: C_10  and  C_4 
ROOT
ATOM      1  N   UNL d   1     -41.391-122.272 -51.723  0.00  0.00    -0.202 N 
ATOM      2  C   UNL d   1     -41.476-121.836 -52.417  0.00  0.00     0.166 A 
ATOM      3  N   UNL d   1     -41.511-123.076 -51.910  0.00  0.00    -0.163 NA
ATOM      4  C   UNL d   1     -41.650-122.369 -53.036  0.00  0.00     0.055 A 
ATOM      5  C   UNL d   1     -41.215-121.886 -51.011  0.00  0.00     0.143 A 
ATOM      6  C   UNL d   1     -41.668-123.122 -52.712  0.00  0.00     0.104 A 
ATOM      7  N   UNL d   1     -41.388-121.019 -52.404  0.00  0.00    -0.227 NA
ATOM      8  C   UNL d   1     -41.126-121.064 -50.999  0.00  0.00     0.050 A 
ATOM      9  C   UNL d   1     -41.213-120.626 -51.702  0.00  0.00     0.086 A 
ATOM     10 CL   UNL d   1     -41.129-122.319 -50.315  0.00  0.00    -0.061 Cl
ATOM     11  C   UNL d   1     -41.820-123.817 -53.129  0.00  0.00     0.023 C 
ATOM     12  C   UNL d   1     -41.125-119.809 -51.689  0.00  0.00     0.021 C 
ENDROOT
BRANCH   4  13
ATOM     13  C   UNL d   1     -41.779-122.171 -53.827  0.00  0.00     0.004 A 
ATOM     14  C   UNL d   1     -41.171-122.259 -54.378  0.00  0.00     0.001 A 
ATOM     15  C   UNL d   1     -41.302-122.062 -55.164  0.00  0.00     0.011 A 
ATOM     16  C   UNL d   1     -42.036-121.776 -55.408  0.00  0.00     0.058 A 
ATOM     17  C   UNL d   1     -42.643-121.688 -54.861  0.00  0.00     0.011 A 
ATOM     18 CL   UNL d   1     -42.163-121.581 -56.192  0.00  0.00    -0.082 Cl
ATOM     19  C   UNL d   1     -42.519-121.884 -54.068  0.00  0.00     0.001 A 
ENDBRANCH   4  13
TORSDOF 1
ENDMDL
MODEL 2
REMARK VINA RESULT:      -0.9      1.196      3.802
REMARK  1 active torsions:
REMARK  status: ('A' for Active; 'I' for Inactive)
REMARK    1  A    between atoms: C_10  and  C_4 
ROOT
ATOM      1  N   UNL d   1     -41.633-121.641 -53.572  0.00  0.00    -0.202 N 
ATOM      2  C   UNL d   1     -41.774-122.268 -53.055  0.00  0.00     0.166 A 
ATOM      3  N   UNL d   1     -41.369-120.992 -53.120  0.00  0.00    -0.163 NA
ATOM      4  C   UNL d   1     -41.598-122.008 -52.281  0.00  0.00     0.055 A 
ATOM      5  C   UNL d   1     -41.761-121.739 -54.384  0.00  0.00     0.143 A 
ATOM      6  C   UNL d   1     -41.352-121.227 -52.336  0.00  0.00     0.104 A 
ATOM      7  N   UNL d   1     -42.041-122.989 -53.344  0.00  0.00    -0.227 NA
ATOM      8  C   UNL d   1     -42.030-122.466 -54.675  0.00  0.00     0.050 A 
ATOM      9  C   UNL d   1     -42.172-123.096 -54.151  0.00  0.00     0.086 A 
ATOM     10 CL   UNL d   1     -41.621-121.116 -54.904  0.00  0.00    -0.061 Cl
ATOM     11  C   UNL d   1     -41.123-120.754 -51.700  0.00  0.00     0.023 C 
ATOM     12  C   UNL d   1     -42.440-123.817 -54.440  0.00  0.00     0.021 C 
ENDROOT
BRANCH   4  13
ATOM     13  C   UNL d   1     -41.661-122.456 -51.591  0.00  0.00     0.004 A 
ATOM     14  C   UNL d   1     -42.258-122.291 -51.046  0.00  0.00     0.001 A 
ATOM     15  C   UNL d   1     -42.318-122.738 -50.360  0.00  0.00     0.011 A 
ATOM     16  C   UNL d   1     -41.786-123.350 -50.211  0.00  0.00     0.058 A 
ATOM     17  C   UNL d   1     -41.191-123.516 -50.752  0.00  0.00     0.011 A 
ATOM     18 CL   UNL d   1     -41.849-123.794 -49.525  0.00  0.00    -0.082 Cl
ATOM     19  C   UNL d   1     -41.123-123.071 -51.445  0.00  0.00     0.001 A 
ENDBRANCH   4  13
TORSDOF 1
ENDMDL
MODEL 3
REMARK VINA RESULT:       0.6      3.080      4.177
REMARK  1 active torsions:
REMARK  status: ('A' for Active; 'I' for Inactive)
REMARK    1  A    between atoms: C_10  and  C_4 
ROOT
ATOM      1  N   UNL d   1     -43.287-123.459 -48.356  0.00  0.00    -0.202 N 
ATOM      2  C   UNL d   1     -42.660-123.184 -48.816  0.00  0.00     0.166 A 
ATOM      3  N   UNL d   1     -43.932-123.603 -48.865  0.00  0.00    -0.163 NA
ATOM      4  C   UNL d   1     -42.916-123.158 -49.610  0.00  0.00     0.055 A 
ATOM      5  C   UNL d   1     -43.193-123.543 -47.538  0.00  0.00     0.143 A 
ATOM      6  C   UNL d   1     -43.694-123.416 -49.625  0.00  0.00     0.104 A 
ATOM      7  N   UNL d   1     -41.943-122.993 -48.463  0.00  0.00    -0.227 NA
ATOM      8  C   UNL d   1     -42.471-123.351 -47.184  0.00  0.00     0.050 A 
ATOM      9  C   UNL d   1     -41.840-123.074 -47.650  0.00  0.00     0.086 A 
ATOM     10 CL   UNL d   1     -43.817-123.818 -47.075  0.00  0.00    -0.061 Cl
ATOM     11  C   UNL d   1     -44.163-123.478 -50.301  0.00  0.00     0.023 C 
ATOM     12  C   UNL d   1     -41.123-122.883 -47.297  0.00  0.00     0.021 C 
ENDROOT
BRANCH   4  13
ATOM     13  C   UNL d   1     -42.466-122.916 -50.259  0.00  0.00     0.004 A 
ATOM     14  C   UNL d   1     -42.515-122.136 -50.526  0.00  0.00     0.001 A 
ATOM     15  C   UNL d   1     -42.067-121.898 -51.172  0.00  0.00     0.011 A 
ATOM     16  C   UNL d   1     -41.568-122.431 -51.555  0.00  0.00     0.058 A 
ATOM     17  C   UNL d   1     -41.518-123.208 -51.291  0.00  0.00     0.011 A 
ATOM     18 CL   UNL d   1     -41.123-122.190 -52.198  0.00  0.00    -0.082 Cl
ATOM     19  C   UNL d   1     -41.965-123.456 -50.642  0.00  0.00     0.001 A 
ENDBRANCH   4  13
TORSDOF 1
ENDMDL
