MODEL 1
REMARK VINA RESULT:       1.9      0.000      0.000
REMARK  6 active torsions:
REMARK  status: ('A' for Active; 'I' for Inactive)
REMARK    1  A    between atoms: C_13  and  N_1 
REMARK    2  A    between atoms: S_9  and  C_2 
REMARK    3  A    between atoms: C_10  and  C_7 
REMARK    4  A    between atoms: C_19  and  S_9 
REMARK    5  A    between atoms: O_23  and  C_10 
REMARK    6  A    between atoms: C_14  and  C_19 
ROOT
ATOM      1  N   UNL d   1      31.333  17.241 -23.818  0.00  0.00    -0.254 N 
ATOM      2  C   UNL d   1      32.077  17.564 -23.965  0.00  0.00     0.182 A 
ATOM      3  C   UNL d   1      31.263  16.561 -23.356  0.00  0.00     0.274 A 
ATOM      4  C   UNL d   1      31.934  16.206 -23.045  0.00  0.00     0.104 A 
ATOM      5  N   UNL d   1      32.751  17.206 -23.651  0.00  0.00    -0.222 NA
ATOM      6  C   UNL d   1      32.679  16.529 -23.192  0.00  0.00     0.095 A 
ATOM      7  S   UNL d   1      32.038  15.539 -22.575  0.00  0.00    -0.080 SA
ATOM      8  O   UNL d   1      30.518  16.238 -23.208  0.00  0.00    -0.266 OA
ATOM      9  C   UNL d   1      33.241  16.061 -22.813  0.00  0.00     0.027 A 
ATOM     10  C   UNL d   1      32.849  15.453 -22.434  0.00  0.00     0.037 A 
ENDROOT
BRANCH   2  11
ATOM     11  S   UNL d   1      32.154  18.251 -24.431  0.00  0.00    -0.047 SA
BRANCH  11  12
ATOM     12  C   UNL d   1      32.896  18.595 -24.532  0.00  0.00     0.063 C 
BRANCH  12  13
ATOM     13  C   UNL d   1      32.991  19.409 -24.435  0.00  0.00     0.107 A 
ATOM     14  O   UNL d   1      32.947  19.897 -23.766  0.00  0.00    -0.301 OA
ATOM     15  C   UNL d   1      33.092  20.667 -24.007  0.00  0.00     0.163 A 
ATOM     16  C   UNL d   1      33.227  20.664 -24.824  0.00  0.00     0.032 A 
ATOM     17  C   UNL d   1      33.164  19.884 -25.085  0.00  0.00     0.027 A 
BRANCH  15  18
ATOM     18  C   UNL d   1      33.103  21.339 -23.526  0.00  0.00     0.319 C 
ATOM     19  O   UNL d   1      33.215  22.087 -23.851  0.00  0.00    -0.257 OA
BRANCH  18  20
ATOM     20  O   UNL d   1      33.001  21.253 -22.712  0.00  0.00    -0.294 OA
ATOM     21  C   UNL d   1      33.165  21.885 -22.207  0.00  0.00     0.185 C 
ENDBRANCH  18  20
ENDBRANCH  15  18
ENDBRANCH  12  13
ENDBRANCH  11  12
ENDBRANCH   2  11
BRANCH   1  22
ATOM     22  C   UNL d   1      30.663  17.592 -24.126  0.00  0.00     0.069 A 
ATOM     23  C   UNL d   1      30.288  17.265 -24.785  0.00  0.00     0.018 A 
ATOM     24  C   UNL d   1      29.611  17.623 -25.093  0.00  0.00     0.002 A 
ATOM     25  C   UNL d   1      29.310  18.307 -24.744  0.00  0.00     0.000 A 
ATOM     26  C   UNL d   1      29.685  18.633 -24.086  0.00  0.00     0.002 A 
ATOM     27  C   UNL d   1      28.625  18.674 -25.052  0.00  0.00     0.000 C 
ATOM     28  C   UNL d   1      30.361  18.276 -23.777  0.00  0.00     0.018 A 
ENDBRANCH   1  22
TORSDOF 6
ENDMDL
MODEL 2
REMARK VINA RESULT:       2.6      2.511      5.260
REMARK  6 active torsions:
REMARK  status: ('A' for Active; 'I' for Inactive)
REMARK    1  A    between atoms: C_13  and  N_1 
REMARK    2  A    between atoms: S_9  and  C_2 
REMARK    3  A    between atoms: C_10  and  C_7 
REMARK    4  A    between atoms: C_19  and  S_9 
REMARK    5  A    between atoms: O_23  and  C_10 
REMARK    6  A    between atoms: C_14  and  C_19 
ROOT
ATOM      1  N   UNL d   1      32.654  22.312 -22.091  0.00  0.00    -0.254 N 
ATOM      2  C   UNL d   1      32.833  21.515 -21.976  0.00  0.00     0.182 A 
ATOM      3  C   UNL d   1      32.398  22.773 -21.457  0.00  0.00     0.274 A 
ATOM      4  C   UNL d   1      32.322  22.438 -20.711  0.00  0.00     0.104 A 
ATOM      5  N   UNL d   1      32.757  21.180 -21.226  0.00  0.00    -0.222 NA
ATOM      6  C   UNL d   1      32.502  21.641 -20.596  0.00  0.00     0.095 A 
ATOM      7  S   UNL d   1      32.085  22.750 -19.988  0.00  0.00    -0.080 SA
ATOM      8  O   UNL d   1      32.218  23.570 -21.572  0.00  0.00    -0.266 OA
ATOM      9  C   UNL d   1      32.375  21.462 -19.802  0.00  0.00     0.027 A 
ATOM     10  C   UNL d   1      32.120  22.141 -19.428  0.00  0.00     0.037 A 
ENDROOT
BRANCH   2  11
ATOM     11  S   UNL d   1      33.092  21.046 -22.613  0.00  0.00    -0.047 SA
BRANCH  11  12
ATOM     12  C   UNL d   1      33.241  20.243 -22.495  0.00  0.00     0.063 C 
BRANCH  12  13
ATOM     13  C   UNL d   1      32.973  19.688 -23.044  0.00  0.00     0.107 A 
ATOM     14  O   UNL d   1      32.451  19.047 -22.977  0.00  0.00    -0.301 OA
ATOM     15  C   UNL d   1      32.395  18.691 -23.712  0.00  0.00     0.163 A 
ATOM     16  C   UNL d   1      32.880  19.103 -24.241  0.00  0.00     0.032 A 
ATOM     17  C   UNL d   1      33.236  19.720 -23.825  0.00  0.00     0.027 A 
BRANCH  15  18
ATOM     18  C   UNL d   1      31.936  18.030 -23.904  0.00  0.00     0.319 C 
ATOM     19  O   UNL d   1      32.269  17.277 -23.920  0.00  0.00    -0.257 OA
BRANCH  18  20
ATOM     20  O   UNL d   1      31.137  18.132 -24.080  0.00  0.00    -0.294 OA
ATOM     21  C   UNL d   1      30.754  17.600 -24.582  0.00  0.00     0.185 C 
ENDBRANCH  18  20
ENDBRANCH  15  18
ENDBRANCH  12  13
ENDBRANCH  11  12
ENDBRANCH   2  11
BRANCH   1  22
ATOM     22  C   UNL d   1      32.728  22.648 -22.832  0.00  0.00     0.069 A 
ATOM     23  C   UNL d   1      33.168  23.339 -22.933  0.00  0.00     0.018 A 
ATOM     24  C   UNL d   1      33.241  23.675 -23.684  0.00  0.00     0.002 A 
ATOM     25  C   UNL d   1      32.874  23.321 -24.332  0.00  0.00     0.000 A 
ATOM     26  C   UNL d   1      32.434  22.631 -24.230  0.00  0.00     0.002 A 
ATOM     27  C   UNL d   1      32.943  23.657 -25.095  0.00  0.00     0.000 C 
ATOM     28  C   UNL d   1      32.361  22.295 -23.481  0.00  0.00     0.018 A 
ENDBRANCH   1  22
TORSDOF 6
ENDMDL
MODEL 3
REMARK VINA RESULT:       4.5      1.997      3.208
REMARK  6 active torsions:
REMARK  status: ('A' for Active; 'I' for Inactive)
REMARK    1  A    between atoms: C_13  and  N_1 
REMARK    2  A    between atoms: S_9  and  C_2 
REMARK    3  A    between atoms: C_10  and  C_7 
REMARK    4  A    between atoms: C_19  and  S_9 
REMARK    5  A    between atoms: O_23  and  C_10 
REMARK    6  A    between atoms: C_14  and  C_19 
ROOT
ATOM      1  N   UNL d   1      32.744  19.116 -23.457  0.00  0.00    -0.254 N 
ATOM      2  C   UNL d   1      33.046  19.052 -22.692  0.00  0.00     0.182 A 
ATOM      3  C   UNL d   1      32.554  18.436 -23.883  0.00  0.00     0.274 A 
ATOM      4  C   UNL d   1      32.666  17.696 -23.545  0.00  0.00     0.104 A 
ATOM      5  N   UNL d   1      33.158  18.307 -22.354  0.00  0.00    -0.222 NA
ATOM      6  C   UNL d   1      32.968  17.632 -22.780  0.00  0.00     0.095 A 
ATOM      7  S   UNL d   1      32.531  16.935 -23.828  0.00  0.00    -0.080 SA
ATOM      8  O   UNL d   1      32.252  18.500 -24.648  0.00  0.00    -0.266 OA
ATOM      9  C   UNL d   1      33.019  16.831 -22.591  0.00  0.00     0.027 A 
ATOM     10  C   UNL d   1      32.751  16.403 -23.233  0.00  0.00     0.037 A 
ENDROOT
BRANCH   2  11
ATOM     11  S   UNL d   1      33.240  19.735 -22.256  0.00  0.00    -0.047 SA
BRANCH  11  12
ATOM     12  C   UNL d   1      33.220  19.714 -21.433  0.00  0.00     0.063 C 
BRANCH  12  13
ATOM     13  C   UNL d   1      33.070  20.403 -21.005  0.00  0.00     0.107 A 
ATOM     14  O   UNL d   1      32.857  21.169 -21.242  0.00  0.00    -0.301 OA
ATOM     15  C   UNL d   1      32.782  21.629 -20.568  0.00  0.00     0.163 A 
ATOM     16  C   UNL d   1      32.947  21.156 -19.909  0.00  0.00     0.032 A 
ATOM     17  C   UNL d   1      33.125  20.399 -20.182  0.00  0.00     0.027 A 
BRANCH  15  18
ATOM     18  C   UNL d   1      32.577  22.429 -20.540  0.00  0.00     0.319 C 
ATOM     19  O   UNL d   1      31.804  22.671 -20.694  0.00  0.00    -0.257 OA
BRANCH  18  20
ATOM     20  O   UNL d   1      33.155  22.987 -20.355  0.00  0.00    -0.294 OA
ATOM     21  C   UNL d   1      33.186  23.701 -20.768  0.00  0.00     0.185 C 
ENDBRANCH  18  20
ENDBRANCH  15  18
ENDBRANCH  12  13
ENDBRANCH  11  12
ENDBRANCH   2  11
BRANCH   1  22
ATOM     22  C   UNL d   1      32.632  19.851 -23.795  0.00  0.00     0.069 A 
ATOM     23  C   UNL d   1      33.240  20.210 -24.222  0.00  0.00     0.018 A 
ATOM     24  C   UNL d   1      33.122  20.952 -24.562  0.00  0.00     0.002 A 
ATOM     25  C   UNL d   1      32.398  21.336 -24.475  0.00  0.00     0.000 A 
ATOM     26  C   UNL d   1      31.790  20.977 -24.048  0.00  0.00     0.002 A 
ATOM     27  C   UNL d   1      32.272  22.088 -24.818  0.00  0.00     0.000 C 
ATOM     28  C   UNL d   1      31.907  20.235 -23.709  0.00  0.00     0.018 A 
ENDBRANCH   1  22
TORSDOF 6
ENDMDL
