MODEL 1
REMARK VINA RESULT:      24.2      0.000      0.000
REMARK  5 active torsions:
REMARK  status: ('A' for Active; 'I' for Inactive)
REMARK    1  A    between atoms: C_2  and  S_1 
REMARK    2  A    between atoms: N_5  and  S_1 
REMARK    3  A    between atoms: O_18  and  C_4 
REMARK    4  A    between atoms: C_13  and  N_5 
REMARK    5  A    between atoms: C_11  and  C_13 
ROOT
ATOM      1  C   UNL d   1     -57.381 -98.763 -44.170  0.00  0.00     0.128 A 
ATOM      2  C   UNL d   1     -57.712 -98.765 -43.414  0.00  0.00     0.026 A 
ATOM      3  C   UNL d   1     -57.871 -98.758 -44.833  0.00  0.00     0.106 A 
ATOM      4  C   UNL d   1     -58.534 -98.763 -43.322  0.00  0.00     0.059 A 
ATOM      5  C   UNL d   1     -58.693 -98.756 -44.741  0.00  0.00     0.026 A 
ATOM      6  C   UNL d   1     -59.024 -98.758 -43.985  0.00  0.00     0.013 A 
ATOM      7 CL   UNL d   1     -58.865 -98.766 -42.566  0.00  0.00    -0.082 Cl
ATOM      8  C   UNL d   1     -59.846 -98.756 -43.893  0.00  0.00     0.001 C 
ENDROOT
BRANCH   1   9
ATOM      9  S   UNL d   1     -56.559 -98.765 -44.262  0.00  0.00     0.287 S 
ATOM     10  O   UNL d   1     -56.467 -98.772 -43.440  0.00  0.00    -0.198 OA
ATOM     11  O   UNL d   1     -56.651 -98.758 -45.083  0.00  0.00    -0.198 OA
BRANCH   9  12
ATOM     12  N   UNL d   1     -55.738 -98.767 -44.354  0.00  0.00    -0.155 NA
BRANCH  12  13
ATOM     13  C   UNL d   1     -55.376 -99.345 -44.818  0.00  0.00     0.137 C 
BRANCH  13  14
ATOM     14  C   UNL d   1     -55.162-100.070 -44.484  0.00  0.00     0.120 A 
ATOM     15  O   UNL d   1     -55.230-100.813 -44.843  0.00  0.00    -0.304 OA
ATOM     16  C   UNL d   1     -54.954-101.378 -44.314  0.00  0.00     0.123 A 
ATOM     17  C   UNL d   1     -54.712-100.989 -43.626  0.00  0.00     0.029 A 
ATOM     18  C   UNL d   1     -54.841-100.186 -43.733  0.00  0.00     0.028 A 
ENDBRANCH  13  14
ENDBRANCH  12  13
ENDBRANCH   9  12
ENDBRANCH   1   9
BRANCH   3  19
ATOM     19  O   UNL d   1     -57.541 -98.755 -45.593  0.00  0.00    -0.327 OA
ATOM     20  C   UNL d   1     -58.028 -98.823 -46.255  0.00  0.00     0.181 C 
ENDBRANCH   3  19
TORSDOF 5
ENDMDL
