MODEL 1
REMARK VINA RESULT:      35.6      0.000      0.000
REMARK  6 active torsions:
REMARK  status: ('A' for Active; 'I' for Inactive)
REMARK    1  A    between atoms: C_2  and  N_10 
REMARK    2  A    between atoms: N_8  and  C_2 
REMARK    3  A    between atoms: C_4  and  N_8 
REMARK    4  A    between atoms: N_10  and  C_16 
REMARK    5  A    between atoms: C_22  and  C_13 
REMARK    6  A    between atoms: C_16  and  C_15 
ROOT
ATOM      1  C   UNL d   1      13.030  12.514  -3.579  0.00  0.00     0.221 C 
ATOM      2  S   UNL d   1      13.190  11.779  -3.918  0.00  0.00    -0.037 SA
ENDROOT
BRANCH   1   3
ATOM      3  N   UNL d   1      12.982  12.588  -2.757  0.00  0.00    -0.216 NA
BRANCH   3   4
ATOM      4  C   UNL d   1      13.375  12.047  -2.265  0.00  0.00     0.101 C 
BRANCH   4   5
ATOM      5  C   UNL d   1      13.937  12.320  -1.722  0.00  0.00     0.019 A 
ATOM      6  C   UNL d   1      14.351  11.789  -1.244  0.00  0.00     0.003 A 
ATOM      7  C   UNL d   1      14.910  12.069  -0.704  0.00  0.00     0.019 A 
ATOM      8  C   UNL d   1      15.052  12.875  -0.644  0.00  0.00     0.081 A 
ATOM      9  C   UNL d   1      14.638  13.406  -1.122  0.00  0.00     0.019 A 
ATOM     10  N   UNL d   1      15.567  13.311  -0.166  0.00  0.00    -0.246 NA
ATOM     11  C   UNL d   1      14.082  13.131  -1.658  0.00  0.00     0.003 A 
ATOM     12  C   UNL d   1      14.900  14.167  -0.935  0.00  0.00     0.021 A 
ATOM     13  C   UNL d   1      15.464  14.110  -0.354  0.00  0.00     0.082 A 
ATOM     14  C   UNL d   1      15.864  14.748  -0.014  0.00  0.00     0.021 C 
ENDBRANCH   4   5
ENDBRANCH   3   4
ENDBRANCH   1   3
BRANCH   1  15
ATOM     15  N   UNL d   1      12.917  13.174  -4.059  0.00  0.00    -0.217 NA
BRANCH  15  16
ATOM     16  C   UNL d   1      13.237  13.189  -4.817  0.00  0.00     0.084 A 
ATOM     17  C   UNL d   1      13.215  12.512  -5.288  0.00  0.00     0.018 A 
ATOM     18  C   UNL d   1      13.536  12.527  -6.047  0.00  0.00     0.002 A 
ATOM     19  C   UNL d   1      12.872  11.815  -5.001  0.00  0.00     0.002 C 
ATOM     20  C   UNL d   1      13.882  13.223  -6.340  0.00  0.00     0.000 A 
ATOM     21  C   UNL d   1      13.904  13.900  -5.869  0.00  0.00     0.002 A 
ATOM     22  C   UNL d   1      13.580  13.880  -5.105  0.00  0.00     0.018 A 
BRANCH  22  23
ATOM     23  C   UNL d   1      13.601  14.557  -4.634  0.00  0.00     0.002 C 
ATOM     24  C   UNL d   1      13.996  15.226  -4.889  0.00  0.00     0.000 C 
ENDBRANCH  22  23
ENDBRANCH  15  16
ENDBRANCH   1  15
TORSDOF 6
ENDMDL
