MODEL 1
REMARK VINA RESULT:      10.3      0.000      0.000
REMARK  6 active torsions:
REMARK  status: ('A' for Active; 'I' for Inactive)
REMARK       I    between atoms: C_3  and  N_1 
REMARK    1  A    between atoms: C_8  and  C_3 
REMARK    2  A    between atoms: S_4  and  N_9 
REMARK    3  A    between atoms: C_24  and  S_4 
REMARK    4  A    between atoms: C_10  and  C_5 
REMARK    5  A    between atoms: C_11  and  C_6 
REMARK    6  A    between atoms: N_9  and  C_23 
ROOT
ATOM      1  N   UNL d   1     -42.873-122.468 -50.029  0.00  0.00    -0.193 N 
ATOM      2  N   UNL d   1     -42.887-122.392 -50.867  0.00  0.00    -0.163 NA
ATOM      3  C   UNL d   1     -43.488-122.267 -49.518  0.00  0.00     0.303 C 
ATOM      4  C   UNL d   1     -42.163-122.769 -49.806  0.00  0.00     0.088 A 
ATOM      5  C   UNL d   1     -42.161-122.657 -51.145  0.00  0.00     0.103 A 
ATOM      6  C   UNL d   1     -41.702-122.894 -50.493  0.00  0.00     0.040 A 
ATOM      7  O   UNL d   1     -43.400-122.370 -48.710  0.00  0.00    -0.263 OA
ENDROOT
BRANCH   5   8
ATOM      8  C   UNL d   1     -41.903-122.694 -51.922  0.00  0.00     0.019 A 
ATOM      9  C   UNL d   1     -41.867-123.429 -52.302  0.00  0.00     0.003 A 
ATOM     10  C   UNL d   1     -41.611-123.473 -53.074  0.00  0.00     0.020 A 
ATOM     11  C   UNL d   1     -41.387-122.788 -53.479  0.00  0.00     0.094 A 
ATOM     12  C   UNL d   1     -41.423-122.056 -53.100  0.00  0.00     0.020 A 
ATOM     13  C   UNL d   1     -41.681-122.009 -52.320  0.00  0.00     0.003 A 
BRANCH  11  14
ATOM     14  N   UNL d   1     -41.125-122.821 -54.267  0.00  0.00    -0.158 NA
BRANCH  14  15
ATOM     15  S   UNL d   1     -41.650-123.000 -54.862  0.00  0.00     0.286 S 
ATOM     16  O   UNL d   1     -41.447-123.804 -54.804  0.00  0.00    -0.198 OA
ATOM     17  O   UNL d   1     -42.194-123.175 -55.477  0.00  0.00    -0.198 OA
BRANCH  15  18
ATOM     18  C   UNL d   1     -41.855-122.195 -54.923  0.00  0.00     0.117 C 
ATOM     19  C   UNL d   1     -42.168-121.897 -55.618  0.00  0.00     0.014 C 
ENDBRANCH  15  18
ENDBRANCH  14  15
ENDBRANCH  11  14
ENDBRANCH   5   8
BRANCH   4  20
ATOM     20  C   UNL d   1     -41.903-122.935 -49.059  0.00  0.00     0.018 A 
ATOM     21  C   UNL d   1     -41.394-122.421 -48.661  0.00  0.00     0.002 A 
ATOM     22  C   UNL d   1     -41.127-122.591 -47.893  0.00  0.00     0.000 A 
ATOM     23  C   UNL d   1     -41.380-123.293 -47.523  0.00  0.00     0.000 A 
ATOM     24  C   UNL d   1     -41.891-123.811 -47.921  0.00  0.00     0.000 A 
ATOM     25  C   UNL d   1     -41.123-123.475 -46.762  0.00  0.00     0.000 C 
ATOM     26  C   UNL d   1     -42.152-123.635 -48.683  0.00  0.00     0.002 A 
ENDBRANCH   4  20
BRANCH   3  27
ATOM     27  C   UNL d   1     -44.190-121.962 -49.827  0.00  0.00     0.158 A 
ATOM     28  O   UNL d   1     -44.756-122.396 -50.242  0.00  0.00    -0.300 OA
ATOM     29  C   UNL d   1     -45.363-121.881 -50.447  0.00  0.00     0.123 A 
ATOM     30  C   UNL d   1     -45.171-121.129 -50.158  0.00  0.00     0.029 A 
ATOM     31  C   UNL d   1     -44.446-121.186 -49.777  0.00  0.00     0.032 A 
ENDBRANCH   3  27
TORSDOF 6
ENDMDL
