MODEL 1
REMARK VINA RESULT:      40.8      0.000      0.000
REMARK  4 active torsions:
REMARK  status: ('A' for Active; 'I' for Inactive)
REMARK    1  A    between atoms: C_9  and  C_3 
REMARK    2  A    between atoms: C_11  and  C_7 
REMARK    3  A    between atoms: O_22  and  C_16 
REMARK    4  A    between atoms: O_23  and  C_17 
ROOT
ATOM      1  N   UNL d   1      14.646  13.046  -1.127  0.00  0.00    -0.186 N 
ATOM      2  N   UNL d   1      14.650  13.793  -1.496  0.00  0.00    -0.162 NA
ATOM      3  C   UNL d   1      14.357  12.322  -1.357  0.00  0.00     0.187 A 
ATOM      4  C   UNL d   1      14.985  12.957  -0.382  0.00  0.00     0.217 A 
ATOM      5  N   UNL d   1      14.508  11.779  -0.770  0.00  0.00    -0.127 NA
ATOM      6  N   UNL d   1      14.894  12.164  -0.169  0.00  0.00    -0.120 NA
ATOM      7  C   UNL d   1      14.992  14.436  -1.116  0.00  0.00     0.108 A 
ATOM      8  S   UNL d   1      15.323  13.610  -0.015  0.00  0.00    -0.045 SA
ATOM      9  C   UNL d   1      15.334  14.353  -0.368  0.00  0.00     0.059 A 
ENDROOT
BRANCH   3  10
ATOM     10  C   UNL d   1      13.974  12.188  -2.079  0.00  0.00     0.038 A 
ATOM     11  C   UNL d   1      14.370  12.327  -2.776  0.00  0.00     0.005 A 
ATOM     12  C   UNL d   1      13.987  12.193  -3.498  0.00  0.00     0.024 A 
ATOM     13  C   UNL d   1      13.208  11.921  -3.498  0.00  0.00     0.094 A 
ATOM     14  C   UNL d   1      12.811  11.782  -2.796  0.00  0.00     0.024 A 
ATOM     15  C   UNL d   1      13.196  11.916  -2.083  0.00  0.00     0.005 A 
BRANCH  13  16
ATOM     16  O   UNL d   1      12.804  11.779  -4.213  0.00  0.00    -0.328 OA
ATOM     17  C   UNL d   1      12.805  12.359  -4.822  0.00  0.00     0.181 C 
ENDBRANCH  13  16
ENDBRANCH   3  10
BRANCH   7  18
ATOM     18  C   UNL d   1      14.994  15.172  -1.483  0.00  0.00     0.020 A 
ATOM     19  C   UNL d   1      14.662  15.263  -2.234  0.00  0.00     0.004 A 
ATOM     20  C   UNL d   1      14.658  15.996  -2.613  0.00  0.00     0.024 A 
ATOM     21  C   UNL d   1      14.997  16.657  -2.228  0.00  0.00     0.094 A 
ATOM     22  C   UNL d   1      15.324  16.575  -1.492  0.00  0.00     0.024 A 
ATOM     23  C   UNL d   1      15.326  15.830  -1.110  0.00  0.00     0.004 A 
BRANCH  21  24
ATOM     24  O   UNL d   1      14.994  17.393  -2.607  0.00  0.00    -0.328 OA
ATOM     25  C   UNL d   1      14.791  17.443  -3.412  0.00  0.00     0.181 C 
ENDBRANCH  21  24
ENDBRANCH   7  18
TORSDOF 4
ENDMDL
