MODEL 1
REMARK VINA RESULT:      39.1      0.000      0.000
REMARK  4 active torsions:
REMARK  status: ('A' for Active; 'I' for Inactive)
REMARK    1  A    between atoms: C_7  and  C_2 
REMARK    2  A    between atoms: C_6  and  C_3 
REMARK    3  A    between atoms: C_9  and  C_6 
REMARK    4  A    between atoms: O_15  and  C_10 
ROOT
ATOM      1  N   UNL d   1      58.298  49.697  51.566  0.00  0.00    -0.201 NA
ATOM      2  C   UNL d   1      58.190  49.698  50.751  0.00  0.00     0.114 A 
ATOM      3  C   UNL d   1      59.491  49.702  51.012  0.00  0.00     0.089 A 
ATOM      4  C   UNL d   1      59.091  49.699  51.734  0.00  0.00     0.286 A 
ATOM      5  S   UNL d   1      58.949  49.701  50.403  0.00  0.00    -0.063 SA
ATOM      6  O   UNL d   1      59.428  49.699  52.487  0.00  0.00    -0.265 OA
ENDROOT
BRANCH   3   7
ATOM      7  C   UNL d   1      60.306  49.706  50.904  0.00  0.00     0.011 C 
BRANCH   7   8
ATOM      8  C   UNL d   1      60.724  49.035  50.661  0.00  0.00     0.001 A 
ATOM      9  C   UNL d   1      61.177  49.025  49.993  0.00  0.00     0.002 A 
ATOM     10  C   UNL d   1      61.578  48.347  49.779  0.00  0.00     0.024 A 
ATOM     11  C   UNL d   1      61.539  47.678  50.213  0.00  0.00     0.094 A 
ATOM     12  C   UNL d   1      61.079  47.674  50.900  0.00  0.00     0.024 A 
ATOM     13  C   UNL d   1      60.667  48.348  51.132  0.00  0.00     0.002 A 
BRANCH  11  14
ATOM     14  O   UNL d   1      61.951  46.995  49.986  0.00  0.00    -0.328 OA
ATOM     15  C   UNL d   1      61.620  46.256  50.100  0.00  0.00     0.181 C 
ENDBRANCH  11  14
ENDBRANCH   7   8
ENDBRANCH   3   7
BRANCH   2  16
ATOM     16  C   UNL d   1      57.468  49.695  50.351  0.00  0.00     0.024 A 
ATOM     17  C   UNL d   1      56.769  49.691  50.781  0.00  0.00     0.002 A 
ATOM     18  C   UNL d   1      56.047  49.688  50.380  0.00  0.00     0.000 A 
ATOM     19  C   UNL d   1      56.033  49.691  49.555  0.00  0.00     0.000 A 
ATOM     20  C   UNL d   1      56.741  49.696  49.130  0.00  0.00     0.000 A 
ATOM     21  C   UNL d   1      57.463  49.698  49.530  0.00  0.00     0.002 A 
ENDBRANCH   2  16
TORSDOF 4
ENDMDL
