MODEL 1
REMARK VINA RESULT:     -11.2      0.000      0.000
REMARK  2 active torsions:
REMARK  status: ('A' for Active; 'I' for Inactive)
REMARK    1  A    between atoms: C_10  and  C_5 
REMARK    2  A    between atoms: O_22  and  C_15 
ROOT
ATOM      1  C   UNL d   1      53.478  34.237  54.490  0.00  0.00     0.120 A 
ATOM      2  C   UNL d   1      52.875  34.393  53.949  0.00  0.00     0.058 A 
ATOM      3  N   UNL d   1      53.647  34.941  54.885  0.00  0.00    -0.195 NA
ATOM      4  S   UNL d   1      53.793  33.484  54.552  0.00  0.00    -0.072 SA
ATOM      5  C   UNL d   1      52.589  33.794  53.473  0.00  0.00     0.005 A 
ATOM      6  C   UNL d   1      53.506  32.884  54.076  0.00  0.00     0.009 A 
ATOM      7  C   UNL d   1      52.902  33.036  53.532  0.00  0.00    -0.015 A 
ATOM      8  C   UNL d   1      53.149  35.533  54.589  0.00  0.00     0.311 A 
ATOM      9  S   UNL d   1      52.669  35.186  54.005  0.00  0.00    -0.024 SA
ATOM     10  C   UNL d   1      52.614  32.429  53.052  0.00  0.00     0.045 A 
ATOM     11  C   UNL d   1      53.822  32.125  54.138  0.00  0.00     0.050 A 
ATOM     12  C   UNL d   1      53.242  32.504  53.693  0.00  0.00     0.018 A 
ATOM     13  O   UNL d   1      53.126  36.327  54.825  0.00  0.00    -0.258 OA
ATOM     14  C   UNL d   1      52.930  31.670  53.115  0.00  0.00    -0.026 A 
ATOM     15  C   UNL d   1      53.534  31.518  53.658  0.00  0.00    -0.026 A 
ENDROOT
BRANCH   5  16
ATOM     16  C   UNL d   1      51.992  33.946  52.936  0.00  0.00     0.002 A 
ATOM     17  C   UNL d   1      51.210  33.940  53.178  0.00  0.00     0.028 A 
ATOM     18  C   UNL d   1      50.608  34.092  52.640  0.00  0.00     0.133 A 
ATOM     19  C   UNL d   1      50.789  34.253  51.848  0.00  0.00     0.218 A 
ATOM     20  C   UNL d   1      51.583  34.258  51.604  0.00  0.00     0.044 A 
ATOM     21  O   UNL d   1      50.188  34.406  51.305  0.00  0.00    -0.284 OA
ATOM     22  C   UNL d   1      52.182  34.106  52.143  0.00  0.00     0.003 A 
BRANCH  18  23
ATOM     23  O   UNL d   1      49.819  34.086  52.886  0.00  0.00    -0.325 OA
ATOM     24  C   UNL d   1      49.465  34.779  53.163  0.00  0.00     0.181 C 
ENDBRANCH  18  23
ENDBRANCH   5  16
TORSDOF 2
ENDMDL
MODEL 2
REMARK VINA RESULT:     -11.0      1.625      2.534
REMARK  2 active torsions:
REMARK  status: ('A' for Active; 'I' for Inactive)
REMARK    1  A    between atoms: C_10  and  C_5 
REMARK    2  A    between atoms: O_22  and  C_15 
ROOT
ATOM      1  C   UNL d   1      53.574  31.596  53.866  0.00  0.00     0.120 A 
ATOM      2  C   UNL d   1      53.028  32.033  53.428  0.00  0.00     0.058 A 
ATOM      3  N   UNL d   1      53.529  30.813  53.612  0.00  0.00    -0.195 NA
ATOM      4  S   UNL d   1      54.036  31.963  54.434  0.00  0.00    -0.072 SA
ATOM      5  C   UNL d   1      52.947  32.835  53.560  0.00  0.00     0.005 A 
ATOM      6  C   UNL d   1      53.955  32.766  54.566  0.00  0.00     0.009 A 
ATOM      7  C   UNL d   1      53.409  33.207  54.128  0.00  0.00    -0.015 A 
ATOM      8  C   UNL d   1      52.955  30.764  53.016  0.00  0.00     0.311 A 
ATOM      9  S   UNL d   1      52.645  31.528  52.905  0.00  0.00    -0.024 SA
ATOM     10  C   UNL d   1      53.329  34.018  54.263  0.00  0.00     0.045 A 
ATOM     11  C   UNL d   1      54.420  33.137  55.136  0.00  0.00     0.050 A 
ATOM     12  C   UNL d   1      53.835  33.354  54.600  0.00  0.00     0.018 A 
ATOM     13  O   UNL d   1      52.725  30.084  52.602  0.00  0.00    -0.258 OA
ATOM     14  C   UNL d   1      53.794  34.388  54.834  0.00  0.00    -0.026 A 
ATOM     15  C   UNL d   1      54.341  33.947  55.271  0.00  0.00    -0.026 A 
ENDROOT
BRANCH   5  16
ATOM     16  C   UNL d   1      52.407  33.270  53.127  0.00  0.00     0.002 A 
ATOM     17  C   UNL d   1      51.629  33.324  53.376  0.00  0.00     0.028 A 
ATOM     18  C   UNL d   1      51.084  33.761  52.942  0.00  0.00     0.133 A 
ATOM     19  C   UNL d   1      51.320  34.149  52.250  0.00  0.00     0.218 A 
ATOM     20  C   UNL d   1      52.110  34.093  51.999  0.00  0.00     0.044 A 
ATOM     21  O   UNL d   1      50.777  34.589  51.812  0.00  0.00    -0.284 OA
ATOM     22  C   UNL d   1      52.652  33.656  52.434  0.00  0.00     0.003 A 
BRANCH  18  23
ATOM     23  O   UNL d   1      50.300  33.814  53.195  0.00  0.00    -0.325 OA
ATOM     24  C   UNL d   1      50.041  34.483  53.606  0.00  0.00     0.181 C 
ENDBRANCH  18  23
ENDBRANCH   5  16
TORSDOF 2
ENDMDL
MODEL 3
REMARK VINA RESULT:     -10.9      1.808      3.568
REMARK  2 active torsions:
REMARK  status: ('A' for Active; 'I' for Inactive)
REMARK    1  A    between atoms: C_10  and  C_5 
REMARK    2  A    between atoms: O_22  and  C_15 
ROOT
ATOM      1  C   UNL d   1      52.006  32.628  52.911  0.00  0.00     0.120 A 
ATOM      2  C   UNL d   1      52.593  32.962  53.384  0.00  0.00     0.058 A 
ATOM      3  N   UNL d   1      51.495  33.234  52.683  0.00  0.00    -0.195 NA
ATOM      4  S   UNL d   1      52.012  31.825  52.749  0.00  0.00    -0.072 SA
ATOM      5  C   UNL d   1      53.184  32.490  53.694  0.00  0.00     0.005 A 
ATOM      6  C   UNL d   1      52.603  31.353  53.060  0.00  0.00     0.009 A 
ATOM      7  C   UNL d   1      53.193  31.684  53.535  0.00  0.00    -0.015 A 
ATOM      8  C   UNL d   1      51.765  33.943  53.015  0.00  0.00     0.311 A 
ATOM      9  S   UNL d   1      52.451  33.768  53.452  0.00  0.00    -0.024 SA
ATOM     10  C   UNL d   1      53.789  31.206  53.847  0.00  0.00     0.045 A 
ATOM     11  C   UNL d   1      52.610  30.545  52.898  0.00  0.00     0.050 A 
ATOM     12  C   UNL d   1      53.068  31.080  53.324  0.00  0.00     0.018 A 
ATOM     13  O   UNL d   1      51.422  34.693  52.933  0.00  0.00    -0.258 OA
ATOM     14  C   UNL d   1      53.796  30.398  53.685  0.00  0.00    -0.026 A 
ATOM     15  C   UNL d   1      53.206  30.067  53.210  0.00  0.00    -0.026 A 
ENDROOT
BRANCH   5  16
ATOM     16  C   UNL d   1      53.767  32.818  54.164  0.00  0.00     0.002 A 
ATOM     17  C   UNL d   1      54.466  33.078  53.829  0.00  0.00     0.028 A 
ATOM     18  C   UNL d   1      55.054  33.409  54.300  0.00  0.00     0.133 A 
ATOM     19  C   UNL d   1      54.941  33.480  55.117  0.00  0.00     0.218 A 
ATOM     20  C   UNL d   1      54.230  33.215  55.456  0.00  0.00     0.044 A 
ATOM     21  O   UNL d   1      55.527  33.810  55.593  0.00  0.00    -0.284 OA
ATOM     22  C   UNL d   1      53.645  32.886  54.983  0.00  0.00     0.003 A 
BRANCH  18  23
ATOM     23  O   UNL d   1      55.760  33.671  53.960  0.00  0.00    -0.325 OA
ATOM     24  C   UNL d   1      55.939  33.481  53.176  0.00  0.00     0.181 C 
ENDBRANCH  18  23
ENDBRANCH   5  16
TORSDOF 2
ENDMDL
MODEL 4
REMARK VINA RESULT:     -10.8      2.387      4.111
REMARK  2 active torsions:
REMARK  status: ('A' for Active; 'I' for Inactive)
REMARK    1  A    between atoms: C_10  and  C_5 
REMARK    2  A    between atoms: O_22  and  C_15 
ROOT
ATOM      1  C   UNL d   1      52.417  31.653  53.011  0.00  0.00     0.120 A 
ATOM      2  C   UNL d   1      53.031  31.923  53.490  0.00  0.00     0.058 A 
ATOM      3  N   UNL d   1      52.499  30.836  52.936  0.00  0.00    -0.195 NA
ATOM      4  S   UNL d   1      51.868  32.179  52.707  0.00  0.00    -0.072 SA
ATOM      5  C   UNL d   1      53.094  32.719  53.665  0.00  0.00     0.005 A 
ATOM      6  C   UNL d   1      51.930  32.976  52.882  0.00  0.00     0.009 A 
ATOM      7  C   UNL d   1      52.545  33.250  53.362  0.00  0.00    -0.015 A 
ATOM      8  C   UNL d   1      53.165  30.599  53.369  0.00  0.00     0.311 A 
ATOM      9  S   UNL d   1      53.493  31.281  53.713  0.00  0.00    -0.024 SA
ATOM     10  C   UNL d   1      52.606  34.055  53.537  0.00  0.00     0.045 A 
ATOM     11  C   UNL d   1      51.378  33.506  52.577  0.00  0.00     0.050 A 
ATOM     12  C   UNL d   1      52.046  33.539  53.056  0.00  0.00     0.018 A 
ATOM     13  O   UNL d   1      53.456  29.828  53.450  0.00  0.00    -0.258 OA
ATOM     14  C   UNL d   1      52.054  34.585  53.232  0.00  0.00    -0.026 A 
ATOM     15  C   UNL d   1      51.439  34.311  52.751  0.00  0.00    -0.026 A 
ENDROOT
BRANCH   5  16
ATOM     16  C   UNL d   1      53.702  32.989  54.139  0.00  0.00     0.002 A 
ATOM     17  C   UNL d   1      54.425  33.183  53.811  0.00  0.00     0.028 A 
ATOM     18  C   UNL d   1      55.038  33.455  54.286  0.00  0.00     0.133 A 
ATOM     19  C   UNL d   1      54.925  33.533  55.103  0.00  0.00     0.218 A 
ATOM     20  C   UNL d   1      54.190  33.336  55.436  0.00  0.00     0.044 A 
ATOM     21  O   UNL d   1      55.537  33.806  55.585  0.00  0.00    -0.284 OA
ATOM     22  C   UNL d   1      53.581  33.065  54.958  0.00  0.00     0.003 A 
BRANCH  18  23
ATOM     23  O   UNL d   1      55.768  33.650  53.953  0.00  0.00    -0.325 OA
ATOM     24  C   UNL d   1      55.935  33.443  53.171  0.00  0.00     0.181 C 
ENDBRANCH  18  23
ENDBRANCH   5  16
TORSDOF 2
ENDMDL
MODEL 5
REMARK VINA RESULT:     -10.3      1.906      3.240
REMARK  2 active torsions:
REMARK  status: ('A' for Active; 'I' for Inactive)
REMARK    1  A    between atoms: C_10  and  C_5 
REMARK    2  A    between atoms: O_22  and  C_15 
ROOT
ATOM      1  C   UNL d   1      53.604  34.188  54.544  0.00  0.00     0.120 A 
ATOM      2  C   UNL d   1      53.756  33.398  54.359  0.00  0.00     0.058 A 
ATOM      3  N   UNL d   1      54.168  34.428  55.094  0.00  0.00    -0.195 NA
ATOM      4  S   UNL d   1      52.978  34.582  54.191  0.00  0.00    -0.072 SA
ATOM      5  C   UNL d   1      53.281  33.006  53.822  0.00  0.00     0.005 A 
ATOM      6  C   UNL d   1      52.503  34.189  53.653  0.00  0.00     0.009 A 
ATOM      7  C   UNL d   1      52.652  33.397  53.466  0.00  0.00    -0.015 A 
ATOM      8  C   UNL d   1      54.670  33.789  55.251  0.00  0.00     0.311 A 
ATOM      9  S   UNL d   1      54.409  33.148  54.790  0.00  0.00    -0.024 SA
ATOM     10  C   UNL d   1      52.171  33.003  52.923  0.00  0.00     0.045 A 
ATOM     11  C   UNL d   1      51.873  34.584  53.298  0.00  0.00     0.050 A 
ATOM     12  C   UNL d   1      52.205  33.832  53.273  0.00  0.00     0.018 A 
ATOM     13  O   UNL d   1      55.316  33.779  55.770  0.00  0.00    -0.258 OA
ATOM     14  C   UNL d   1      51.542  33.399  52.567  0.00  0.00    -0.026 A 
ATOM     15  C   UNL d   1      51.392  34.190  52.755  0.00  0.00    -0.026 A 
ENDROOT
BRANCH   5  16
ATOM     16  C   UNL d   1      53.430  32.224  53.637  0.00  0.00     0.002 A 
ATOM     17  C   UNL d   1      53.020  31.627  54.017  0.00  0.00     0.028 A 
ATOM     18  C   UNL d   1      53.168  30.839  53.833  0.00  0.00     0.133 A 
ATOM     19  C   UNL d   1      53.734  30.646  53.260  0.00  0.00     0.218 A 
ATOM     20  C   UNL d   1      54.149  31.254  52.875  0.00  0.00     0.044 A 
ATOM     21  O   UNL d   1      53.885  29.858  53.072  0.00  0.00    -0.284 OA
ATOM     22  C   UNL d   1      53.999  32.039  53.061  0.00  0.00     0.003 A 
BRANCH  18  23
ATOM     23  O   UNL d   1      52.753  30.238  54.218  0.00  0.00    -0.325 OA
ATOM     24  C   UNL d   1      53.079  29.867  54.881  0.00  0.00     0.181 C 
ENDBRANCH  18  23
ENDBRANCH   5  16
TORSDOF 2
ENDMDL
MODEL 6
REMARK VINA RESULT:     -10.0      1.923      3.248
REMARK  2 active torsions:
REMARK  status: ('A' for Active; 'I' for Inactive)
REMARK    1  A    between atoms: C_10  and  C_5 
REMARK    2  A    between atoms: O_22  and  C_15 
ROOT
ATOM      1  C   UNL d   1      52.286  33.991  53.824  0.00  0.00     0.120 A 
ATOM      2  C   UNL d   1      52.322  33.212  53.556  0.00  0.00     0.058 A 
ATOM      3  N   UNL d   1      51.574  34.313  53.560  0.00  0.00    -0.195 NA
ATOM      4  S   UNL d   1      52.899  34.303  54.268  0.00  0.00    -0.072 SA
ATOM      5  C   UNL d   1      52.970  32.748  53.733  0.00  0.00     0.005 A 
ATOM      6  C   UNL d   1      53.548  33.839  54.446  0.00  0.00     0.009 A 
ATOM      7  C   UNL d   1      53.587  33.057  54.179  0.00  0.00    -0.015 A 
ATOM      8  C   UNL d   1      51.169  33.734  53.129  0.00  0.00     0.311 A 
ATOM      9  S   UNL d   1      51.639  33.048  53.129  0.00  0.00    -0.024 SA
ATOM     10  C   UNL d   1      54.244  32.591  54.360  0.00  0.00     0.045 A 
ATOM     11  C   UNL d   1      54.165  34.153  54.894  0.00  0.00     0.050 A 
ATOM     12  C   UNL d   1      53.985  33.436  54.532  0.00  0.00     0.018 A 
ATOM     13  O   UNL d   1      50.430  33.814  52.761  0.00  0.00    -0.258 OA
ATOM     14  C   UNL d   1      54.861  32.905  54.807  0.00  0.00    -0.026 A 
ATOM     15  C   UNL d   1      54.822  33.686  55.075  0.00  0.00    -0.026 A 
ENDROOT
BRANCH   5  16
ATOM     16  C   UNL d   1      53.008  31.975  53.469  0.00  0.00     0.002 A 
ATOM     17  C   UNL d   1      52.758  31.363  53.951  0.00  0.00     0.028 A 
ATOM     18  C   UNL d   1      52.795  30.586  53.687  0.00  0.00     0.133 A 
ATOM     19  C   UNL d   1      53.087  30.418  52.930  0.00  0.00     0.218 A 
ATOM     20  C   UNL d   1      53.340  31.040  52.442  0.00  0.00     0.044 A 
ATOM     21  O   UNL d   1      53.126  29.639  52.661  0.00  0.00    -0.284 OA
ATOM     22  C   UNL d   1      53.302  31.816  52.708  0.00  0.00     0.003 A 
BRANCH  18  23
ATOM     23  O   UNL d   1      52.542  29.969  54.174  0.00  0.00    -0.325 OA
ATOM     24  C   UNL d   1      53.084  29.571  54.655  0.00  0.00     0.181 C 
ENDBRANCH  18  23
ENDBRANCH   5  16
TORSDOF 2
ENDMDL
