MODEL 1
REMARK VINA RESULT:      -8.3      0.000      0.000
REMARK  3 active torsions:
REMARK  status: ('A' for Active; 'I' for Inactive)
REMARK    1  A    between atoms: N_6  and  C_1 
REMARK       I    between atoms: C_8  and  N_6 
REMARK       I    between atoms: C_11  and  N_7 
REMARK    2  A    between atoms: C_14  and  C_8 
REMARK    3  A    between atoms: O_23  and  C_20 
ROOT
ATOM      1  C   UNL d   1      52.063  33.504  53.221  0.00  0.00     0.124 A 
ATOM      2  C   UNL d   1      52.545  32.834  53.254  0.00  0.00     0.093 A 
ATOM      3  C   UNL d   1      53.124  33.783  53.984  0.00  0.00     0.049 A 
ATOM      4  C   UNL d   1      53.206  33.017  53.734  0.00  0.00     0.021 A 
ATOM      5  S   UNL d   1      52.422  34.098  53.676  0.00  0.00    -0.066 SA
ATOM      6  N   UNL d   1      54.363  33.679  54.707  0.00  0.00    -0.272 N 
ATOM      7  C   UNL d   1      53.713  34.130  54.483  0.00  0.00     0.089 A 
ATOM      8  C   UNL d   1      52.396  32.117  52.880  0.00  0.00     0.103 C 
ATOM      9  C   UNL d   1      54.947  34.007  55.195  0.00  0.00     0.265 C 
ATOM     10  N   UNL d   1      52.249  31.405  52.510  0.00  0.00    -0.191 NA
ATOM     11  C   UNL d   1      53.861  32.555  53.955  0.00  0.00     0.020 A 
ATOM     12  C   UNL d   1      54.437  32.895  54.444  0.00  0.00     0.083 A 
ATOM     13  O   UNL d   1      54.874  34.784  55.456  0.00  0.00    -0.267 OA
ATOM     14  C   UNL d   1      55.601  33.556  55.421  0.00  0.00     0.066 C 
ENDROOT
BRANCH   1  15
ATOM     15  N   UNL d   1      51.345  33.576  52.806  0.00  0.00    -0.201 NA
ATOM     16  C   UNL d   1      51.011  34.322  52.704  0.00  0.00     0.280 C 
ATOM     17  O   UNL d   1      51.373  34.996  53.002  0.00  0.00    -0.265 OA
BRANCH  16  18
ATOM     18  C   UNL d   1      50.301  34.393  52.294  0.00  0.00     0.058 A 
ATOM     19  C   UNL d   1      50.273  34.255  51.491  0.00  0.00     0.007 A 
ATOM     20  C   UNL d   1      49.556  34.327  51.078  0.00  0.00     0.024 A 
ATOM     21  C   UNL d   1      48.875  34.537  51.485  0.00  0.00     0.094 A 
ATOM     22  C   UNL d   1      48.898  34.677  52.294  0.00  0.00     0.024 A 
ATOM     23  C   UNL d   1      49.609  34.606  52.703  0.00  0.00     0.007 A 
BRANCH  21  24
ATOM     24  O   UNL d   1      48.153  34.609  51.068  0.00  0.00    -0.328 OA
ATOM     25  C   UNL d   1      47.668  35.276  51.173  0.00  0.00     0.181 C 
ENDBRANCH  21  24
ENDBRANCH  16  18
ENDBRANCH   1  15
TORSDOF 3
ENDMDL
MODEL 2
REMARK VINA RESULT:      -8.1      1.731      2.397
REMARK  3 active torsions:
REMARK  status: ('A' for Active; 'I' for Inactive)
REMARK    1  A    between atoms: N_6  and  C_1 
REMARK       I    between atoms: C_8  and  N_6 
REMARK       I    between atoms: C_11  and  N_7 
REMARK    2  A    between atoms: C_14  and  C_8 
REMARK    3  A    between atoms: O_23  and  C_20 
ROOT
ATOM      1  C   UNL d   1      51.440  33.937  53.049  0.00  0.00     0.124 A 
ATOM      2  C   UNL d   1      52.176  34.079  53.396  0.00  0.00     0.093 A 
ATOM      3  C   UNL d   1      52.122  32.788  53.083  0.00  0.00     0.049 A 
ATOM      4  C   UNL d   1      52.596  33.355  53.413  0.00  0.00     0.021 A 
ATOM      5  S   UNL d   1      51.404  33.131  52.853  0.00  0.00    -0.066 SA
ATOM      6  N   UNL d   1      53.148  31.804  53.301  0.00  0.00    -0.272 N 
ATOM      7  C   UNL d   1      52.398  31.990  53.022  0.00  0.00     0.089 A 
ATOM      8  C   UNL d   1      52.442  34.806  53.673  0.00  0.00     0.103 C 
ATOM      9  C   UNL d   1      53.431  31.027  53.248  0.00  0.00     0.265 C 
ATOM     10  N   UNL d   1      52.708  35.527  53.948  0.00  0.00    -0.191 NA
ATOM     11  C   UNL d   1      53.356  33.175  53.698  0.00  0.00     0.020 A 
ATOM     12  C   UNL d   1      53.626  32.395  53.638  0.00  0.00     0.083 A 
ATOM     13  O   UNL d   1      52.958  30.442  52.914  0.00  0.00    -0.267 OA
ATOM     14  C   UNL d   1      54.184  30.838  53.527  0.00  0.00     0.066 C 
ENDROOT
BRANCH   1  15
ATOM     15  N   UNL d   1      50.839  34.497  52.918  0.00  0.00    -0.201 NA
ATOM     16  C   UNL d   1      50.060  34.240  52.832  0.00  0.00     0.280 C 
ATOM     17  O   UNL d   1      49.866  33.444  52.873  0.00  0.00    -0.265 OA
BRANCH  16  18
ATOM     18  C   UNL d   1      49.466  34.795  52.702  0.00  0.00     0.058 A 
ATOM     19  C   UNL d   1      49.187  35.251  53.317  0.00  0.00     0.007 A 
ATOM     20  C   UNL d   1      48.587  35.811  53.186  0.00  0.00     0.024 A 
ATOM     21  C   UNL d   1      48.277  35.900  52.431  0.00  0.00     0.094 A 
ATOM     22  C   UNL d   1      48.555  35.442  51.808  0.00  0.00     0.024 A 
ATOM     23  C   UNL d   1      49.149  34.888  51.938  0.00  0.00     0.007 A 
BRANCH  21  24
ATOM     24  O   UNL d   1      47.673  36.463  52.299  0.00  0.00    -0.328 OA
ATOM     25  C   UNL d   1      46.881  36.224  52.215  0.00  0.00     0.181 C 
ENDBRANCH  21  24
ENDBRANCH  16  18
ENDBRANCH   1  15
TORSDOF 3
ENDMDL
MODEL 3
REMARK VINA RESULT:      -7.4      2.352      6.265
REMARK  3 active torsions:
REMARK  status: ('A' for Active; 'I' for Inactive)
REMARK    1  A    between atoms: N_6  and  C_1 
REMARK       I    between atoms: C_8  and  N_6 
REMARK       I    between atoms: C_11  and  N_7 
REMARK    2  A    between atoms: C_14  and  C_8 
REMARK    3  A    between atoms: O_23  and  C_20 
ROOT
ATOM      1  C   UNL d   1      48.719  35.390  52.725  0.00  0.00     0.124 A 
ATOM      2  C   UNL d   1      48.282  35.941  53.157  0.00  0.00     0.093 A 
ATOM      3  C   UNL d   1      47.533  35.550  52.130  0.00  0.00     0.049 A 
ATOM      4  C   UNL d   1      47.541  36.036  52.778  0.00  0.00     0.021 A 
ATOM      5  S   UNL d   1      48.253  35.144  52.083  0.00  0.00    -0.066 SA
ATOM      6  N   UNL d   1      46.202  35.995  51.814  0.00  0.00    -0.272 N 
ATOM      7  C   UNL d   1      46.850  35.524  51.631  0.00  0.00     0.089 A 
ATOM      8  C   UNL d   1      48.534  36.326  53.838  0.00  0.00     0.103 C 
ATOM      9  C   UNL d   1      45.527  35.979  51.333  0.00  0.00     0.265 C 
ATOM     10  N   UNL d   1      48.784  36.708  54.515  0.00  0.00    -0.191 NA
ATOM     11  C   UNL d   1      46.890  36.515  52.970  0.00  0.00     0.020 A 
ATOM     12  C   UNL d   1      46.222  36.490  52.482  0.00  0.00     0.083 A 
ATOM     13  O   UNL d   1      45.508  35.490  50.672  0.00  0.00    -0.267 OA
ATOM     14  C   UNL d   1      44.876  36.452  51.515  0.00  0.00     0.066 C 
ENDROOT
BRANCH   1  15
ATOM     15  N   UNL d   1      49.488  35.125  52.898  0.00  0.00    -0.201 NA
ATOM     16  C   UNL d   1      49.793  34.477  52.490  0.00  0.00     0.280 C 
ATOM     17  O   UNL d   1      49.353  34.089  51.916  0.00  0.00    -0.265 OA
BRANCH  16  18
ATOM     18  C   UNL d   1      50.554  34.215  52.661  0.00  0.00     0.058 A 
ATOM     19  C   UNL d   1      51.186  34.462  52.209  0.00  0.00     0.007 A 
ATOM     20  C   UNL d   1      51.955  34.197  52.382  0.00  0.00     0.024 A 
ATOM     21  C   UNL d   1      52.072  33.685  53.013  0.00  0.00     0.094 A 
ATOM     22  C   UNL d   1      51.439  33.434  53.471  0.00  0.00     0.024 A 
ATOM     23  C   UNL d   1      50.677  33.696  53.299  0.00  0.00     0.007 A 
BRANCH  21  24
ATOM     24  O   UNL d   1      52.846  33.419  53.187  0.00  0.00    -0.328 OA
ATOM     25  C   UNL d   1      53.021  32.607  53.202  0.00  0.00     0.181 C 
ENDBRANCH  21  24
ENDBRANCH  16  18
ENDBRANCH   1  15
TORSDOF 3
ENDMDL
MODEL 4
REMARK VINA RESULT:      -6.5     10.417     11.181
REMARK  3 active torsions:
REMARK  status: ('A' for Active; 'I' for Inactive)
REMARK    1  A    between atoms: N_6  and  C_1 
REMARK       I    between atoms: C_8  and  N_6 
REMARK       I    between atoms: C_11  and  N_7 
REMARK    2  A    between atoms: C_14  and  C_8 
REMARK    3  A    between atoms: O_23  and  C_20 
ROOT
ATOM      1  C   UNL d   1      44.624  29.193  59.087  0.00  0.00     0.124 A 
ATOM      2  C   UNL d   1      44.674  30.018  59.061  0.00  0.00     0.093 A 
ATOM      3  C   UNL d   1      44.531  29.663  60.335  0.00  0.00     0.049 A 
ATOM      4  C   UNL d   1      44.615  30.304  59.846  0.00  0.00     0.021 A 
ATOM      5  S   UNL d   1      44.534  28.970  59.882  0.00  0.00    -0.066 SA
ATOM      6  N   UNL d   1      44.472  30.541  61.473  0.00  0.00    -0.272 N 
ATOM      7  C   UNL d   1      44.457  29.777  61.170  0.00  0.00     0.089 A 
ATOM      8  C   UNL d   1      44.766  30.471  58.382  0.00  0.00     0.103 C 
ATOM      9  C   UNL d   1      44.400  30.667  62.289  0.00  0.00     0.265 C 
ATOM     10  N   UNL d   1      44.858  30.922  57.708  0.00  0.00    -0.191 NA
ATOM     11  C   UNL d   1      44.631  31.079  60.144  0.00  0.00     0.020 A 
ATOM     12  C   UNL d   1      44.559  31.190  60.961  0.00  0.00     0.083 A 
ATOM     13  O   UNL d   1      44.314  30.024  62.795  0.00  0.00    -0.267 OA
ATOM     14  C   UNL d   1      44.415  31.433  62.594  0.00  0.00     0.066 C 
ENDROOT
BRANCH   1  15
ATOM     15  N   UNL d   1      44.656  28.676  58.436  0.00  0.00    -0.201 NA
ATOM     16  C   UNL d   1      44.879  27.892  58.556  0.00  0.00     0.280 C 
ATOM     17  O   UNL d   1      45.069  27.611  59.304  0.00  0.00    -0.265 OA
BRANCH  16  18
ATOM     18  C   UNL d   1      44.912  27.380  57.912  0.00  0.00     0.058 A 
ATOM     19  C   UNL d   1      45.522  27.431  57.375  0.00  0.00     0.007 A 
ATOM     20  C   UNL d   1      45.555  26.915  56.725  0.00  0.00     0.024 A 
ATOM     21  C   UNL d   1      44.966  26.351  56.628  0.00  0.00     0.094 A 
ATOM     22  C   UNL d   1      44.349  26.295  57.167  0.00  0.00     0.024 A 
ATOM     23  C   UNL d   1      44.316  26.807  57.811  0.00  0.00     0.007 A 
BRANCH  21  24
ATOM     24  O   UNL d   1      44.999  25.831  55.975  0.00  0.00    -0.328 OA
ATOM     25  C   UNL d   1      44.703  25.057  56.033  0.00  0.00     0.181 C 
ENDBRANCH  21  24
ENDBRANCH  16  18
ENDBRANCH   1  15
TORSDOF 3
ENDMDL
MODEL 5
REMARK VINA RESULT:      -6.2      2.093      5.461
REMARK  3 active torsions:
REMARK  status: ('A' for Active; 'I' for Inactive)
REMARK    1  A    between atoms: N_6  and  C_1 
REMARK       I    between atoms: C_8  and  N_6 
REMARK       I    between atoms: C_11  and  N_7 
REMARK    2  A    between atoms: C_14  and  C_8 
REMARK    3  A    between atoms: O_23  and  C_20 
ROOT
ATOM      1  C   UNL d   1      49.752  34.840  52.768  0.00  0.00     0.124 A 
ATOM      2  C   UNL d   1      49.165  34.875  52.188  0.00  0.00     0.093 A 
ATOM      3  C   UNL d   1      48.693  35.480  53.274  0.00  0.00     0.049 A 
ATOM      4  C   UNL d   1      48.506  35.277  52.512  0.00  0.00     0.021 A 
ATOM      5  S   UNL d   1      49.459  35.217  53.447  0.00  0.00    -0.066 SA
ATOM      6  N   UNL d   1      47.400  36.090  53.428  0.00  0.00    -0.272 N 
ATOM      7  C   UNL d   1      48.131  35.897  53.749  0.00  0.00     0.089 A 
ATOM      8  C   UNL d   1      49.224  34.568  51.428  0.00  0.00     0.103 C 
ATOM      9  C   UNL d   1      46.840  36.498  53.883  0.00  0.00     0.265 C 
ATOM     10  N   UNL d   1      49.281  34.263  50.672  0.00  0.00    -0.191 NA
ATOM     11  C   UNL d   1      47.769  35.469  52.179  0.00  0.00     0.020 A 
ATOM     12  C   UNL d   1      47.219  35.877  52.645  0.00  0.00     0.083 A 
ATOM     13  O   UNL d   1      47.019  36.709  54.658  0.00  0.00    -0.267 OA
ATOM     14  C   UNL d   1      46.105  36.693  53.561  0.00  0.00     0.066 C 
ENDROOT
BRANCH   1  15
ATOM     15  N   UNL d   1      50.503  34.490  52.691  0.00  0.00    -0.201 NA
ATOM     16  C   UNL d   1      50.822  34.075  53.328  0.00  0.00     0.280 C 
ATOM     17  O   UNL d   1      50.414  34.001  54.036  0.00  0.00    -0.265 OA
BRANCH  16  18
ATOM     18  C   UNL d   1      51.565  33.729  53.251  0.00  0.00     0.058 A 
ATOM     19  C   UNL d   1      52.228  34.193  53.157  0.00  0.00     0.007 A 
ATOM     20  C   UNL d   1      52.978  33.844  53.079  0.00  0.00     0.024 A 
ATOM     21  C   UNL d   1      53.045  33.026  53.099  0.00  0.00     0.094 A 
ATOM     22  C   UNL d   1      52.380  32.554  53.194  0.00  0.00     0.024 A 
ATOM     23  C   UNL d   1      51.637  32.900  53.270  0.00  0.00     0.007 A 
BRANCH  21  24
ATOM     24  O   UNL d   1      53.800  32.675  53.021  0.00  0.00    -0.328 OA
ATOM     25  C   UNL d   1      54.234  32.450  53.693  0.00  0.00     0.181 C 
ENDBRANCH  21  24
ENDBRANCH  16  18
ENDBRANCH   1  15
TORSDOF 3
ENDMDL
MODEL 6
REMARK VINA RESULT:      -6.1     10.144     11.286
REMARK  3 active torsions:
REMARK  status: ('A' for Active; 'I' for Inactive)
REMARK    1  A    between atoms: N_6  and  C_1 
REMARK       I    between atoms: C_8  and  N_6 
REMARK       I    between atoms: C_11  and  N_7 
REMARK    2  A    between atoms: C_14  and  C_8 
REMARK    3  A    between atoms: O_23  and  C_20 
ROOT
ATOM      1  C   UNL d   1      44.883  27.195  57.185  0.00  0.00     0.124 A 
ATOM      2  C   UNL d   1      44.956  27.623  57.888  0.00  0.00     0.093 A 
ATOM      3  C   UNL d   1      44.804  28.498  56.898  0.00  0.00     0.049 A 
ATOM      4  C   UNL d   1      44.905  28.437  57.699  0.00  0.00     0.021 A 
ATOM      5  S   UNL d   1      44.788  27.739  56.565  0.00  0.00    -0.066 SA
ATOM      6  N   UNL d   1      44.771  29.931  57.011  0.00  0.00    -0.272 N 
ATOM      7  C   UNL d   1      44.734  29.261  56.538  0.00  0.00     0.089 A 
ATOM      8  C   UNL d   1      45.059  27.301  58.637  0.00  0.00     0.103 C 
ATOM      9  C   UNL d   1      44.703  30.684  56.671  0.00  0.00     0.265 C 
ATOM     10  N   UNL d   1      45.162  26.982  59.381  0.00  0.00    -0.191 NA
ATOM     11  C   UNL d   1      44.943  29.111  58.185  0.00  0.00     0.020 A 
ATOM     12  C   UNL d   1      44.875  29.857  57.832  0.00  0.00     0.083 A 
ATOM     13  O   UNL d   1      44.600  30.758  55.858  0.00  0.00    -0.267 OA
ATOM     14  C   UNL d   1      44.740  31.359  57.145  0.00  0.00     0.066 C 
ENDROOT
BRANCH   1  15
ATOM     15  N   UNL d   1      44.901  26.367  57.107  0.00  0.00    -0.201 NA
ATOM     16  C   UNL d   1      44.615  26.021  56.416  0.00  0.00     0.280 C 
ATOM     17  O   UNL d   1      44.315  26.476  55.803  0.00  0.00    -0.265 OA
BRANCH  16  18
ATOM     18  C   UNL d   1      44.633  25.201  56.339  0.00  0.00     0.058 A 
ATOM     19  C   UNL d   1      44.325  24.726  56.925  0.00  0.00     0.007 A 
ATOM     20  C   UNL d   1      44.343  23.899  56.847  0.00  0.00     0.024 A 
ATOM     21  C   UNL d   1      44.674  23.564  56.175  0.00  0.00     0.094 A 
ATOM     22  C   UNL d   1      44.985  24.039  55.582  0.00  0.00     0.024 A 
ATOM     23  C   UNL d   1      44.968  24.858  55.659  0.00  0.00     0.007 A 
BRANCH  21  24
ATOM     24  O   UNL d   1      44.692  22.732  56.097  0.00  0.00    -0.328 OA
ATOM     25  C   UNL d   1      44.883  22.378  55.369  0.00  0.00     0.181 C 
ENDBRANCH  21  24
ENDBRANCH  16  18
ENDBRANCH   1  15
TORSDOF 3
ENDMDL
MODEL 7
REMARK VINA RESULT:      -6.0     10.685     11.663
REMARK  3 active torsions:
REMARK  status: ('A' for Active; 'I' for Inactive)
REMARK    1  A    between atoms: N_6  and  C_1 
REMARK       I    between atoms: C_8  and  N_6 
REMARK       I    between atoms: C_11  and  N_7 
REMARK    2  A    between atoms: C_14  and  C_8 
REMARK    3  A    between atoms: O_23  and  C_20 
ROOT
ATOM      1  C   UNL d   1      44.703  29.443  59.564  0.00  0.00     0.124 A 
ATOM      2  C   UNL d   1      44.828  29.641  58.772  0.00  0.00     0.093 A 
ATOM      3  C   UNL d   1      44.796  28.314  58.855  0.00  0.00     0.049 A 
ATOM      4  C   UNL d   1      44.886  28.929  58.335  0.00  0.00     0.021 A 
ATOM      5  S   UNL d   1      44.682  28.615  59.618  0.00  0.00    -0.066 SA
ATOM      6  N   UNL d   1      44.950  27.378  57.774  0.00  0.00    -0.272 N 
ATOM      7  C   UNL d   1      44.828  27.516  58.575  0.00  0.00     0.089 A 
ATOM      8  C   UNL d   1      44.886  30.404  58.472  0.00  0.00     0.103 C 
ATOM      9  C   UNL d   1      44.983  26.601  57.487  0.00  0.00     0.265 C 
ATOM     10  N   UNL d   1      44.944  31.161  58.172  0.00  0.00    -0.191 NA
ATOM     11  C   UNL d   1      45.010  28.797  57.524  0.00  0.00     0.020 A 
ATOM     12  C   UNL d   1      45.041  28.017  57.250  0.00  0.00     0.083 A 
ATOM     13  O   UNL d   1      44.893  25.969  58.005  0.00  0.00    -0.267 OA
ATOM     14  C   UNL d   1      45.106  26.461  56.683  0.00  0.00     0.066 C 
ENDROOT
BRANCH   1  15
ATOM     15  N   UNL d   1      44.612  29.975  60.197  0.00  0.00    -0.201 NA
ATOM     16  C   UNL d   1      44.674  29.696  60.970  0.00  0.00     0.280 C 
ATOM     17  O   UNL d   1      44.823  28.905  61.127  0.00  0.00    -0.265 OA
BRANCH  16  18
ATOM     18  C   UNL d   1      44.584  30.223  61.596  0.00  0.00     0.058 A 
ATOM     19  C   UNL d   1      44.563  29.950  62.364  0.00  0.00     0.007 A 
ATOM     20  C   UNL d   1      44.473  30.481  62.996  0.00  0.00     0.024 A 
ATOM     21  C   UNL d   1      44.405  31.285  62.841  0.00  0.00     0.094 A 
ATOM     22  C   UNL d   1      44.426  31.564  62.069  0.00  0.00     0.024 A 
ATOM     23  C   UNL d   1      44.516  31.038  61.443  0.00  0.00     0.007 A 
BRANCH  21  24
ATOM     24  O   UNL d   1      44.314  31.819  63.477  0.00  0.00    -0.328 OA
ATOM     25  C   UNL d   1      44.314  31.547  64.263  0.00  0.00     0.181 C 
ENDBRANCH  21  24
ENDBRANCH  16  18
ENDBRANCH   1  15
TORSDOF 3
ENDMDL
MODEL 8
REMARK VINA RESULT:      -5.8      9.229     10.586
REMARK  3 active torsions:
REMARK  status: ('A' for Active; 'I' for Inactive)
REMARK    1  A    between atoms: N_6  and  C_1 
REMARK       I    between atoms: C_8  and  N_6 
REMARK       I    between atoms: C_11  and  N_7 
REMARK    2  A    between atoms: C_14  and  C_8 
REMARK    3  A    between atoms: O_23  and  C_20 
ROOT
ATOM      1  C   UNL d   1      44.723  29.541  57.868  0.00  0.00     0.124 A 
ATOM      2  C   UNL d   1      44.797  30.209  58.348  0.00  0.00     0.093 A 
ATOM      3  C   UNL d   1      44.602  30.629  57.101  0.00  0.00     0.049 A 
ATOM      4  C   UNL d   1      44.720  30.886  57.861  0.00  0.00     0.021 A 
ATOM      5  S   UNL d   1      44.601  29.801  57.089  0.00  0.00    -0.066 SA
ATOM      6  N   UNL d   1      44.530  31.994  56.652  0.00  0.00    -0.272 N 
ATOM      7  C   UNL d   1      44.504  31.191  56.476  0.00  0.00     0.089 A 
ATOM      8  C   UNL d   1      44.923  30.205  59.160  0.00  0.00     0.103 C 
ATOM      9  C   UNL d   1      44.435  32.555  56.049  0.00  0.00     0.265 C 
ATOM     10  N   UNL d   1      45.049  30.201  59.967  0.00  0.00    -0.191 NA
ATOM     11  C   UNL d   1      44.748  31.696  58.047  0.00  0.00     0.020 A 
ATOM     12  C   UNL d   1      44.651  32.245  57.435  0.00  0.00     0.083 A 
ATOM     13  O   UNL d   1      44.315  32.306  55.274  0.00  0.00    -0.267 OA
ATOM     14  C   UNL d   1      44.461  33.361  56.224  0.00  0.00     0.066 C 
ENDROOT
BRANCH   1  15
ATOM     15  N   UNL d   1      44.763  28.748  58.117  0.00  0.00    -0.201 NA
ATOM     16  C   UNL d   1      44.866  28.154  57.554  0.00  0.00     0.280 C 
ATOM     17  O   UNL d   1      44.931  28.330  56.755  0.00  0.00    -0.265 OA
BRANCH  16  18
ATOM     18  C   UNL d   1      44.906  27.370  57.800  0.00  0.00     0.058 A 
ATOM     19  C   UNL d   1      44.386  26.818  57.501  0.00  0.00     0.007 A 
ATOM     20  C   UNL d   1      44.426  26.026  57.749  0.00  0.00     0.024 A 
ATOM     21  C   UNL d   1      44.993  25.804  58.299  0.00  0.00     0.094 A 
ATOM     22  C   UNL d   1      45.519  26.357  58.603  0.00  0.00     0.024 A 
ATOM     23  C   UNL d   1      45.479  27.141  58.357  0.00  0.00     0.007 A 
BRANCH  21  24
ATOM     24  O   UNL d   1      45.034  25.007  58.548  0.00  0.00    -0.328 OA
ATOM     25  C   UNL d   1      44.362  24.518  58.516  0.00  0.00     0.181 C 
ENDBRANCH  21  24
ENDBRANCH  16  18
ENDBRANCH   1  15
TORSDOF 3
ENDMDL
MODEL 9
REMARK VINA RESULT:      -5.8     10.664     11.291
REMARK  3 active torsions:
REMARK  status: ('A' for Active; 'I' for Inactive)
REMARK    1  A    between atoms: N_6  and  C_1 
REMARK       I    between atoms: C_8  and  N_6 
REMARK       I    between atoms: C_11  and  N_7 
REMARK    2  A    between atoms: C_14  and  C_8 
REMARK    3  A    between atoms: O_23  and  C_20 
ROOT
ATOM      1  C   UNL d   1      44.352  30.052  60.598  0.00  0.00     0.124 A 
ATOM      2  C   UNL d   1      44.351  29.523  61.232  0.00  0.00     0.093 A 
ATOM      3  C   UNL d   1      44.339  30.754  61.736  0.00  0.00     0.049 A 
ATOM      4  C   UNL d   1      44.343  29.970  61.940  0.00  0.00     0.021 A 
ATOM      5  S   UNL d   1      44.345  30.822  60.910  0.00  0.00    -0.066 SA
ATOM      6  N   UNL d   1      44.327  31.117  63.127  0.00  0.00    -0.272 N 
ATOM      7  C   UNL d   1      44.331  31.348  62.338  0.00  0.00     0.089 A 
ATOM      8  C   UNL d   1      44.356  28.703  61.173  0.00  0.00     0.103 C 
ATOM      9  C   UNL d   1      44.319  31.688  63.727  0.00  0.00     0.265 C 
ATOM     10  N   UNL d   1      44.362  27.889  61.115  0.00  0.00    -0.191 NA
ATOM     11  C   UNL d   1      44.339  29.729  62.735  0.00  0.00     0.020 A 
ATOM     12  C   UNL d   1      44.331  30.310  63.325  0.00  0.00     0.083 A 
ATOM     13  O   UNL d   1      44.315  32.488  63.531  0.00  0.00    -0.267 OA
ATOM     14  C   UNL d   1      44.315  31.458  64.520  0.00  0.00     0.066 C 
ENDROOT
BRANCH   1  15
ATOM     15  N   UNL d   1      44.359  29.854  59.790  0.00  0.00    -0.201 NA
ATOM     16  C   UNL d   1      44.691  30.380  59.249  0.00  0.00     0.280 C 
ATOM     17  O   UNL d   1      45.014  31.094  59.492  0.00  0.00    -0.265 OA
BRANCH  16  18
ATOM     18  C   UNL d   1      44.698  30.184  58.450  0.00  0.00     0.058 A 
ATOM     19  C   UNL d   1      44.924  29.439  58.210  0.00  0.00     0.007 A 
ATOM     20  C   UNL d   1      44.931  29.241  57.403  0.00  0.00     0.024 A 
ATOM     21  C   UNL d   1      44.708  29.803  56.848  0.00  0.00     0.094 A 
ATOM     22  C   UNL d   1      44.479  30.556  57.085  0.00  0.00     0.024 A 
ATOM     23  C   UNL d   1      44.472  30.751  57.884  0.00  0.00     0.007 A 
BRANCH  21  24
ATOM     24  O   UNL d   1      44.715  29.604  56.036  0.00  0.00    -0.328 OA
ATOM     25  C   UNL d   1      44.536  28.832  55.788  0.00  0.00     0.181 C 
ENDBRANCH  21  24
ENDBRANCH  16  18
ENDBRANCH   1  15
TORSDOF 3
ENDMDL
