MODEL 1
REMARK VINA RESULT:       2.6      0.000      0.000
REMARK  5 active torsions:
REMARK  status: ('A' for Active; 'I' for Inactive)
REMARK    1  A    between atoms: C_6  and  C_1 
REMARK       I    between atoms: C_7  and  N_8 
REMARK    2  A    between atoms: C_16  and  C_7 
REMARK    3  A    between atoms: N_8  and  C_14 
REMARK    4  A    between atoms: O_15  and  C_16 
REMARK    5  A    between atoms: C_21  and  O_15 
ROOT
ATOM      1  C   UNL d   1     -41.727-122.876 -50.490  0.00  0.00     0.024 A 
ATOM      2  C   UNL d   1     -41.979-122.165 -50.818  0.00  0.00     0.004 A 
ATOM      3  C   UNL d   1     -41.314-123.429 -50.904  0.00  0.00     0.004 A 
ATOM      4  C   UNL d   1     -41.371-122.571 -52.065  0.00  0.00     0.085 A 
ATOM      5  C   UNL d   1     -41.123-123.288 -51.715  0.00  0.00     0.019 A 
ATOM      6  C   UNL d   1     -41.788-122.024 -51.628  0.00  0.00     0.019 A 
ENDROOT
BRANCH   4   7
ATOM      7  N   UNL d   1     -41.172-122.424 -52.910  0.00  0.00    -0.206 NA
ATOM      8  C   UNL d   1     -41.422-123.001 -53.479  0.00  0.00     0.304 C 
ATOM      9  O   UNL d   1     -41.834-123.678 -53.283  0.00  0.00    -0.263 OA
BRANCH   8  10
ATOM     10  C   UNL d   1     -41.233-122.861 -54.283  0.00  0.00     0.185 C 
BRANCH  10  11
ATOM     11  O   UNL d   1     -41.781-123.052 -54.860  0.00  0.00    -0.300 OA
BRANCH  11  12
ATOM     12  C   UNL d   1     -41.955-122.490 -55.461  0.00  0.00     0.100 A 
ATOM     13  C   UNL d   1     -41.377-121.968 -55.731  0.00  0.00     0.025 A 
ATOM     14  C   UNL d   1     -41.545-121.424 -56.312  0.00  0.00     0.002 A 
ATOM     15  C   UNL d   1     -42.295-121.390 -56.637  0.00  0.00     0.000 A 
ATOM     16  C   UNL d   1     -42.882-121.907 -56.376  0.00  0.00     0.002 A 
ATOM     17  C   UNL d   1     -42.714-122.450 -55.795  0.00  0.00     0.025 A 
ENDBRANCH  11  12
ENDBRANCH  10  11
ENDBRANCH   8  10
ENDBRANCH   4   7
BRANCH   1  18
ATOM     18  C   UNL d   1     -41.916-123.015 -49.688  0.00  0.00     0.111 A 
ATOM     19  N   UNL d   1     -41.415-122.905 -49.065  0.00  0.00    -0.239 NA
ATOM     20  C   UNL d   1     -41.807-123.101 -48.385  0.00  0.00     0.088 A 
ATOM     21  C   UNL d   1     -41.598-123.105 -47.590  0.00  0.00     0.020 A 
ATOM     22  C   UNL d   1     -42.585-123.342 -48.610  0.00  0.00     0.049 A 
ATOM     23  C   UNL d   1     -42.127-123.336 -47.027  0.00  0.00     0.002 A 
ATOM     24  C   UNL d   1     -42.905-123.578 -47.252  0.00  0.00     0.001 A 
ATOM     25  C   UNL d   1     -43.135-123.582 -48.035  0.00  0.00     0.008 A 
ATOM     26  C   UNL d   1     -43.455-123.818 -46.677  0.00  0.00     0.000 C 
ATOM     27  S   UNL d   1     -42.643-123.286 -49.421  0.00  0.00    -0.066 SA
ENDBRANCH   1  18
TORSDOF 5
ENDMDL
