MODEL 1
REMARK VINA RESULT:      -6.4      0.000      0.000
REMARK  9 active torsions:
REMARK  status: ('A' for Active; 'I' for Inactive)
REMARK    1  A    between atoms: C_2  and  N_11 
REMARK    2  A    between atoms: S_3  and  N_22 
REMARK    3  A    between atoms: C_16  and  S_3 
REMARK    4  A    between atoms: C_21  and  C_5 
REMARK       I    between atoms: N_11  and  C_17 
REMARK    5  A    between atoms: S_23  and  C_12 
REMARK    6  A    between atoms: C_17  and  C_27 
REMARK    7  A    between atoms: C_28  and  C_21 
REMARK    8  A    between atoms: N_22  and  C_28 
REMARK    9  A    between atoms: C_27  and  S_23 
ROOT
ATOM      1  N   UNL d   1     -44.817  12.702  22.354  0.00  0.00    -0.191 N 
ATOM      2  C   UNL d   1     -44.583  11.997  22.722  0.00  0.00     0.187 A 
ATOM      3  C   UNL d   1     -45.570  12.896  22.628  0.00  0.00     0.188 A 
ATOM      4  N   UNL d   1     -44.306  13.067  21.818  0.00  0.00    -0.156 NA
ATOM      5  N   UNL d   1     -45.200  11.765  23.222  0.00  0.00    -0.127 NA
ATOM      6  N   UNL d   1     -45.799  12.312  23.164  0.00  0.00    -0.127 NA
ATOM      7  C   UNL d   1     -43.577  12.735  21.654  0.00  0.00     0.131 A 
ATOM      8  C   UNL d   1     -43.854  11.666  22.557  0.00  0.00     0.043 A 
ATOM      9  C   UNL d   1     -43.347  12.035  22.021  0.00  0.00     0.031 A 
ENDROOT
BRANCH   7  10
ATOM     10  S   UNL d   1     -43.074  13.108  21.116  0.00  0.00    -0.061 SA
BRANCH  10  11
ATOM     11  C   UNL d   1     -42.289  13.272  21.326  0.00  0.00     0.099 C 
BRANCH  11  12
ATOM     12  C   UNL d   1     -41.855  13.811  20.876  0.00  0.00     0.288 C 
ATOM     13  N   UNL d   1     -41.252  13.545  20.401  0.00  0.00    -0.182 NA
ATOM     14  O   UNL d   1     -42.030  14.613  20.905  0.00  0.00    -0.265 OA
BRANCH  13  15
ATOM     15  C   UNL d   1     -40.812  14.067  19.949  0.00  0.00     0.197 A 
ATOM     16  N   UNL d   1     -40.893  14.177  19.132  0.00  0.00    -0.221 NA
ATOM     17  C   UNL d   1     -40.344  14.752  18.907  0.00  0.00     0.090 A 
ATOM     18  C   UNL d   1     -40.176  15.079  18.177  0.00  0.00     0.020 A 
ATOM     19  C   UNL d   1     -39.928  14.995  19.583  0.00  0.00     0.050 A 
ATOM     20  C   UNL d   1     -39.587  15.657  18.104  0.00  0.00     0.002 A 
ATOM     21  C   UNL d   1     -39.169  15.901  18.791  0.00  0.00     0.001 A 
ATOM     22  C   UNL d   1     -39.343  15.569  19.516  0.00  0.00     0.008 A 
ATOM     23  S   UNL d   1     -40.210  14.582  20.217  0.00  0.00    -0.047 SA
ENDBRANCH  13  15
ENDBRANCH  11  12
ENDBRANCH  10  11
ENDBRANCH   7  10
BRANCH   3  24
ATOM     24  C   UNL d   1     -46.006  13.557  22.401  0.00  0.00     0.062 C 
BRANCH  24  25
ATOM     25  C   UNL d   1     -46.801  13.625  22.612  0.00  0.00     0.115 C 
BRANCH  25  26
ATOM     26  N   UNL d   1     -47.279  14.193  22.245  0.00  0.00    -0.157 NA
BRANCH  26  27
ATOM     27  S   UNL d   1     -48.042  14.340  22.533  0.00  0.00     0.285 S 
ATOM     28  O   UNL d   1     -48.357  13.831  21.958  0.00  0.00    -0.198 OA
ATOM     29  O   UNL d   1     -47.729  14.848  23.107  0.00  0.00    -0.198 OA
BRANCH  27  30
ATOM     30  C   UNL d   1     -48.792  14.490  22.823  0.00  0.00     0.105 A 
ATOM     31  C   UNL d   1     -49.239  13.885  23.160  0.00  0.00     0.013 A 
ATOM     32  C   UNL d   1     -50.000  14.037  23.454  0.00  0.00     0.001 A 
ATOM     33  C   UNL d   1     -50.313  14.799  23.410  0.00  0.00     0.000 A 
ATOM     34  C   UNL d   1     -49.861  15.410  23.069  0.00  0.00     0.001 A 
ATOM     35  C   UNL d   1     -51.061  14.956  23.697  0.00  0.00     0.000 C 
ATOM     36  C   UNL d   1     -49.101  15.250  22.777  0.00  0.00     0.013 A 
ENDBRANCH  27  30
ENDBRANCH  26  27
ENDBRANCH  25  26
ENDBRANCH  24  25
ENDBRANCH   3  24
TORSDOF 9
ENDMDL
