MODEL 1
REMARK VINA RESULT:      79.0      0.000      0.000
REMARK  4 active torsions:
REMARK  status: ('A' for Active; 'I' for Inactive)
REMARK    1  A    between atoms: C_7  and  C_1 
REMARK    2  A    between atoms: S_4  and  O_12 
REMARK    3  A    between atoms: O_12  and  C_10 
REMARK    4  A    between atoms: C_25  and  C_13 
ROOT
ATOM      1  C   UNL d   1     -49.499  28.568  33.846  0.00  0.00     0.064 A 
ATOM      2  C   UNL d   1     -48.586  29.424  34.526  0.00  0.00     0.062 A 
ATOM      3  C   UNL d   1     -48.890  28.673  34.390  0.00  0.00     0.199 A 
ATOM      4  C   UNL d   1     -49.808  29.222  33.433  0.00  0.00     0.126 A 
ATOM      5  C   UNL d   1     -48.889  30.075  34.119  0.00  0.00     0.105 A 
ATOM      6  O   UNL d   1     -49.497  29.984  33.573  0.00  0.00    -0.305 OA
ATOM      7  C   UNL d   1     -47.978  29.533  35.068  0.00  0.00     0.007 A 
ATOM      8  C   UNL d   1     -47.980  30.932  34.796  0.00  0.00     0.115 A 
ATOM      9  C   UNL d   1     -48.589  30.825  34.252  0.00  0.00     0.050 A 
ATOM     10  C   UNL d   1     -47.674  30.284  35.205  0.00  0.00     0.024 A 
ATOM     11  O   UNL d   1     -48.588  28.033  34.794  0.00  0.00    -0.286 OA
ENDROOT
BRANCH   1  12
ATOM     12  C   UNL d   1     -49.802  27.814  33.711  0.00  0.00     0.007 A 
ATOM     13  C   UNL d   1     -50.621  27.701  33.711  0.00  0.00     0.027 A 
ATOM     14  C   UNL d   1     -50.925  26.947  33.576  0.00  0.00     0.123 A 
ATOM     15  O   UNL d   1     -51.754  26.832  33.576  0.00  0.00    -0.301 OA
ATOM     16  C   UNL d   1     -50.409  26.308  33.441  0.00  0.00     0.123 A 
ATOM     17  C   UNL d   1     -52.052  26.066  33.439  0.00  0.00     0.149 A 
ATOM     18  C   UNL d   1     -51.541  25.433  33.306  0.00  0.00     0.149 A 
ATOM     19  O   UNL d   1     -50.718  25.549  33.306  0.00  0.00    -0.301 OA
ATOM     20  C   UNL d   1     -49.605  26.429  33.443  0.00  0.00     0.027 A 
ATOM     21  C   UNL d   1     -49.291  27.181  33.577  0.00  0.00     0.002 A 
ENDBRANCH   1  12
BRANCH  10  22
ATOM     22  C   UNL d   1     -47.065  30.389  35.749  0.00  0.00     0.002 C 
ATOM     23  C   UNL d   1     -47.147  30.122  36.526  0.00  0.00     0.000 C 
ENDBRANCH  10  22
BRANCH   8  24
ATOM     24  O   UNL d   1     -47.677  31.684  34.931  0.00  0.00    -0.230 OA
BRANCH  24  25
ATOM     25  S   UNL d   1     -47.738  32.265  34.348  0.00  0.00     0.285 S 
ATOM     26  O   UNL d   1     -48.547  32.337  34.498  0.00  0.00    -0.197 OA
ATOM     27  O   UNL d   1     -46.931  32.197  34.195  0.00  0.00    -0.197 OA
ATOM     28  C   UNL d   1     -47.795  32.845  33.764  0.00  0.00     0.172 C 
ENDBRANCH  24  25
ENDBRANCH   8  24
TORSDOF 4
ENDMDL
