MODEL 1
REMARK VINA RESULT:      -5.4      0.000      0.000
REMARK  3 active torsions:
REMARK  status: ('A' for Active; 'I' for Inactive)
REMARK    1  A    between atoms: C_10  and  C_3 
REMARK    2  A    between atoms: C_13  and  C_7 
REMARK    3  A    between atoms: C_12  and  C_13 
ROOT
ATOM      1  C   UNL d   1     -41.665-122.332 -53.594  0.00  0.00     0.171 A 
ATOM      2  N   UNL d   1     -41.491-123.055 -53.240  0.00  0.00    -0.212 N 
ATOM      3  C   UNL d   1     -41.821-122.473 -54.397  0.00  0.00     0.121 A 
ATOM      4  N   UNL d   1     -41.659-121.642 -53.150  0.00  0.00    -0.227 NA
ATOM      5  N   UNL d   1     -41.539-123.648 -53.822  0.00  0.00    -0.162 NA
ATOM      6  C   UNL d   1     -41.311-123.092 -52.440  0.00  0.00     0.086 A 
ATOM      7  C   UNL d   1     -41.306-122.400 -51.992  0.00  0.00     0.035 A 
ATOM      8  C   UNL d   1     -41.479-121.677 -52.346  0.00  0.00     0.085 A 
ATOM      9  C   UNL d   1     -41.744-123.282 -54.538  0.00  0.00     0.130 A 
ATOM     10  C   UNL d   1     -41.137-123.817 -52.085  0.00  0.00     0.021 C 
ATOM     11  C   UNL d   1     -41.473-120.983 -51.895  0.00  0.00     0.021 C 
ENDROOT
BRANCH   3  12
ATOM     12  C   UNL d   1     -42.019-121.900 -54.956  0.00  0.00     0.215 C 
ATOM     13  O   UNL d   1     -42.807-121.655 -55.039  0.00  0.00    -0.644 OA
ATOM     14  O   UNL d   1     -41.436-121.565 -55.439  0.00  0.00    -0.644 OA
ENDBRANCH   3  12
BRANCH   7  15
ATOM     15  C   UNL d   1     -41.126-122.435 -51.188  0.00  0.00     0.003 C 
BRANCH  15  16
ATOM     16  C   UNL d   1     -41.727-122.568 -50.640  0.00  0.00     0.000 C 
ATOM     17  C   UNL d   1     -41.558-122.547 -49.832  0.00  0.00     0.000 C 
ENDBRANCH  15  16
ENDBRANCH   7  15
TORSDOF 3
ENDMDL
MODEL 2
REMARK VINA RESULT:      -4.4      1.738      3.216
REMARK  3 active torsions:
REMARK  status: ('A' for Active; 'I' for Inactive)
REMARK    1  A    between atoms: C_10  and  C_3 
REMARK    2  A    between atoms: C_13  and  C_7 
REMARK    3  A    between atoms: C_12  and  C_13 
ROOT
ATOM      1  C   UNL d   1     -41.585-122.523 -52.454  0.00  0.00     0.171 A 
ATOM      2  N   UNL d   1     -41.356-123.172 -52.906  0.00  0.00    -0.212 N 
ATOM      3  C   UNL d   1     -41.497-122.726 -51.654  0.00  0.00     0.121 A 
ATOM      4  N   UNL d   1     -41.843-121.834 -52.819  0.00  0.00    -0.227 NA
ATOM      5  N   UNL d   1     -41.124-123.781 -52.389  0.00  0.00    -0.162 NA
ATOM      6  C   UNL d   1     -41.383-123.137 -53.726  0.00  0.00     0.086 A 
ATOM      7  C   UNL d   1     -41.642-122.446 -54.095  0.00  0.00     0.035 A 
ATOM      8  C   UNL d   1     -41.872-121.796 -53.642  0.00  0.00     0.085 A 
ATOM      9  C   UNL d   1     -41.213-123.500 -51.613  0.00  0.00     0.130 A 
ATOM     10  C   UNL d   1     -41.154-123.788 -54.179  0.00  0.00     0.021 C 
ATOM     11  C   UNL d   1     -42.131-121.104 -54.014  0.00  0.00     0.021 C 
ENDROOT
BRANCH   3  12
ATOM     12  C   UNL d   1     -41.664-122.236 -51.012  0.00  0.00     0.215 C 
ATOM     13  O   UNL d   1     -41.125-121.649 -50.785  0.00  0.00    -0.644 OA
ATOM     14  O   UNL d   1     -42.370-122.326 -50.589  0.00  0.00    -0.644 OA
ENDBRANCH   3  12
BRANCH   7  15
ATOM     15  C   UNL d   1     -41.671-122.408 -54.918  0.00  0.00     0.003 C 
BRANCH  15  16
ATOM     16  C   UNL d   1     -42.397-122.325 -55.298  0.00  0.00     0.000 C 
ATOM     17  C   UNL d   1     -42.427-122.010 -56.062  0.00  0.00     0.000 C 
ENDBRANCH  15  16
ENDBRANCH   7  15
TORSDOF 3
ENDMDL
