MODEL 1
REMARK VINA RESULT:      -7.6      0.000      0.000
REMARK  5 active torsions:
REMARK  status: ('A' for Active; 'I' for Inactive)
REMARK    1  A    between atoms: C_3  and  C_1 
REMARK       I    between atoms: N_5  and  C_1 
REMARK    2  A    between atoms: C_2  and  C_4 
REMARK    3  A    between atoms: C_4  and  C_3 
REMARK    4  A    between atoms: C_7  and  N_5 
REMARK    5  A    between atoms: O_14  and  C_13 
ROOT
ATOM      1  C   UNL d   1      52.632  31.991  52.981  0.00  0.00     0.279 C 
ATOM      2  N   UNL d   1      52.105  32.496  53.361  0.00  0.00    -0.208 NA
ATOM      3  O   UNL d   1      53.236  32.297  52.516  0.00  0.00    -0.265 OA
ENDROOT
BRANCH   1   4
ATOM      4  C   UNL d   1      52.557  31.178  53.065  0.00  0.00     0.065 C 
BRANCH   4   5
ATOM      5  C   UNL d   1      53.225  30.713  53.224  0.00  0.00     0.030 C 
BRANCH   5   6
ATOM      6  C   UNL d   1      53.133  29.981  53.592  0.00  0.00     0.100 A 
ATOM      7  O   UNL d   1      52.542  29.391  53.515  0.00  0.00    -0.305 OA
ATOM      8  C   UNL d   1      52.747  28.770  54.031  0.00  0.00     0.123 A 
ATOM      9  C   UNL d   1      53.448  28.972  54.419  0.00  0.00     0.029 A 
ATOM     10  C   UNL d   1      53.690  29.724  54.147  0.00  0.00     0.027 A 
ENDBRANCH   5   6
ENDBRANCH   4   5
ENDBRANCH   1   4
BRANCH   2  11
ATOM     11  C   UNL d   1      52.185  33.312  53.273  0.00  0.00     0.087 A 
ATOM     12  C   UNL d   1      52.673  33.726  53.776  0.00  0.00     0.043 A 
ATOM     13  C   UNL d   1      52.755  34.539  53.691  0.00  0.00     0.096 A 
ATOM     14  C   UNL d   1      52.344  34.939  53.098  0.00  0.00     0.024 A 
ATOM     15  C   UNL d   1      51.847  34.510  52.588  0.00  0.00     0.004 A 
ATOM     16  C   UNL d   1      51.770  33.696  52.678  0.00  0.00     0.019 A 
BRANCH  13  17
ATOM     17  O   UNL d   1      53.250  34.962  54.200  0.00  0.00    -0.328 OA
ATOM     18  C   UNL d   1      52.969  35.625  54.597  0.00  0.00     0.181 C 
ENDBRANCH  13  17
ENDBRANCH   2  11
TORSDOF 5
ENDMDL
MODEL 2
REMARK VINA RESULT:      -7.4      2.300      4.199
REMARK  5 active torsions:
REMARK  status: ('A' for Active; 'I' for Inactive)
REMARK    1  A    between atoms: C_3  and  C_1 
REMARK       I    between atoms: N_5  and  C_1 
REMARK    2  A    between atoms: C_2  and  C_4 
REMARK    3  A    between atoms: C_4  and  C_3 
REMARK    4  A    between atoms: C_7  and  N_5 
REMARK    5  A    between atoms: O_14  and  C_13 
ROOT
ATOM      1  C   UNL d   1      52.007  33.957  53.319  0.00  0.00     0.279 C 
ATOM      2  N   UNL d   1      52.217  33.299  53.767  0.00  0.00    -0.208 NA
ATOM      3  O   UNL d   1      52.588  34.417  52.963  0.00  0.00    -0.265 OA
ENDROOT
BRANCH   1   4
ATOM      4  C   UNL d   1      51.217  34.159  53.226  0.00  0.00     0.065 C 
BRANCH   4   5
ATOM      5  C   UNL d   1      50.904  34.268  52.467  0.00  0.00     0.030 C 
BRANCH   5   6
ATOM      6  C   UNL d   1      50.123  34.519  52.381  0.00  0.00     0.100 A 
ATOM      7  O   UNL d   1      49.602  34.905  52.913  0.00  0.00    -0.305 OA
ATOM      8  C   UNL d   1      48.881  35.018  52.512  0.00  0.00     0.123 A 
ATOM      9  C   UNL d   1      48.954  34.709  51.749  0.00  0.00     0.029 A 
ATOM     10  C   UNL d   1      49.725  34.398  51.666  0.00  0.00     0.027 A 
ENDBRANCH   5   6
ENDBRANCH   4   5
ENDBRANCH   1   4
BRANCH   2  11
ATOM     11  C   UNL d   1      53.012  33.101  53.857  0.00  0.00     0.087 A 
ATOM     12  C   UNL d   1      53.412  33.336  54.526  0.00  0.00     0.043 A 
ATOM     13  C   UNL d   1      54.205  33.140  54.619  0.00  0.00     0.096 A 
ATOM     14  C   UNL d   1      54.597  32.706  54.037  0.00  0.00     0.024 A 
ATOM     15  C   UNL d   1      54.183  32.470  53.357  0.00  0.00     0.004 A 
ATOM     16  C   UNL d   1      53.389  32.670  53.270  0.00  0.00     0.019 A 
BRANCH  13  17
ATOM     17  O   UNL d   1      54.614  33.377  55.297  0.00  0.00    -0.328 OA
ATOM     18  C   UNL d   1      55.287  33.844  55.234  0.00  0.00     0.181 C 
ENDBRANCH  13  17
ENDBRANCH   2  11
TORSDOF 5
ENDMDL
MODEL 3
REMARK VINA RESULT:      -7.3      1.833      4.576
REMARK  5 active torsions:
REMARK  status: ('A' for Active; 'I' for Inactive)
REMARK    1  A    between atoms: C_3  and  C_1 
REMARK       I    between atoms: N_5  and  C_1 
REMARK    2  A    between atoms: C_2  and  C_4 
REMARK    3  A    between atoms: C_4  and  C_3 
REMARK    4  A    between atoms: C_7  and  N_5 
REMARK    5  A    between atoms: O_14  and  C_13 
ROOT
ATOM      1  C   UNL d   1      51.770  33.365  52.996  0.00  0.00     0.279 C 
ATOM      2  N   UNL d   1      52.329  32.945  52.562  0.00  0.00    -0.208 NA
ATOM      3  O   UNL d   1      51.728  33.276  53.812  0.00  0.00    -0.265 OA
ENDROOT
BRANCH   1   4
ATOM      4  C   UNL d   1      51.251  33.876  52.616  0.00  0.00     0.065 C 
BRANCH   4   5
ATOM      5  C   UNL d   1      50.563  34.129  53.001  0.00  0.00     0.030 C 
BRANCH   5   6
ATOM      6  C   UNL d   1      49.943  34.448  52.560  0.00  0.00     0.100 A 
ATOM      7  O   UNL d   1      49.719  34.340  51.759  0.00  0.00    -0.305 OA
ATOM      8  C   UNL d   1      49.045  34.810  51.628  0.00  0.00     0.123 A 
ATOM      9  C   UNL d   1      48.856  35.200  52.332  0.00  0.00     0.029 A 
ATOM     10  C   UNL d   1      49.413  34.977  52.912  0.00  0.00     0.027 A 
ENDBRANCH   5   6
ENDBRANCH   4   5
ENDBRANCH   1   4
BRANCH   2  11
ATOM     11  C   UNL d   1      52.847  32.433  52.948  0.00  0.00     0.087 A 
ATOM     12  C   UNL d   1      52.733  31.629  52.896  0.00  0.00     0.043 A 
ATOM     13  C   UNL d   1      53.248  31.117  53.280  0.00  0.00     0.096 A 
ATOM     14  C   UNL d   1      53.881  31.414  53.718  0.00  0.00     0.024 A 
ATOM     15  C   UNL d   1      53.992  32.236  53.766  0.00  0.00     0.004 A 
ATOM     16  C   UNL d   1      53.472  32.744  53.379  0.00  0.00     0.019 A 
BRANCH  13  17
ATOM     17  O   UNL d   1      53.135  30.299  53.230  0.00  0.00    -0.328 OA
ATOM     18  C   UNL d   1      53.224  29.826  53.896  0.00  0.00     0.181 C 
ENDBRANCH  13  17
ENDBRANCH   2  11
TORSDOF 5
ENDMDL
MODEL 4
REMARK VINA RESULT:      -7.1      0.950      4.598
REMARK  5 active torsions:
REMARK  status: ('A' for Active; 'I' for Inactive)
REMARK    1  A    between atoms: C_3  and  C_1 
REMARK       I    between atoms: N_5  and  C_1 
REMARK    2  A    between atoms: C_2  and  C_4 
REMARK    3  A    between atoms: C_4  and  C_3 
REMARK    4  A    between atoms: C_7  and  N_5 
REMARK    5  A    between atoms: O_14  and  C_13 
ROOT
ATOM      1  C   UNL d   1      53.046  32.264  53.499  0.00  0.00     0.279 C 
ATOM      2  N   UNL d   1      53.587  31.661  53.646  0.00  0.00    -0.208 NA
ATOM      3  O   UNL d   1      52.289  32.085  53.234  0.00  0.00    -0.265 OA
ENDROOT
BRANCH   1   4
ATOM      4  C   UNL d   1      53.260  33.048  53.616  0.00  0.00     0.065 C 
BRANCH   4   5
ATOM      5  C   UNL d   1      52.677  33.621  53.754  0.00  0.00     0.030 C 
BRANCH   5   6
ATOM      6  C   UNL d   1      52.882  34.330  54.122  0.00  0.00     0.100 A 
ATOM      7  O   UNL d   1      53.228  34.487  54.870  0.00  0.00    -0.305 OA
ATOM      8  C   UNL d   1      53.303  35.313  54.937  0.00  0.00     0.123 A 
ATOM      9  C   UNL d   1      53.010  35.660  54.246  0.00  0.00     0.029 A 
ATOM     10  C   UNL d   1      52.749  35.050  53.739  0.00  0.00     0.027 A 
ENDBRANCH   5   6
ENDBRANCH   4   5
ENDBRANCH   1   4
BRANCH   2  11
ATOM     11  C   UNL d   1      53.367  30.876  53.527  0.00  0.00     0.087 A 
ATOM     12  C   UNL d   1      53.288  30.378  54.166  0.00  0.00     0.043 A 
ATOM     13  C   UNL d   1      53.069  29.594  54.050  0.00  0.00     0.096 A 
ATOM     14  C   UNL d   1      52.928  29.310  53.289  0.00  0.00     0.024 A 
ATOM     15  C   UNL d   1      53.010  29.823  52.641  0.00  0.00     0.004 A 
ATOM     16  C   UNL d   1      53.230  30.607  52.764  0.00  0.00     0.019 A 
BRANCH  13  17
ATOM     17  O   UNL d   1      52.988  29.086  54.697  0.00  0.00    -0.328 OA
ATOM     18  C   UNL d   1      53.570  28.530  54.863  0.00  0.00     0.181 C 
ENDBRANCH  13  17
ENDBRANCH   2  11
TORSDOF 5
ENDMDL
MODEL 5
REMARK VINA RESULT:      -6.7      2.364      3.400
REMARK  5 active torsions:
REMARK  status: ('A' for Active; 'I' for Inactive)
REMARK    1  A    between atoms: C_3  and  C_1 
REMARK       I    between atoms: N_5  and  C_1 
REMARK    2  A    between atoms: C_2  and  C_4 
REMARK    3  A    between atoms: C_4  and  C_3 
REMARK    4  A    between atoms: C_7  and  N_5 
REMARK    5  A    between atoms: O_14  and  C_13 
ROOT
ATOM      1  C   UNL d   1      51.736  33.978  53.192  0.00  0.00     0.279 C 
ATOM      2  N   UNL d   1      50.956  33.719  53.218  0.00  0.00    -0.208 NA
ATOM      3  O   UNL d   1      51.932  34.662  52.779  0.00  0.00    -0.265 OA
ENDROOT
BRANCH   1   4
ATOM      4  C   UNL d   1      52.325  33.555  53.577  0.00  0.00     0.065 C 
BRANCH   4   5
ATOM      5  C   UNL d   1      52.982  33.951  53.892  0.00  0.00     0.030 C 
BRANCH   5   6
ATOM      6  C   UNL d   1      53.514  33.540  54.370  0.00  0.00     0.100 A 
ATOM      7  O   UNL d   1      53.578  32.725  54.556  0.00  0.00    -0.305 OA
ATOM      8  C   UNL d   1      54.228  32.641  55.069  0.00  0.00     0.123 A 
ATOM      9  C   UNL d   1      54.559  33.387  55.198  0.00  0.00     0.029 A 
ATOM     10  C   UNL d   1      54.116  33.947  54.764  0.00  0.00     0.027 A 
ENDBRANCH   5   6
ENDBRANCH   4   5
ENDBRANCH   1   4
BRANCH   2  11
ATOM     11  C   UNL d   1      50.369  34.147  52.829  0.00  0.00     0.087 A 
ATOM     12  C   UNL d   1      49.932  34.697  53.240  0.00  0.00     0.043 A 
ATOM     13  C   UNL d   1      49.346  35.125  52.855  0.00  0.00     0.096 A 
ATOM     14  C   UNL d   1      49.198  35.001  52.054  0.00  0.00     0.024 A 
ATOM     15  C   UNL d   1      49.648  34.438  51.640  0.00  0.00     0.004 A 
ATOM     16  C   UNL d   1      50.233  34.012  52.031  0.00  0.00     0.019 A 
BRANCH  13  17
ATOM     17  O   UNL d   1      48.900  35.685  53.271  0.00  0.00    -0.328 OA
ATOM     18  C   UNL d   1      48.129  35.853  53.042  0.00  0.00     0.181 C 
ENDBRANCH  13  17
ENDBRANCH   2  11
TORSDOF 5
ENDMDL
