MODEL 1
REMARK VINA RESULT:      -2.1      0.000      0.000
REMARK  6 active torsions:
REMARK  status: ('A' for Active; 'I' for Inactive)
REMARK    1  A    between atoms: S_12  and  C_5 
REMARK    2  A    between atoms: C_14  and  C_6 
REMARK    3  A    between atoms: C_10  and  C_13 
REMARK    4  A    between atoms: C_21  and  S_12 
REMARK    5  A    between atoms: C_15  and  C_21 
REMARK       I    between atoms: N_16  and  C_15 
REMARK    6  A    between atoms: C_18  and  N_16 
ROOT
ATOM      1  C   UNL d   1     -46.016  12.721  22.930  0.00  0.00     0.186 A 
ATOM      2  C   UNL d   1     -45.542  13.246  22.494  0.00  0.00     0.065 A 
ATOM      3  N   UNL d   1     -45.733  11.975  23.131  0.00  0.00    -0.203 NA
ATOM      4  N   UNL d   1     -44.502  12.278  22.461  0.00  0.00    -0.220 NA
ATOM      5  C   UNL d   1     -44.792  13.016  22.266  0.00  0.00     0.116 A 
ATOM      6  C   UNL d   1     -44.970  11.747  22.897  0.00  0.00     0.165 A 
ATOM      7  O   UNL d   1     -46.773  12.942  23.164  0.00  0.00    -0.289 OA
ATOM      8  C   UNL d   1     -45.831  13.993  22.295  0.00  0.00     0.007 A 
ATOM      9  C   UNL d   1     -47.068  13.694  22.966  0.00  0.00     0.102 A 
ATOM     10  C   UNL d   1     -46.596  14.216  22.532  0.00  0.00     0.023 A 
ATOM     11  C   UNL d   1     -47.817  13.913  23.198  0.00  0.00     0.025 A 
ATOM     12  C   UNL d   1     -46.884  14.957  22.335  0.00  0.00     0.002 A 
ATOM     13  C   UNL d   1     -48.116  14.654  23.005  0.00  0.00     0.002 A 
ATOM     14  C   UNL d   1     -47.647  15.179  22.571  0.00  0.00     0.000 A 
ENDROOT
BRANCH   5  15
ATOM     15  S   UNL d   1     -44.317  13.542  21.830  0.00  0.00    -0.062 SA
BRANCH  15  16
ATOM     16  C   UNL d   1     -43.726  13.252  21.340  0.00  0.00     0.099 C 
BRANCH  16  17
ATOM     17  C   UNL d   1     -43.050  13.699  21.205  0.00  0.00     0.286 C 
ATOM     18  N   UNL d   1     -42.373  13.345  20.885  0.00  0.00    -0.208 NA
ATOM     19  O   UNL d   1     -43.037  14.502  21.384  0.00  0.00    -0.265 OA
BRANCH  18  20
ATOM     20  C   UNL d   1     -41.699  13.792  20.750  0.00  0.00     0.085 A 
ATOM     21  C   UNL d   1     -41.492  13.984  19.984  0.00  0.00     0.025 A 
ATOM     22  C   UNL d   1     -40.822  14.429  19.843  0.00  0.00     0.066 A 
ATOM     23  C   UNL d   1     -40.350  14.687  20.477  0.00  0.00     0.006 A 
ATOM     24  C   UNL d   1     -40.564  14.490  21.245  0.00  0.00     0.002 A 
ATOM     25  C   UNL d   1     -41.242  14.040  21.389  0.00  0.00     0.019 A 
BRANCH  22  26
ATOM     26  C   UNL d   1     -40.604  14.630  19.070  0.00  0.00     0.211 C 
ATOM     27  O   UNL d   1     -40.535  14.035  18.505  0.00  0.00    -0.644 OA
ATOM     28  O   UNL d   1     -40.457  15.413  18.866  0.00  0.00    -0.644 OA
ENDBRANCH  22  26
ENDBRANCH  18  20
ENDBRANCH  16  17
ENDBRANCH  15  16
ENDBRANCH   5  15
BRANCH   6  29
ATOM     29  C   UNL d   1     -44.684  10.999  23.098  0.00  0.00     0.036 A 
ATOM     30  C   UNL d   1     -43.876  10.848  23.055  0.00  0.00     0.005 A 
ATOM     31  C   UNL d   1     -43.583  10.099  23.255  0.00  0.00     0.030 A 
ATOM     32  C   UNL d   1     -44.103   9.504  23.498  0.00  0.00     0.140 A 
ATOM     33  C   UNL d   1     -44.923   9.659  23.541  0.00  0.00     0.030 A 
ATOM     34  F   UNL d   1     -43.817   8.760  23.698  0.00  0.00    -0.204 F 
ATOM     35  C   UNL d   1     -45.204  10.409  23.339  0.00  0.00     0.005 A 
ENDBRANCH   6  29
TORSDOF 6
ENDMDL
MODEL 2
REMARK VINA RESULT:      -1.9      2.206      5.809
REMARK  6 active torsions:
REMARK  status: ('A' for Active; 'I' for Inactive)
REMARK    1  A    between atoms: S_12  and  C_5 
REMARK    2  A    between atoms: C_14  and  C_6 
REMARK    3  A    between atoms: C_10  and  C_13 
REMARK    4  A    between atoms: C_21  and  S_12 
REMARK    5  A    between atoms: C_15  and  C_21 
REMARK       I    between atoms: N_16  and  C_15 
REMARK    6  A    between atoms: C_18  and  N_16 
ROOT
ATOM      1  C   UNL d   1     -43.342  12.025  22.237  0.00  0.00     0.186 A 
ATOM      2  C   UNL d   1     -44.141  12.251  22.238  0.00  0.00     0.065 A 
ATOM      3  N   UNL d   1     -42.776  12.500  21.875  0.00  0.00    -0.203 NA
ATOM      4  N   UNL d   1     -43.808  13.429  21.515  0.00  0.00    -0.220 NA
ATOM      5  C   UNL d   1     -44.362  12.950  21.876  0.00  0.00     0.116 A 
ATOM      6  C   UNL d   1     -43.006  13.209  21.510  0.00  0.00     0.165 A 
ATOM      7  O   UNL d   1     -43.109  11.323  22.598  0.00  0.00    -0.289 OA
ATOM      8  C   UNL d   1     -44.705  11.771  22.601  0.00  0.00     0.007 A 
ATOM      9  C   UNL d   1     -43.674  10.836  22.966  0.00  0.00     0.102 A 
ATOM     10  C   UNL d   1     -44.470  11.062  22.966  0.00  0.00     0.023 A 
ATOM     11  C   UNL d   1     -43.443  10.142  23.323  0.00  0.00     0.025 A 
ATOM     12  C   UNL d   1     -45.028  10.584  23.328  0.00  0.00     0.002 A 
ATOM     13  C   UNL d   1     -43.996   9.655  23.689  0.00  0.00     0.002 A 
ATOM     14  C   UNL d   1     -44.793   9.877  23.691  0.00  0.00     0.000 A 
ENDROOT
BRANCH   5  15
ATOM     15  S   UNL d   1     -45.162  13.177  21.877  0.00  0.00    -0.062 SA
BRANCH  15  16
ATOM     16  C   UNL d   1     -45.387  13.892  22.212  0.00  0.00     0.099 C 
BRANCH  16  17
ATOM     17  C   UNL d   1     -46.131  13.970  22.549  0.00  0.00     0.286 C 
ATOM     18  N   UNL d   1     -46.811  13.885  22.084  0.00  0.00    -0.208 NA
ATOM     19  O   UNL d   1     -46.212  14.133  23.352  0.00  0.00    -0.265 OA
BRANCH  18  20
ATOM     20  C   UNL d   1     -47.555  13.963  22.422  0.00  0.00     0.085 A 
ATOM     21  C   UNL d   1     -47.994  13.294  22.582  0.00  0.00     0.025 A 
ATOM     22  C   UNL d   1     -48.734  13.365  22.919  0.00  0.00     0.066 A 
ATOM     23  C   UNL d   1     -49.042  14.116  23.098  0.00  0.00     0.006 A 
ATOM     24  C   UNL d   1     -48.594  14.785  22.934  0.00  0.00     0.002 A 
ATOM     25  C   UNL d   1     -47.845  14.714  22.594  0.00  0.00     0.019 A 
BRANCH  22  26
ATOM     26  C   UNL d   1     -49.189  12.693  23.085  0.00  0.00     0.211 C 
ATOM     27  O   UNL d   1     -48.943  12.180  23.680  0.00  0.00    -0.644 OA
ATOM     28  O   UNL d   1     -49.878  12.538  22.664  0.00  0.00    -0.644 OA
ENDBRANCH  22  26
ENDBRANCH  18  20
ENDBRANCH  16  17
ENDBRANCH  15  16
ENDBRANCH   5  15
BRANCH   6  29
ATOM     29  C   UNL d   1     -42.439  13.688  21.147  0.00  0.00     0.036 A 
ATOM     30  C   UNL d   1     -42.363  14.474  21.378  0.00  0.00     0.005 A 
ATOM     31  C   UNL d   1     -41.796  14.958  21.018  0.00  0.00     0.030 A 
ATOM     32  C   UNL d   1     -41.307  14.652  20.425  0.00  0.00     0.140 A 
ATOM     33  C   UNL d   1     -41.386  13.854  20.191  0.00  0.00     0.030 A 
ATOM     34  F   UNL d   1     -40.744  15.129  20.065  0.00  0.00    -0.204 F 
ATOM     35  C   UNL d   1     -41.955  13.380  20.557  0.00  0.00     0.005 A 
ENDBRANCH   6  29
TORSDOF 6
ENDMDL
MODEL 3
REMARK VINA RESULT:      -0.4      2.319      6.663
REMARK  6 active torsions:
REMARK  status: ('A' for Active; 'I' for Inactive)
REMARK    1  A    between atoms: S_12  and  C_5 
REMARK    2  A    between atoms: C_14  and  C_6 
REMARK    3  A    between atoms: C_10  and  C_13 
REMARK    4  A    between atoms: C_21  and  S_12 
REMARK    5  A    between atoms: C_15  and  C_21 
REMARK       I    between atoms: N_16  and  C_15 
REMARK    6  A    between atoms: C_18  and  N_16 
ROOT
ATOM      1  C   UNL d   1     -39.713  15.228  19.475  0.00  0.00     0.186 A 
ATOM      2  C   UNL d   1     -40.403  14.766  19.475  0.00  0.00     0.065 A 
ATOM      3  N   UNL d   1     -39.303  15.363  20.176  0.00  0.00    -0.203 NA
ATOM      4  N   UNL d   1     -40.275  14.576  20.878  0.00  0.00    -0.220 NA
ATOM      5  C   UNL d   1     -40.674  14.447  20.178  0.00  0.00     0.116 A 
ATOM      6  C   UNL d   1     -39.583  15.037  20.886  0.00  0.00     0.165 A 
ATOM      7  O   UNL d   1     -39.432  15.553  18.773  0.00  0.00    -0.289 OA
ATOM      8  C   UNL d   1     -40.810  14.632  18.770  0.00  0.00     0.007 A 
ATOM      9  C   UNL d   1     -39.839  15.421  18.060  0.00  0.00     0.102 A 
ATOM     10  C   UNL d   1     -40.526  14.961  18.061  0.00  0.00     0.023 A 
ATOM     11  C   UNL d   1     -39.561  15.743  17.366  0.00  0.00     0.025 A 
ATOM     12  C   UNL d   1     -40.929  14.830  17.360  0.00  0.00     0.002 A 
ATOM     13  C   UNL d   1     -39.957  15.617  16.657  0.00  0.00     0.002 A 
ATOM     14  C   UNL d   1     -40.645  15.158  16.654  0.00  0.00     0.000 A 
ENDROOT
BRANCH   5  15
ATOM     15  S   UNL d   1     -41.366  13.984  20.178  0.00  0.00    -0.062 SA
BRANCH  15  16
ATOM     16  C   UNL d   1     -42.010  14.209  20.635  0.00  0.00     0.099 C 
BRANCH  16  17
ATOM     17  C   UNL d   1     -42.532  13.640  20.913  0.00  0.00     0.286 C 
ATOM     18  N   UNL d   1     -43.136  13.850  21.440  0.00  0.00    -0.208 NA
ATOM     19  O   UNL d   1     -42.464  12.855  20.674  0.00  0.00    -0.265 OA
BRANCH  18  20
ATOM     20  C   UNL d   1     -43.657  13.281  21.718  0.00  0.00     0.085 A 
ATOM     21  C   UNL d   1     -44.433  13.488  21.865  0.00  0.00     0.025 A 
ATOM     22  C   UNL d   1     -44.958  12.926  22.142  0.00  0.00     0.066 A 
ATOM     23  C   UNL d   1     -44.704  12.146  22.274  0.00  0.00     0.006 A 
ATOM     24  C   UNL d   1     -43.922  11.946  22.123  0.00  0.00     0.002 A 
ATOM     25  C   UNL d   1     -43.390  12.513  21.843  0.00  0.00     0.019 A 
BRANCH  22  26
ATOM     26  C   UNL d   1     -45.747  13.125  22.295  0.00  0.00     0.211 C 
ATOM     27  O   UNL d   1     -45.940  13.481  23.011  0.00  0.00    -0.644 OA
ATOM     28  O   UNL d   1     -46.333  12.969  21.739  0.00  0.00    -0.644 OA
ENDBRANCH  22  26
ENDBRANCH  18  20
ENDBRANCH  16  17
ENDBRANCH  15  16
ENDBRANCH   5  15
BRANCH   6  29
ATOM     29  C   UNL d   1     -39.174  15.172  21.590  0.00  0.00     0.036 A 
ATOM     30  C   UNL d   1     -38.534  14.693  21.786  0.00  0.00     0.005 A 
ATOM     31  C   UNL d   1     -38.119  14.824  22.491  0.00  0.00     0.030 A 
ATOM     32  C   UNL d   1     -38.348  15.436  22.998  0.00  0.00     0.140 A 
ATOM     33  C   UNL d   1     -38.999  15.922  22.797  0.00  0.00     0.030 A 
ATOM     34  F   UNL d   1     -37.940  15.570  23.698  0.00  0.00    -0.204 F 
ATOM     35  C   UNL d   1     -39.405  15.782  22.092  0.00  0.00     0.005 A 
ENDBRANCH   6  29
TORSDOF 6
ENDMDL
MODEL 4
REMARK VINA RESULT:       0.9      3.286      5.720
REMARK  6 active torsions:
REMARK  status: ('A' for Active; 'I' for Inactive)
REMARK    1  A    between atoms: S_12  and  C_5 
REMARK    2  A    between atoms: C_14  and  C_6 
REMARK    3  A    between atoms: C_10  and  C_13 
REMARK    4  A    between atoms: C_21  and  S_12 
REMARK    5  A    between atoms: C_15  and  C_21 
REMARK       I    between atoms: N_16  and  C_15 
REMARK    6  A    between atoms: C_18  and  N_16 
ROOT
ATOM      1  C   UNL d   1     -40.377  14.439  21.930  0.00  0.00     0.186 A 
ATOM      2  C   UNL d   1     -39.937  14.564  21.237  0.00  0.00     0.065 A 
ATOM      3  N   UNL d   1     -41.096  14.039  21.898  0.00  0.00    -0.203 NA
ATOM      4  N   UNL d   1     -40.933  13.889  20.482  0.00  0.00    -0.220 NA
ATOM      5  C   UNL d   1     -40.222  14.287  20.522  0.00  0.00     0.116 A 
ATOM      6  C   UNL d   1     -41.380  13.759  21.170  0.00  0.00     0.165 A 
ATOM      7  O   UNL d   1     -40.100  14.714  22.653  0.00  0.00    -0.289 OA
ATOM      8  C   UNL d   1     -39.217  14.966  21.273  0.00  0.00     0.007 A 
ATOM      9  C   UNL d   1     -39.375  15.120  22.695  0.00  0.00     0.102 A 
ATOM     10  C   UNL d   1     -38.936  15.244  22.005  0.00  0.00     0.023 A 
ATOM     11  C   UNL d   1     -39.100  15.392  23.411  0.00  0.00     0.025 A 
ATOM     12  C   UNL d   1     -38.222  15.644  22.043  0.00  0.00     0.002 A 
ATOM     13  C   UNL d   1     -38.384  15.794  23.460  0.00  0.00     0.002 A 
ATOM     14  C   UNL d   1     -37.943  15.920  22.772  0.00  0.00     0.000 A 
ENDROOT
BRANCH   5  15
ATOM     15  S   UNL d   1     -39.780  14.412  19.828  0.00  0.00    -0.062 SA
BRANCH  15  16
ATOM     16  C   UNL d   1     -40.023  14.074  19.121  0.00  0.00     0.099 C 
BRANCH  16  17
ATOM     17  C   UNL d   1     -39.748  14.375  18.408  0.00  0.00     0.286 C 
ATOM     18  N   UNL d   1     -39.412  13.870  17.844  0.00  0.00    -0.208 NA
ATOM     19  O   UNL d   1     -39.801  15.180  18.245  0.00  0.00    -0.265 OA
BRANCH  18  20
ATOM     20  C   UNL d   1     -39.138  14.172  17.132  0.00  0.00     0.085 A 
ATOM     21  C   UNL d   1     -38.832  13.662  16.573  0.00  0.00     0.025 A 
ATOM     22  C   UNL d   1     -38.557  13.956  15.862  0.00  0.00     0.066 A 
ATOM     23  C   UNL d   1     -38.588  14.771  15.707  0.00  0.00     0.006 A 
ATOM     24  C   UNL d   1     -38.897  15.278  16.274  0.00  0.00     0.002 A 
ATOM     25  C   UNL d   1     -39.175  14.982  16.993  0.00  0.00     0.019 A 
BRANCH  22  26
ATOM     26  C   UNL d   1     -38.245  13.447  15.288  0.00  0.00     0.211 C 
ATOM     27  O   UNL d   1     -38.242  13.686  14.500  0.00  0.00    -0.644 OA
ATOM     28  O   UNL d   1     -37.941  12.713  15.499  0.00  0.00    -0.644 OA
ENDBRANCH  22  26
ENDBRANCH  18  20
ENDBRANCH  16  17
ENDBRANCH  15  16
ENDBRANCH   5  15
BRANCH   6  29
ATOM     29  C   UNL d   1     -42.101  13.357  21.137  0.00  0.00     0.036 A 
ATOM     30  C   UNL d   1     -42.244  12.736  21.658  0.00  0.00     0.005 A 
ATOM     31  C   UNL d   1     -42.965  12.330  21.630  0.00  0.00     0.030 A 
ATOM     32  C   UNL d   1     -43.541  12.548  21.078  0.00  0.00     0.140 A 
ATOM     33  C   UNL d   1     -43.394  13.178  20.549  0.00  0.00     0.030 A 
ATOM     34  F   UNL d   1     -44.257  12.147  21.046  0.00  0.00    -0.204 F 
ATOM     35  C   UNL d   1     -42.672  13.577  20.586  0.00  0.00     0.005 A 
ENDBRANCH   6  29
TORSDOF 6
ENDMDL
