MODEL 1
REMARK VINA RESULT:      -8.4      0.000      0.000
REMARK  2 active torsions:
REMARK  status: ('A' for Active; 'I' for Inactive)
REMARK    1  A    between atoms: N_4  and  C_2 
REMARK       I    between atoms: C_3  and  N_4 
REMARK    2  A    between atoms: C_5  and  C_3 
ROOT
ATOM      1  C   UNL d   1      53.591  31.637  53.328  0.00  0.00     0.282 C 
ATOM      2  N   UNL d   1      52.899  31.781  52.899  0.00  0.00    -0.182 NA
ATOM      3  O   UNL d   1      53.986  30.917  53.228  0.00  0.00    -0.265 OA
ENDROOT
BRANCH   1   4
ATOM      4  C   UNL d   1      53.874  32.214  53.849  0.00  0.00     0.069 A 
ATOM      5  C   UNL d   1      54.567  32.608  53.662  0.00  0.00     0.063 A 
ATOM      6  C   UNL d   1      54.854  33.186  54.179  0.00  0.00     0.023 A 
ATOM      7 CL   UNL d   1      54.979  32.442  52.974  0.00  0.00    -0.082 Cl
ATOM      8  C   UNL d   1      54.442  33.357  54.874  0.00  0.00     0.059 A 
ATOM      9  C   UNL d   1      53.750  32.956  55.050  0.00  0.00     0.012 A 
ATOM     10 CL   UNL d   1      54.739  33.944  55.395  0.00  0.00    -0.082 Cl
ATOM     11  C   UNL d   1      53.473  32.384  54.531  0.00  0.00     0.006 A 
ENDBRANCH   1   4
BRANCH   2  12
ATOM     12  C   UNL d   1      52.500  32.494  52.993  0.00  0.00     0.204 A 
ATOM     13  N   UNL d   1      52.595  33.167  52.520  0.00  0.00    -0.203 NA
ATOM     14  C   UNL d   1      52.087  33.763  52.808  0.00  0.00     0.174 A 
ATOM     15  S   UNL d   1      51.686  33.440  53.459  0.00  0.00    -0.018 SA
ATOM     16  S   UNL d   1      52.003  34.523  52.501  0.00  0.00    -0.050 SA
ATOM     17  S   UNL d   1      51.944  32.633  53.583  0.00  0.00    -0.010 SA
ENDBRANCH   2  12
TORSDOF 2
ENDMDL
MODEL 2
REMARK VINA RESULT:      -8.2      1.556      2.302
REMARK  2 active torsions:
REMARK  status: ('A' for Active; 'I' for Inactive)
REMARK    1  A    between atoms: N_4  and  C_2 
REMARK       I    between atoms: C_3  and  N_4 
REMARK    2  A    between atoms: C_5  and  C_3 
ROOT
ATOM      1  C   UNL d   1      54.033  34.085  54.645  0.00  0.00     0.282 C 
ATOM      2  N   UNL d   1      53.444  34.638  54.469  0.00  0.00    -0.182 NA
ATOM      3  O   UNL d   1      54.642  34.293  55.164  0.00  0.00    -0.265 OA
ENDROOT
BRANCH   1   4
ATOM      4  C   UNL d   1      54.003  33.334  54.297  0.00  0.00     0.069 A 
ATOM      5  C   UNL d   1      53.917  32.679  54.781  0.00  0.00     0.063 A 
ATOM      6  C   UNL d   1      53.885  31.928  54.439  0.00  0.00     0.023 A 
ATOM      7 CL   UNL d   1      53.861  32.755  55.594  0.00  0.00    -0.082 Cl
ATOM      8  C   UNL d   1      53.941  31.846  53.618  0.00  0.00     0.059 A 
ATOM      9  C   UNL d   1      54.027  32.509  53.145  0.00  0.00     0.012 A 
ATOM     10 CL   UNL d   1      53.909  31.081  53.277  0.00  0.00    -0.082 Cl
ATOM     11  C   UNL d   1      54.057  33.251  53.494  0.00  0.00     0.006 A 
ENDBRANCH   1   4
BRANCH   2  12
ATOM     12  C   UNL d   1      52.836  34.439  53.954  0.00  0.00     0.204 A 
ATOM     13  N   UNL d   1      52.113  34.097  54.168  0.00  0.00    -0.203 NA
ATOM     14  C   UNL d   1      51.660  33.987  53.477  0.00  0.00     0.174 A 
ATOM     15  S   UNL d   1      52.119  34.267  52.844  0.00  0.00    -0.018 SA
ATOM     16  S   UNL d   1      50.903  33.664  53.435  0.00  0.00    -0.050 SA
ATOM     17  S   UNL d   1      52.868  34.555  53.141  0.00  0.00    -0.010 SA
ENDBRANCH   2  12
TORSDOF 2
ENDMDL
MODEL 3
REMARK VINA RESULT:      -7.9      2.202      3.092
REMARK  2 active torsions:
REMARK  status: ('A' for Active; 'I' for Inactive)
REMARK    1  A    between atoms: N_4  and  C_2 
REMARK       I    between atoms: C_3  and  N_4 
REMARK    2  A    between atoms: C_5  and  C_3 
ROOT
ATOM      1  C   UNL d   1      53.308  34.222  54.848  0.00  0.00     0.282 C 
ATOM      2  N   UNL d   1      53.867  33.623  54.962  0.00  0.00    -0.182 NA
ATOM      3  O   UNL d   1      53.247  34.830  55.405  0.00  0.00    -0.265 OA
ENDROOT
BRANCH   1   4
ATOM      4  C   UNL d   1      52.821  34.201  54.179  0.00  0.00     0.069 A 
ATOM      5  C   UNL d   1      52.906  34.785  53.611  0.00  0.00     0.063 A 
ATOM      6  C   UNL d   1      52.421  34.769  52.942  0.00  0.00     0.023 A 
ATOM      7 CL   UNL d   1      53.459  35.382  53.694  0.00  0.00    -0.082 Cl
ATOM      8  C   UNL d   1      51.861  34.168  52.854  0.00  0.00     0.059 A 
ATOM      9  C   UNL d   1      51.785  33.590  53.429  0.00  0.00     0.012 A 
ATOM     10 CL   UNL d   1      51.372  34.158  52.172  0.00  0.00    -0.082 Cl
ATOM     11  C   UNL d   1      52.271  33.615  54.090  0.00  0.00     0.006 A 
ENDBRANCH   1   4
BRANCH   2  12
ATOM     12  C   UNL d   1      53.933  33.015  54.412  0.00  0.00     0.204 A 
ATOM     13  N   UNL d   1      53.539  32.288  54.446  0.00  0.00    -0.203 NA
ATOM     14  C   UNL d   1      53.764  31.837  53.782  0.00  0.00     0.174 A 
ATOM     15  S   UNL d   1      54.298  32.301  53.348  0.00  0.00    -0.018 SA
ATOM     16  S   UNL d   1      53.503  31.077  53.596  0.00  0.00    -0.050 SA
ATOM     17  S   UNL d   1      54.411  33.052  53.744  0.00  0.00    -0.010 SA
ENDBRANCH   2  12
TORSDOF 2
ENDMDL
MODEL 4
REMARK VINA RESULT:      -7.8      1.801      2.479
REMARK  2 active torsions:
REMARK  status: ('A' for Active; 'I' for Inactive)
REMARK    1  A    between atoms: N_4  and  C_2 
REMARK       I    between atoms: C_3  and  N_4 
REMARK    2  A    between atoms: C_5  and  C_3 
ROOT
ATOM      1  C   UNL d   1      52.715  32.578  52.756  0.00  0.00     0.282 C 
ATOM      2  N   UNL d   1      52.547  31.790  52.569  0.00  0.00    -0.182 NA
ATOM      3  O   UNL d   1      52.350  33.182  52.325  0.00  0.00    -0.265 OA
ENDROOT
BRANCH   1   4
ATOM      4  C   UNL d   1      53.244  32.747  53.369  0.00  0.00     0.069 A 
ATOM      5  C   UNL d   1      52.967  33.138  54.033  0.00  0.00     0.063 A 
ATOM      6  C   UNL d   1      53.491  33.309  54.648  0.00  0.00     0.023 A 
ATOM      7 CL   UNL d   1      52.182  33.362  54.097  0.00  0.00    -0.082 Cl
ATOM      8  C   UNL d   1      54.284  33.085  54.587  0.00  0.00     0.059 A 
ATOM      9  C   UNL d   1      54.549  32.694  53.918  0.00  0.00     0.012 A 
ATOM     10 CL   UNL d   1      54.812  33.261  55.215  0.00  0.00    -0.082 Cl
ATOM     11  C   UNL d   1      54.021  32.529  53.313  0.00  0.00     0.006 A 
ENDBRANCH   1   4
BRANCH   2  12
ATOM     12  C   UNL d   1      52.906  31.184  52.993  0.00  0.00     0.204 A 
ATOM     13  N   UNL d   1      52.567  30.768  53.623  0.00  0.00    -0.203 NA
ATOM     14  C   UNL d   1      53.118  30.203  53.892  0.00  0.00     0.174 A 
ATOM     15  S   UNL d   1      53.794  30.285  53.416  0.00  0.00    -0.018 SA
ATOM     16  S   UNL d   1      53.010  29.669  54.510  0.00  0.00    -0.050 SA
ATOM     17  S   UNL d   1      53.666  30.907  52.842  0.00  0.00    -0.010 SA
ENDBRANCH   2  12
TORSDOF 2
ENDMDL
MODEL 5
REMARK VINA RESULT:      -7.8      1.964      2.756
REMARK  2 active torsions:
REMARK  status: ('A' for Active; 'I' for Inactive)
REMARK    1  A    between atoms: N_4  and  C_2 
REMARK       I    between atoms: C_3  and  N_4 
REMARK    2  A    between atoms: C_5  and  C_3 
ROOT
ATOM      1  C   UNL d   1      52.919  31.862  52.913  0.00  0.00     0.282 C 
ATOM      2  N   UNL d   1      53.605  31.682  53.339  0.00  0.00    -0.182 NA
ATOM      3  O   UNL d   1      52.574  31.280  52.437  0.00  0.00    -0.265 OA
ENDROOT
BRANCH   1   4
ATOM      4  C   UNL d   1      52.592  32.620  52.970  0.00  0.00     0.069 A 
ATOM      5  C   UNL d   1      51.837  32.701  53.277  0.00  0.00     0.063 A 
ATOM      6  C   UNL d   1      51.506  33.456  53.337  0.00  0.00     0.023 A 
ATOM      7 CL   UNL d   1      51.406  32.051  53.524  0.00  0.00    -0.082 Cl
ATOM      8  C   UNL d   1      51.937  34.115  53.089  0.00  0.00     0.059 A 
ATOM      9  C   UNL d   1      52.692  34.021  52.784  0.00  0.00     0.012 A 
ATOM     10 CL   UNL d   1      51.596  34.879  53.152  0.00  0.00    -0.082 Cl
ATOM     11  C   UNL d   1      53.012  33.268  52.728  0.00  0.00     0.006 A 
ENDBRANCH   1   4
BRANCH   2  12
ATOM     12  C   UNL d   1      53.954  32.255  53.814  0.00  0.00     0.204 A 
ATOM     13  N   UNL d   1      53.815  32.362  54.623  0.00  0.00    -0.203 NA
ATOM     14  C   UNL d   1      54.281  33.001  54.886  0.00  0.00     0.174 A 
ATOM     15  S   UNL d   1      54.701  33.278  54.226  0.00  0.00    -0.018 SA
ATOM     16  S   UNL d   1      54.314  33.298  55.654  0.00  0.00    -0.050 SA
ATOM     17  S   UNL d   1      54.498  32.807  53.540  0.00  0.00    -0.010 SA
ENDBRANCH   2  12
TORSDOF 2
ENDMDL
MODEL 6
REMARK VINA RESULT:      -6.5      2.186      3.046
REMARK  2 active torsions:
REMARK  status: ('A' for Active; 'I' for Inactive)
REMARK    1  A    between atoms: N_4  and  C_2 
REMARK       I    between atoms: C_3  and  N_4 
REMARK    2  A    between atoms: C_5  and  C_3 
ROOT
ATOM      1  C   UNL d   1      52.370  34.217  52.935  0.00  0.00     0.282 C 
ATOM      2  N   UNL d   1      52.748  34.695  53.494  0.00  0.00    -0.182 NA
ATOM      3  O   UNL d   1      51.916  34.570  52.342  0.00  0.00    -0.265 OA
ENDROOT
BRANCH   1   4
ATOM      4  C   UNL d   1      52.454  33.395  52.981  0.00  0.00     0.069 A 
ATOM      5  C   UNL d   1      51.799  32.941  53.170  0.00  0.00     0.063 A 
ATOM      6  C   UNL d   1      51.877  32.120  53.217  0.00  0.00     0.023 A 
ATOM      7 CL   UNL d   1      51.070  33.286  53.313  0.00  0.00    -0.082 Cl
ATOM      8  C   UNL d   1      52.611  31.768  53.073  0.00  0.00     0.059 A 
ATOM      9  C   UNL d   1      53.259  32.232  52.885  0.00  0.00     0.012 A 
ATOM     10 CL   UNL d   1      52.684  30.934  53.122  0.00  0.00    -0.082 Cl
ATOM     11  C   UNL d   1      53.171  33.047  52.841  0.00  0.00     0.006 A 
ENDBRANCH   1   4
BRANCH   2  12
ATOM     12  C   UNL d   1      53.202  34.352  54.088  0.00  0.00     0.204 A 
ATOM     13  N   UNL d   1      54.014  34.201  54.048  0.00  0.00    -0.203 NA
ATOM     14  C   UNL d   1      54.251  33.849  54.766  0.00  0.00     0.174 A 
ATOM     15  S   UNL d   1      53.570  33.791  55.238  0.00  0.00    -0.018 SA
ATOM     16  S   UNL d   1      55.014  33.608  54.965  0.00  0.00    -0.050 SA
ATOM     17  S   UNL d   1      52.899  34.109  54.812  0.00  0.00    -0.010 SA
ENDBRANCH   2  12
TORSDOF 2
ENDMDL
