MODEL 1
REMARK VINA RESULT:      60.8      0.000      0.000
REMARK  7 active torsions:
REMARK  status: ('A' for Active; 'I' for Inactive)
REMARK    1  A    between atoms: N_4  and  C_1 
REMARK    2  A    between atoms: C_9  and  C_2 
REMARK    3  A    between atoms: C_7  and  N_4 
REMARK       I    between atoms: C_10  and  N_8 
REMARK    4  A    between atoms: C_17  and  C_10 
REMARK    5  A    between atoms: C_12  and  C_18 
REMARK    6  A    between atoms: O_20  and  C_12 
REMARK    7  A    between atoms: C_18  and  C_17 
ROOT
ATOM      1  N   UNL d   1     -47.516  31.199  35.048  0.00  0.00    -0.211 NA
ENDROOT
BRANCH   1   2
ATOM      2  C   UNL d   1     -47.497  31.864  34.529  0.00  0.00     0.118 A 
ATOM      3  C   UNL d   1     -48.171  32.268  34.217  0.00  0.00     0.084 A 
ATOM      4  C   UNL d   1     -47.896  32.880  33.737  0.00  0.00     0.013 A 
ATOM      5  C   UNL d   1     -48.385  33.436  33.306  0.00  0.00     0.001 C 
ATOM      6  C   UNL d   1     -47.089  32.874  33.739  0.00  0.00     0.031 A 
ATOM      7  S   UNL d   1     -46.831  32.255  34.221  0.00  0.00    -0.068 SA
ATOM      8  C   UNL d   1     -46.599  33.424  33.307  0.00  0.00     0.007 C 
BRANCH   3   9
ATOM      9  C   UNL d   1     -48.986  32.074  34.372  0.00  0.00     0.299 C 
ATOM     10  O   UNL d   1     -49.397  32.456  35.003  0.00  0.00    -0.264 OA
ATOM     11  N   UNL d   1     -49.397  31.495  33.893  0.00  0.00    -0.102 N 
ENDBRANCH   3   9
ENDBRANCH   1   2
BRANCH   1  12
ATOM     12  C   UNL d   1     -47.164  31.249  35.768  0.00  0.00     0.224 C 
ATOM     13  N   UNL d   1     -47.068  30.259  36.434  0.00  0.00    -0.179 NA
ATOM     14  C   UNL d   1     -47.356  29.559  36.151  0.00  0.00     0.281 C 
ATOM     15  O   UNL d   1     -47.291  28.893  36.599  0.00  0.00    -0.265 OA
ATOM     16  S   UNL d   1     -46.877  31.952  36.047  0.00  0.00    -0.037 SA
BRANCH  14  17
ATOM     17  C   UNL d   1     -47.704  29.522  35.433  0.00  0.00     0.068 C 
BRANCH  17  18
ATOM     18  C   UNL d   1     -47.755  28.801  35.065  0.00  0.00     0.073 C 
BRANCH  18  19
ATOM     19  C   UNL d   1     -48.489  28.451  35.016  0.00  0.00     0.296 C 
ATOM     20  O   UNL d   1     -48.940  28.395  35.653  0.00  0.00    -0.259 OA
BRANCH  19  21
ATOM     21  O   UNL d   1     -48.749  28.162  34.304  0.00  0.00    -0.296 OA
ATOM     22  C   UNL d   1     -49.210  27.487  34.292  0.00  0.00     0.185 C 
ENDBRANCH  19  21
ENDBRANCH  18  19
ENDBRANCH  17  18
ENDBRANCH  14  17
ENDBRANCH   1  12
TORSDOF 7
ENDMDL
MODEL 2
REMARK VINA RESULT:      61.3      4.800      7.078
REMARK  7 active torsions:
REMARK  status: ('A' for Active; 'I' for Inactive)
REMARK    1  A    between atoms: N_4  and  C_1 
REMARK    2  A    between atoms: C_9  and  C_2 
REMARK    3  A    between atoms: C_7  and  N_4 
REMARK       I    between atoms: C_10  and  N_8 
REMARK    4  A    between atoms: C_17  and  C_10 
REMARK    5  A    between atoms: C_12  and  C_18 
REMARK    6  A    between atoms: O_20  and  C_12 
REMARK    7  A    between atoms: C_18  and  C_17 
ROOT
ATOM      1  N   UNL d   1     -51.355  26.140  33.714  0.00  0.00    -0.211 NA
ENDROOT
BRANCH   1   2
ATOM      2  C   UNL d   1     -51.840  25.458  33.603  0.00  0.00     0.118 A 
ATOM      3  C   UNL d   1     -51.568  24.658  33.565  0.00  0.00     0.084 A 
ATOM      4  C   UNL d   1     -52.228  24.175  33.452  0.00  0.00     0.013 A 
ATOM      5  C   UNL d   1     -52.215  23.322  33.381  0.00  0.00     0.001 C 
ATOM      6  C   UNL d   1     -52.889  24.636  33.419  0.00  0.00     0.031 A 
ATOM      7  S   UNL d   1     -52.665  25.425  33.510  0.00  0.00    -0.068 SA
ATOM      8  C   UNL d   1     -53.682  24.338  33.307  0.00  0.00     0.007 C 
BRANCH   3   9
ATOM      9  C   UNL d   1     -50.759  24.401  33.632  0.00  0.00     0.299 C 
ATOM     10  O   UNL d   1     -50.578  23.675  34.023  0.00  0.00    -0.264 OA
ATOM     11  N   UNL d   1     -50.121  24.872  33.308  0.00  0.00    -0.102 N 
ENDBRANCH   3   9
ENDBRANCH   1   2
BRANCH   1  12
ATOM     12  C   UNL d   1     -51.640  26.864  33.516  0.00  0.00     0.224 C 
ATOM     13  N   UNL d   1     -50.895  27.801  33.532  0.00  0.00    -0.179 NA
ATOM     14  C   UNL d   1     -50.122  27.692  33.741  0.00  0.00     0.281 C 
ATOM     15  O   UNL d   1     -49.621  28.324  33.752  0.00  0.00    -0.265 OA
ATOM     16  S   UNL d   1     -52.414  26.967  33.307  0.00  0.00    -0.037 SA
BRANCH  14  17
ATOM     17  C   UNL d   1     -49.851  26.967  33.936  0.00  0.00     0.068 C 
BRANCH  17  18
ATOM     18  C   UNL d   1     -49.056  26.874  34.070  0.00  0.00     0.073 C 
BRANCH  18  19
ATOM     19  C   UNL d   1     -48.709  26.180  33.823  0.00  0.00     0.296 C 
ATOM     20  O   UNL d   1     -49.075  25.718  33.310  0.00  0.00    -0.259 OA
BRANCH  19  21
ATOM     21  O   UNL d   1     -47.980  25.972  34.113  0.00  0.00    -0.296 OA
ATOM     22  C   UNL d   1     -47.512  26.543  34.466  0.00  0.00     0.185 C 
ENDBRANCH  19  21
ENDBRANCH  18  19
ENDBRANCH  17  18
ENDBRANCH  14  17
ENDBRANCH   1  12
TORSDOF 7
ENDMDL
MODEL 3
REMARK VINA RESULT:      62.3      5.116      7.350
REMARK  7 active torsions:
REMARK  status: ('A' for Active; 'I' for Inactive)
REMARK    1  A    between atoms: N_4  and  C_1 
REMARK    2  A    between atoms: C_9  and  C_2 
REMARK    3  A    between atoms: C_7  and  N_4 
REMARK       I    between atoms: C_10  and  N_8 
REMARK    4  A    between atoms: C_17  and  C_10 
REMARK    5  A    between atoms: C_12  and  C_18 
REMARK    6  A    between atoms: O_20  and  C_12 
REMARK    7  A    between atoms: C_18  and  C_17 
ROOT
ATOM      1  N   UNL d   1     -51.336  25.683  34.547  0.00  0.00    -0.211 NA
ENDROOT
BRANCH   1   2
ATOM      2  C   UNL d   1     -51.938  25.221  34.178  0.00  0.00     0.118 A 
ATOM      3  C   UNL d   1     -51.873  24.407  33.958  0.00  0.00     0.084 A 
ATOM      4  C   UNL d   1     -52.590  24.182  33.617  0.00  0.00     0.013 A 
ATOM      5  C   UNL d   1     -52.775  23.403  33.312  0.00  0.00     0.001 C 
ATOM      6  C   UNL d   1     -53.091  24.814  33.616  0.00  0.00     0.031 A 
ATOM      7  S   UNL d   1     -52.704  25.458  33.958  0.00  0.00    -0.068 SA
ATOM      8  C   UNL d   1     -53.888  24.800  33.308  0.00  0.00     0.007 C 
BRANCH   3   9
ATOM      9  C   UNL d   1     -51.189  23.912  34.069  0.00  0.00     0.299 C 
ATOM     10  O   UNL d   1     -51.090  23.486  34.792  0.00  0.00    -0.264 OA
ATOM     11  N   UNL d   1     -50.596  23.839  33.456  0.00  0.00    -0.102 N 
ENDBRANCH   3   9
ENDBRANCH   1   2
BRANCH   1  12
ATOM     12  C   UNL d   1     -50.887  26.176  34.100  0.00  0.00     0.224 C 
ATOM     13  N   UNL d   1     -50.357  27.110  34.628  0.00  0.00    -0.179 NA
ATOM     14  C   UNL d   1     -50.458  27.230  35.421  0.00  0.00     0.281 C 
ATOM     15  O   UNL d   1     -50.101  27.860  35.776  0.00  0.00    -0.265 OA
ATOM     16  S   UNL d   1     -50.789  26.051  33.307  0.00  0.00    -0.037 SA
BRANCH  14  17
ATOM     17  C   UNL d   1     -50.907  26.733  35.854  0.00  0.00     0.068 C 
BRANCH  17  18
ATOM     18  C   UNL d   1     -51.369  27.043  36.444  0.00  0.00     0.073 C 
BRANCH  18  19
ATOM     19  C   UNL d   1     -51.383  26.654  37.160  0.00  0.00     0.296 C 
ATOM     20  O   UNL d   1     -50.761  26.679  37.633  0.00  0.00    -0.259 OA
BRANCH  19  21
ATOM     21  O   UNL d   1     -52.046  26.240  37.378  0.00  0.00    -0.296 OA
ATOM     22  C   UNL d   1     -52.130  26.002  38.156  0.00  0.00     0.185 C 
ENDBRANCH  19  21
ENDBRANCH  18  19
ENDBRANCH  17  18
ENDBRANCH  14  17
ENDBRANCH   1  12
TORSDOF 7
ENDMDL
