MODEL 1
REMARK VINA RESULT:      78.5      0.000      0.000
REMARK  4 active torsions:
REMARK  status: ('A' for Active; 'I' for Inactive)
REMARK    1  A    between atoms: N_8  and  C_1 
REMARK    2  A    between atoms: C_13  and  N_4 
REMARK    3  A    between atoms: C_6  and  N_8 
REMARK    4  A    between atoms: C_14  and  C_9 
ROOT
ATOM      1  C   UNL d   1      60.954  47.830  50.775  0.00  0.00     0.135 A 
ATOM      2  C   UNL d   1      61.388  47.458  50.172  0.00  0.00     0.296 A 
ATOM      3  N   UNL d   1      60.805  46.517  50.910  0.00  0.00    -0.238 N 
ATOM      4  N   UNL d   1      61.294  46.647  50.258  0.00  0.00    -0.209 N 
ATOM      5  C   UNL d   1      60.603  47.246  51.219  0.00  0.00     0.102 A 
ATOM      6  O   UNL d   1      61.830  47.837  49.596  0.00  0.00    -0.264 OA
ATOM      7  C   UNL d   1      60.566  45.786  51.195  0.00  0.00     0.120 C 
ATOM      8  C   UNL d   1      60.115  47.367  51.881  0.00  0.00     0.022 C 
ENDROOT
BRANCH   1   9
ATOM      9  N   UNL d   1      60.896  48.644  50.894  0.00  0.00    -0.329 N 
ATOM     10  H   UNL d   1      61.583  49.105  50.925  0.00  0.00     0.168 HD
BRANCH   9  11
ATOM     11  C   UNL d   1      60.163  48.997  50.982  0.00  0.00     0.172 A 
ATOM     12  N   UNL d   1      59.533  48.948  50.462  0.00  0.00    -0.222 NA
ATOM     13  C   UNL d   1      58.907  49.390  50.774  0.00  0.00     0.090 A 
ATOM     14  C   UNL d   1      59.155  49.708  51.485  0.00  0.00     0.057 A 
ATOM     15  S   UNL d   1      59.937  49.466  51.619  0.00  0.00    -0.048 SA
BRANCH  13  16
ATOM     16  C   UNL d   1      58.170  49.487  50.425  0.00  0.00     0.018 A 
ATOM     17  C   UNL d   1      58.093  49.543  49.605  0.00  0.00     0.002 A 
ATOM     18  C   UNL d   1      57.349  49.639  49.266  0.00  0.00     0.000 A 
ATOM     19  C   UNL d   1      56.686  49.680  49.744  0.00  0.00     0.000 A 
ATOM     20  C   UNL d   1      56.751  49.626  50.550  0.00  0.00     0.000 A 
ATOM     21  C   UNL d   1      57.491  49.529  50.906  0.00  0.00     0.002 A 
ENDBRANCH  13  16
ENDBRANCH   9  11
ENDBRANCH   1   9
BRANCH   4  22
ATOM     22  C   UNL d   1      61.625  46.066  49.783  0.00  0.00     0.085 A 
ATOM     23  C   UNL d   1      61.208  45.372  49.623  0.00  0.00     0.019 A 
ATOM     24  C   UNL d   1      61.549  44.795  49.145  0.00  0.00     0.002 A 
ATOM     25  C   UNL d   1      62.302  44.909  48.829  0.00  0.00     0.000 A 
ATOM     26  C   UNL d   1      62.719  45.602  48.990  0.00  0.00     0.002 A 
ATOM     27  C   UNL d   1      62.384  46.182  49.466  0.00  0.00     0.019 A 
ENDBRANCH   4  22
TORSDOF 4
ENDMDL
MODEL 2
REMARK VINA RESULT:      81.0      0.816      1.513
REMARK  4 active torsions:
REMARK  status: ('A' for Active; 'I' for Inactive)
REMARK    1  A    between atoms: N_8  and  C_1 
REMARK    2  A    between atoms: C_13  and  N_4 
REMARK    3  A    between atoms: C_6  and  N_8 
REMARK    4  A    between atoms: C_14  and  C_9 
ROOT
ATOM      1  C   UNL d   1      60.948  48.235  50.915  0.00  0.00     0.135 A 
ATOM      2  C   UNL d   1      60.805  47.440  51.107  0.00  0.00     0.296 A 
ATOM      3  N   UNL d   1      61.459  47.482  49.947  0.00  0.00    -0.238 N 
ATOM      4  N   UNL d   1      61.122  46.976  50.506  0.00  0.00    -0.209 N 
ATOM      5  C   UNL d   1      61.348  48.248  50.206  0.00  0.00     0.102 A 
ATOM      6  O   UNL d   1      60.418  47.169  51.774  0.00  0.00    -0.264 OA
ATOM      7  C   UNL d   1      61.837  47.253  49.257  0.00  0.00     0.120 C 
ATOM      8  C   UNL d   1      61.603  48.931  49.806  0.00  0.00     0.022 C 
ENDROOT
BRANCH   1   9
ATOM      9  N   UNL d   1      60.723  48.887  51.368  0.00  0.00    -0.329 N 
ATOM     10  H   UNL d   1      61.281  49.266  51.848  0.00  0.00     0.168 HD
BRANCH   9  11
ATOM     11  C   UNL d   1      59.953  49.160  51.344  0.00  0.00     0.172 A 
ATOM     12  N   UNL d   1      59.444  49.128  50.703  0.00  0.00    -0.222 NA
ATOM     13  C   UNL d   1      58.724  49.467  50.929  0.00  0.00     0.090 A 
ATOM     14  C   UNL d   1      58.794  49.706  51.707  0.00  0.00     0.057 A 
ATOM     15  S   UNL d   1      59.557  49.517  51.970  0.00  0.00    -0.048 SA
BRANCH  13  16
ATOM     16  C   UNL d   1      58.062  49.546  50.449  0.00  0.00     0.018 A 
ATOM     17  C   UNL d   1      57.305  49.597  50.777  0.00  0.00     0.002 A 
ATOM     18  C   UNL d   1      56.649  49.676  50.287  0.00  0.00     0.000 A 
ATOM     19  C   UNL d   1      56.747  49.704  49.475  0.00  0.00     0.000 A 
ATOM     20  C   UNL d   1      57.486  49.655  49.144  0.00  0.00     0.000 A 
ATOM     21  C   UNL d   1      58.156  49.576  49.622  0.00  0.00     0.002 A 
ENDBRANCH  13  16
ENDBRANCH   9  11
ENDBRANCH   1   9
BRANCH   4  22
ATOM     22  C   UNL d   1      61.108  46.157  50.466  0.00  0.00     0.085 A 
ATOM     23  C   UNL d   1      61.519  45.763  49.868  0.00  0.00     0.019 A 
ATOM     24  C   UNL d   1      61.499  44.941  49.836  0.00  0.00     0.002 A 
ATOM     25  C   UNL d   1      61.071  44.514  50.398  0.00  0.00     0.000 A 
ATOM     26  C   UNL d   1      60.661  44.907  50.995  0.00  0.00     0.002 A 
ATOM     27  C   UNL d   1      60.677  45.728  51.032  0.00  0.00     0.019 A 
ENDBRANCH   4  22
TORSDOF 4
ENDMDL
