MODEL 1
REMARK VINA RESULT:      41.7      0.000      0.000
REMARK  4 active torsions:
REMARK  status: ('A' for Active; 'I' for Inactive)
REMARK    1  A    between atoms: C_2  and  C_1 
REMARK    2  A    between atoms: O_18  and  C_16 
REMARK    3  A    between atoms: C_17  and  C_19 
REMARK    4  A    between atoms: C_19  and  O_18 
ROOT
ATOM      1  C   UNL d   1      14.491  12.963  -1.676  0.00  0.00     0.030 A 
ATOM      2  C   UNL d   1      14.691  13.727  -1.434  0.00  0.00     0.027 A 
ATOM      3  C   UNL d   1      15.063  12.427  -0.489  0.00  0.00     0.300 A 
ATOM      4  C   UNL d   1      14.680  12.317  -1.199  0.00  0.00     0.071 A 
ATOM      5  C   UNL d   1      15.080  13.838  -0.713  0.00  0.00     0.103 A 
ATOM      6  O   UNL d   1      15.268  13.191  -0.237  0.00  0.00    -0.273 OA
ATOM      7  C   UNL d   1      14.502  14.384  -1.912  0.00  0.00     0.027 A 
ATOM      8  O   UNL d   1      15.249  11.780  -0.017  0.00  0.00    -0.259 OA
ATOM      9  C   UNL d   1      15.279  14.601  -0.472  0.00  0.00     0.027 A 
ATOM     10  C   UNL d   1      14.704  15.131  -1.663  0.00  0.00     0.100 A 
ATOM     11  C   UNL d   1      15.093  15.248  -0.943  0.00  0.00     0.027 A 
ENDROOT
BRANCH   1  12
ATOM     12  C   UNL d   1      14.098  12.856  -2.406  0.00  0.00     0.100 A 
ATOM     13  O   UNL d   1      13.955  13.433  -2.975  0.00  0.00    -0.307 OA
ATOM     14  C   UNL d   1      13.556  13.078  -3.595  0.00  0.00     0.100 A 
ATOM     15  C   UNL d   1      13.270  13.376  -4.309  0.00  0.00     0.025 A 
ATOM     16  C   UNL d   1      13.447  12.278  -3.419  0.00  0.00     0.025 A 
ATOM     17  C   UNL d   1      12.881  12.876  -4.838  0.00  0.00     0.002 A 
ATOM     18  C   UNL d   1      12.777  12.078  -4.653  0.00  0.00     0.000 A 
ATOM     19  C   UNL d   1      13.064  11.786  -3.939  0.00  0.00     0.002 A 
ATOM     20  C   UNL d   1      13.787  12.144  -2.675  0.00  0.00     0.027 A 
ENDBRANCH   1  12
BRANCH  10  21
ATOM     21  O   UNL d   1      14.516  15.783  -2.140  0.00  0.00    -0.302 OA
BRANCH  21  22
ATOM     22  C   UNL d   1      15.050  16.045  -2.697  0.00  0.00     0.165 C 
BRANCH  22  23
ATOM     23  C   UNL d   1      14.912  16.743  -3.106  0.00  0.00     0.220 C 
ATOM     24  O   UNL d   1      14.689  17.422  -2.694  0.00  0.00    -0.284 OA
ATOM     25  C   UNL d   1      14.993  16.771  -3.927  0.00  0.00     0.048 C 
ENDBRANCH  22  23
ENDBRANCH  21  22
ENDBRANCH  10  21
TORSDOF 4
ENDMDL
