MODEL 1
REMARK VINA RESULT:      -3.6      0.000      0.000
REMARK  3 active torsions:
REMARK  status: ('A' for Active; 'I' for Inactive)
REMARK    1  A    between atoms: C_2  and  S_1 
REMARK    2  A    between atoms: N_3  and  S_1 
REMARK    3  A    between atoms: C_12  and  N_3 
ROOT
ATOM      1  S   UNL d   1     -41.574-122.734 -50.327  0.00  0.00     0.285 S 
ATOM      2  O   UNL d   1     -41.794-122.018 -50.384  0.00  0.00    -0.198 OA
ATOM      3  O   UNL d   1     -41.207-123.412 -50.413  0.00  0.00    -0.198 OA
ENDROOT
BRANCH   1   4
ATOM      4  C   UNL d   1     -42.111-123.009 -49.750  0.00  0.00     0.105 A 
ATOM      5  C   UNL d   1     -41.894-123.018 -48.950  0.00  0.00     0.012 A 
ATOM      6  C   UNL d   1     -42.426-123.290 -48.379  0.00  0.00     0.001 A 
ATOM      7  C   UNL d   1     -41.128-122.745 -48.733  0.00  0.00     0.001 C 
ATOM      8  C   UNL d   1     -43.172-123.553 -48.611  0.00  0.00     0.000 A 
ATOM      9  C   UNL d   1     -43.401-123.549 -49.411  0.00  0.00     0.001 A 
ATOM     10  C   UNL d   1     -42.869-123.277 -49.982  0.00  0.00     0.013 A 
ATOM     11  C   UNL d   1     -44.159-123.817 -49.637  0.00  0.00     0.000 C 
ENDBRANCH   1   4
BRANCH   1  12
ATOM     12  N   UNL d   1     -41.125-122.425 -50.837  0.00  0.00    -0.158 NA
BRANCH  12  13
ATOM     13  C   UNL d   1     -41.243-122.706 -51.458  0.00  0.00     0.095 A 
ATOM     14  C   UNL d   1     -41.478-122.308 -51.976  0.00  0.00     0.040 A 
ATOM     15  C   UNL d   1     -41.590-122.597 -52.583  0.00  0.00     0.089 A 
ATOM     16  N   UNL d   1     -41.818-122.330 -53.174  0.00  0.00    -0.236 NA
ATOM     17  C   UNL d   1     -41.477-123.262 -52.691  0.00  0.00     0.049 A 
ATOM     18  C   UNL d   1     -41.841-122.842 -53.641  0.00  0.00     0.135 A 
ATOM     19  S   UNL d   1     -41.632-123.407 -53.339  0.00  0.00    -0.064 SA
ATOM     20  C   UNL d   1     -41.241-123.651 -52.164  0.00  0.00     0.010 A 
ATOM     21  C   UNL d   1     -41.123-123.373 -51.545  0.00  0.00     0.021 A 
ENDBRANCH  12  13
ENDBRANCH   1  12
TORSDOF 3
ENDMDL
MODEL 2
REMARK VINA RESULT:      -3.4      0.926      1.209
REMARK  3 active torsions:
REMARK  status: ('A' for Active; 'I' for Inactive)
REMARK    1  A    between atoms: C_2  and  S_1 
REMARK    2  A    between atoms: N_3  and  S_1 
REMARK    3  A    between atoms: C_12  and  N_3 
ROOT
ATOM      1  S   UNL d   1     -41.575-123.150 -51.023  0.00  0.00     0.285 S 
ATOM      2  O   UNL d   1     -41.833-123.813 -51.265  0.00  0.00    -0.198 OA
ATOM      3  O   UNL d   1     -41.167-122.498 -50.926  0.00  0.00    -0.198 OA
ENDROOT
BRANCH   1   4
ATOM      4  C   UNL d   1     -42.121-122.992 -50.411  0.00  0.00     0.105 A 
ATOM      5  C   UNL d   1     -41.998-123.305 -49.654  0.00  0.00     0.012 A 
ATOM      6  C   UNL d   1     -42.538-123.148 -49.048  0.00  0.00     0.001 A 
ATOM      7  C   UNL d   1     -41.319-123.782 -49.515  0.00  0.00     0.001 C 
ATOM      8  C   UNL d   1     -43.198-122.679 -49.203  0.00  0.00     0.000 A 
ATOM      9  C   UNL d   1     -43.331-122.359 -49.960  0.00  0.00     0.001 A 
ATOM     10  C   UNL d   1     -42.791-122.516 -50.566  0.00  0.00     0.013 A 
ATOM     11  C   UNL d   1     -44.002-121.884 -50.108  0.00  0.00     0.000 C 
ENDBRANCH   1   4
BRANCH   1  12
ATOM     12  N   UNL d   1     -41.123-123.352 -51.581  0.00  0.00    -0.158 NA
BRANCH  12  13
ATOM     13  C   UNL d   1     -41.281-122.998 -52.155  0.00  0.00     0.095 A 
ATOM     14  C   UNL d   1     -41.520-123.337 -52.712  0.00  0.00     0.040 A 
ATOM     15  C   UNL d   1     -41.672-122.977 -53.270  0.00  0.00     0.089 A 
ATOM     16  N   UNL d   1     -41.914-123.176 -53.883  0.00  0.00    -0.236 NA
ATOM     17  C   UNL d   1     -41.596-122.299 -53.293  0.00  0.00     0.049 A 
ATOM     18  C   UNL d   1     -41.982-122.609 -54.277  0.00  0.00     0.135 A 
ATOM     19  S   UNL d   1     -41.786-122.079 -53.910  0.00  0.00    -0.064 SA
ATOM     20  C   UNL d   1     -41.355-121.970 -52.728  0.00  0.00     0.010 A 
ATOM     21  C   UNL d   1     -41.197-122.321 -52.157  0.00  0.00     0.021 A 
ENDBRANCH  12  13
ENDBRANCH   1  12
TORSDOF 3
ENDMDL
MODEL 3
REMARK VINA RESULT:      -3.0      1.333      3.737
REMARK  3 active torsions:
REMARK  status: ('A' for Active; 'I' for Inactive)
REMARK    1  A    between atoms: C_2  and  S_1 
REMARK    2  A    between atoms: N_3  and  S_1 
REMARK    3  A    between atoms: C_12  and  N_3 
ROOT
ATOM      1  S   UNL d   1     -42.012-123.321 -50.548  0.00  0.00     0.285 S 
ATOM      2  O   UNL d   1     -42.720-123.386 -50.792  0.00  0.00    -0.198 OA
ATOM      3  O   UNL d   1     -41.349-123.394 -50.152  0.00  0.00    -0.198 OA
ENDROOT
BRANCH   1   4
ATOM      4  C   UNL d   1     -41.713-122.772 -51.101  0.00  0.00     0.105 A 
ATOM      5  C   UNL d   1     -41.541-123.013 -51.874  0.00  0.00     0.012 A 
ATOM      6  C   UNL d   1     -41.244-122.468 -52.422  0.00  0.00     0.001 A 
ATOM      7  C   UNL d   1     -41.671-123.815 -52.090  0.00  0.00     0.001 C 
ATOM      8  C   UNL d   1     -41.123-121.686 -52.192  0.00  0.00     0.000 A 
ATOM      9  C   UNL d   1     -41.293-121.433 -51.418  0.00  0.00     0.001 A 
ATOM     10  C   UNL d   1     -41.589-121.977 -50.870  0.00  0.00     0.013 A 
ATOM     11  C   UNL d   1     -41.167-120.638 -51.194  0.00  0.00     0.000 C 
ENDBRANCH   1   4
BRANCH   1  12
ATOM     12  N   UNL d   1     -42.342-123.808 -50.088  0.00  0.00    -0.158 NA
BRANCH  12  13
ATOM     13  C   UNL d   1     -42.295-123.586 -49.434  0.00  0.00     0.095 A 
ATOM     14  C   UNL d   1     -41.752-123.773 -49.046  0.00  0.00     0.040 A 
ATOM     15  C   UNL d   1     -41.718-123.548 -48.403  0.00  0.00     0.089 A 
ATOM     16  N   UNL d   1     -41.247-123.651 -47.913  0.00  0.00    -0.236 NA
ATOM     17  C   UNL d   1     -42.202-123.145 -48.138  0.00  0.00     0.049 A 
ATOM     18  C   UNL d   1     -41.452-123.307 -47.347  0.00  0.00     0.135 A 
ATOM     19  S   UNL d   1     -42.035-123.001 -47.493  0.00  0.00    -0.064 SA
ATOM     20  C   UNL d   1     -42.742-122.964 -48.537  0.00  0.00     0.010 A 
ATOM     21  C   UNL d   1     -42.790-123.184 -49.188  0.00  0.00     0.021 A 
ENDBRANCH  12  13
ENDBRANCH   1  12
TORSDOF 3
ENDMDL
MODEL 4
REMARK VINA RESULT:      -2.9      1.936      2.864
REMARK  3 active torsions:
REMARK  status: ('A' for Active; 'I' for Inactive)
REMARK    1  A    between atoms: C_2  and  S_1 
REMARK    2  A    between atoms: N_3  and  S_1 
REMARK    3  A    between atoms: C_12  and  N_3 
ROOT
ATOM      1  S   UNL d   1     -41.941-122.952 -52.777  0.00  0.00     0.285 S 
ATOM      2  O   UNL d   1     -42.681-122.850 -52.702  0.00  0.00    -0.198 OA
ATOM      3  O   UNL d   1     -41.237-123.159 -53.030  0.00  0.00    -0.198 OA
ENDROOT
BRANCH   1   4
ATOM      4  C   UNL d   1     -41.666-122.560 -52.094  0.00  0.00     0.105 A 
ATOM      5  C   UNL d   1     -41.526-122.987 -51.398  0.00  0.00     0.012 A 
ATOM      6  C   UNL d   1     -41.253-122.599 -50.721  0.00  0.00     0.001 A 
ATOM      7  C   UNL d   1     -41.665-123.817 -51.394  0.00  0.00     0.001 C 
ATOM      8  C   UNL d   1     -41.123-121.785 -50.743  0.00  0.00     0.000 A 
ATOM      9  C   UNL d   1     -41.260-121.346 -51.436  0.00  0.00     0.001 A 
ATOM     10  C   UNL d   1     -41.532-121.735 -52.114  0.00  0.00     0.013 A 
ATOM     11  C   UNL d   1     -41.125-120.522 -51.451  0.00  0.00     0.000 C 
ENDBRANCH   1   4
BRANCH   1  12
ATOM     12  N   UNL d   1     -42.252-123.285 -53.368  0.00  0.00    -0.158 NA
BRANCH  12  13
ATOM     13  C   UNL d   1     -42.059-122.965 -53.951  0.00  0.00     0.095 A 
ATOM     14  C   UNL d   1     -42.410-122.407 -54.168  0.00  0.00     0.040 A 
ATOM     15  C   UNL d   1     -42.209-122.100 -54.742  0.00  0.00     0.089 A 
ATOM     16  N   UNL d   1     -42.458-121.549 -55.070  0.00  0.00    -0.236 NA
ATOM     17  C   UNL d   1     -41.677-122.328 -55.105  0.00  0.00     0.049 A 
ATOM     18  C   UNL d   1     -42.070-121.446 -55.635  0.00  0.00     0.135 A 
ATOM     19  S   UNL d   1     -41.596-121.925 -55.649  0.00  0.00    -0.064 SA
ATOM     20  C   UNL d   1     -41.333-122.889 -54.877  0.00  0.00     0.010 A 
ATOM     21  C   UNL d   1     -41.524-123.209 -54.298  0.00  0.00     0.021 A 
ENDBRANCH  12  13
ENDBRANCH   1  12
TORSDOF 3
ENDMDL
MODEL 5
REMARK VINA RESULT:      -1.2      1.326      1.906
REMARK  3 active torsions:
REMARK  status: ('A' for Active; 'I' for Inactive)
REMARK    1  A    between atoms: C_2  and  S_1 
REMARK    2  A    between atoms: N_3  and  S_1 
REMARK    3  A    between atoms: C_12  and  N_3 
ROOT
ATOM      1  S   UNL d   1     -42.540-123.411 -49.971  0.00  0.00     0.285 S 
ATOM      2  O   UNL d   1     -43.232-123.145 -50.091  0.00  0.00    -0.198 OA
ATOM      3  O   UNL d   1     -41.819-123.682 -50.057  0.00  0.00    -0.198 OA
ENDROOT
BRANCH   1   4
ATOM      4  C   UNL d   1     -42.533-123.436 -49.136  0.00  0.00     0.105 A 
ATOM      5  C   UNL d   1     -43.220-123.638 -48.721  0.00  0.00     0.012 A 
ATOM      6  C   UNL d   1     -43.213-123.663 -47.895  0.00  0.00     0.001 A 
ATOM      7  C   UNL d   1     -43.920-123.817 -49.153  0.00  0.00     0.001 C 
ATOM      8  C   UNL d   1     -42.519-123.485 -47.488  0.00  0.00     0.000 A 
ATOM      9  C   UNL d   1     -41.822-123.280 -47.895  0.00  0.00     0.001 A 
ATOM     10  C   UNL d   1     -41.829-123.255 -48.722  0.00  0.00     0.013 A 
ATOM     11  C   UNL d   1     -41.123-123.101 -47.476  0.00  0.00     0.000 C 
ENDBRANCH   1   4
BRANCH   1  12
ATOM     12  N   UNL d   1     -42.613-123.363 -50.712  0.00  0.00    -0.158 NA
BRANCH  12  13
ATOM     13  C   UNL d   1     -42.206-122.860 -50.959  0.00  0.00     0.095 A 
ATOM     14  C   UNL d   1     -42.482-122.243 -51.117  0.00  0.00     0.040 A 
ATOM     15  C   UNL d   1     -42.071-121.756 -51.359  0.00  0.00     0.089 A 
ATOM     16  N   UNL d   1     -42.204-121.109 -51.554  0.00  0.00    -0.236 NA
ATOM     17  C   UNL d   1     -41.402-121.861 -51.447  0.00  0.00     0.049 A 
ATOM     18  C   UNL d   1     -41.607-120.825 -51.761  0.00  0.00     0.135 A 
ATOM     19  S   UNL d   1     -41.123-121.289 -51.693  0.00  0.00    -0.064 SA
ATOM     20  C   UNL d   1     -41.137-122.483 -51.285  0.00  0.00     0.010 A 
ATOM     21  C   UNL d   1     -41.540-122.985 -51.040  0.00  0.00     0.021 A 
ENDBRANCH  12  13
ENDBRANCH   1  12
TORSDOF 3
ENDMDL
