MODEL 1
REMARK VINA RESULT:      11.2      0.000      0.000
REMARK  5 active torsions:
REMARK  status: ('A' for Active; 'I' for Inactive)
REMARK    1  A    between atoms: C_4  and  S_1 
REMARK    2  A    between atoms: N_6  and  S_1 
REMARK    3  A    between atoms: C_3  and  C_2 
REMARK    4  A    between atoms: C_10  and  N_6 
REMARK    5  A    between atoms: C_17  and  C_10 
ROOT
ATOM      1  C   UNL d   1      45.266 -13.176  43.760  0.00  0.00     0.083 A 
ATOM      2  C   UNL d   1      45.185 -14.374  44.546  0.00  0.00     0.105 A 
ATOM      3  C   UNL d   1      44.878 -13.886  43.955  0.00  0.00     0.018 A 
ATOM      4  C   UNL d   1      45.957 -12.962  44.158  0.00  0.00     0.062 A 
ATOM      5  C   UNL d   1      45.872 -14.158  44.941  0.00  0.00     0.014 A 
ATOM      6  C   UNL d   1      46.261 -13.449  44.746  0.00  0.00     0.012 A 
ATOM      7 CL   UNL d   1      46.342 -12.259  43.965  0.00  0.00    -0.082 Cl
ENDROOT
BRANCH   2   8
ATOM      8  S   UNL d   1      44.806 -15.078  44.745  0.00  0.00     0.285 S 
ATOM      9  O   UNL d   1      44.438 -15.779  44.940  0.00  0.00    -0.198 OA
ATOM     10  O   UNL d   1      44.132 -14.668  44.947  0.00  0.00    -0.198 OA
BRANCH   8  11
ATOM     11  N   UNL d   1      45.486 -15.497  44.542  0.00  0.00    -0.155 NA
BRANCH  11  12
ATOM     12  C   UNL d   1      45.636 -16.238  44.883  0.00  0.00     0.137 C 
BRANCH  12  13
ATOM     13  C   UNL d   1      45.931 -16.851  44.418  0.00  0.00     0.120 A 
ATOM     14  O   UNL d   1      45.941 -16.889  43.590  0.00  0.00    -0.304 OA
ATOM     15  C   UNL d   1      46.286 -17.598  43.373  0.00  0.00     0.123 A 
ATOM     16  C   UNL d   1      46.493 -18.007  44.053  0.00  0.00     0.029 A 
ATOM     17  C   UNL d   1      46.275 -17.549  44.703  0.00  0.00     0.028 A 
ENDBRANCH  12  13
ENDBRANCH  11  12
ENDBRANCH   8  11
ENDBRANCH   2   8
BRANCH   1  18
ATOM     18  C   UNL d   1      44.963 -12.689  43.172  0.00  0.00     0.420 C 
ATOM     19  F   UNL d   1      45.297 -12.496  42.398  0.00  0.00    -0.166 F 
ATOM     20  F   UNL d   1      44.684 -12.239  42.627  0.00  0.00    -0.166 F 
ATOM     21  F   UNL d   1      44.232 -12.236  43.162  0.00  0.00    -0.166 F 
ENDBRANCH   1  18
TORSDOF 5
ENDMDL
