MODEL 1
REMARK VINA RESULT:      16.3      0.000      0.000
REMARK  1 active torsions:
REMARK  status: ('A' for Active; 'I' for Inactive)
REMARK    1  A    between atoms: C_7  and  C_1 
ROOT
ATOM      1  C   UNL d   1     -51.214  24.463  33.366  0.00  0.00     0.122 A 
ATOM      2  C   UNL d   1     -50.512  25.719  33.335  0.00  0.00     0.057 A 
ATOM      3  C   UNL d   1     -51.233  26.122  33.348  0.00  0.00     0.085 A 
ATOM      4  C   UNL d   1     -50.503  24.894  33.344  0.00  0.00     0.204 A 
ATOM      5  N   UNL d   1     -51.942  25.683  33.370  0.00  0.00    -0.244 NA
ATOM      6  C   UNL d   1     -51.251  26.944  33.339  0.00  0.00     0.028 A 
ATOM      7  C   UNL d   1     -51.935  24.866  33.378  0.00  0.00     0.108 A 
ATOM      8  C   UNL d   1     -49.808  26.137  33.314  0.00  0.00     0.006 A 
ATOM      9  C   UNL d   1     -50.548  27.356  33.318  0.00  0.00     0.059 A 
ATOM     10  C   UNL d   1     -49.831  26.955  33.306  0.00  0.00     0.012 A 
ATOM     11  O   UNL d   1     -49.785  24.493  33.331  0.00  0.00    -0.286 OA
ATOM     12 CL   UNL d   1     -50.554  28.190  33.309  0.00  0.00    -0.082 Cl
ATOM     13  C   UNL d   1     -51.982  27.353  33.352  0.00  0.00     0.002 C 
ENDROOT
BRANCH   1  14
ATOM     14  C   UNL d   1     -51.192  23.630  33.374  0.00  0.00     0.216 C 
ATOM     15  O   UNL d   1     -50.469  23.226  33.368  0.00  0.00    -0.644 OA
ATOM     16  O   UNL d   1     -51.904  23.201  33.389  0.00  0.00    -0.644 OA
ENDBRANCH   1  14
TORSDOF 1
ENDMDL
