MODEL 1
REMARK VINA RESULT:      -7.5      0.000      0.000
REMARK  10 active torsions:
REMARK  status: ('A' for Active; 'I' for Inactive)
REMARK    1  A    between atoms: C_9  and  S_1 
REMARK    2  A    between atoms: N_20  and  S_1 
REMARK    3  A    between atoms: S_2  and  C_10 
REMARK    4  A    between atoms: N_19  and  S_2 
REMARK    5  A    between atoms: C_28  and  N_19 
REMARK    6  A    between atoms: C_29  and  N_20 
REMARK    7  A    between atoms: C_24  and  C_28 
REMARK    8  A    between atoms: C_30  and  C_24 
REMARK    9  A    between atoms: C_25  and  C_29 
REMARK   10  A    between atoms: C_31  and  C_25 
ROOT
ATOM      1  C   UNL d   1      49.612  35.232  53.351  0.00  0.00     0.300 A 
ATOM      2  C   UNL d   1      49.353  34.989  52.615  0.00  0.00     0.064 A 
ATOM      3  C   UNL d   1      50.834  34.523  53.165  0.00  0.00     0.104 A 
ATOM      4  O   UNL d   1      50.350  35.001  53.628  0.00  0.00    -0.273 OA
ATOM      5  C   UNL d   1      49.834  34.512  52.150  0.00  0.00     0.007 A 
ATOM      6  C   UNL d   1      50.577  34.275  52.422  0.00  0.00     0.023 A 
ATOM      7  C   UNL d   1      48.353  34.978  51.600  0.00  0.00     0.105 A 
ATOM      8  C   UNL d   1      52.059  33.816  52.987  0.00  0.00     0.107 A 
ATOM      9  C   UNL d   1      48.619  35.219  52.340  0.00  0.00     0.018 A 
ATOM     10  C   UNL d   1      51.576  34.292  53.446  0.00  0.00     0.038 A 
ATOM     11  C   UNL d   1      49.577  34.264  51.407  0.00  0.00     0.001 A 
ATOM     12  C   UNL d   1      51.061  33.797  51.959  0.00  0.00     0.003 A 
ATOM     13  O   UNL d   1      49.134  35.713  53.824  0.00  0.00    -0.259 OA
ATOM     14  C   UNL d   1      48.839  34.495  51.131  0.00  0.00     0.013 A 
ATOM     15  C   UNL d   1      51.803  33.566  52.239  0.00  0.00     0.013 A 
ENDROOT
BRANCH   7  16
ATOM     16  S   UNL d   1      47.611  35.210  51.323  0.00  0.00     0.285 S 
ATOM     17  O   UNL d   1      47.297  35.932  51.561  0.00  0.00    -0.198 OA
ATOM     18  O   UNL d   1      47.186  34.716  50.807  0.00  0.00    -0.198 OA
BRANCH  16  19
ATOM     19  N   UNL d   1      46.870  35.454  51.052  0.00  0.00    -0.157 NA
BRANCH  19  20
ATOM     20  C   UNL d   1      46.388  35.920  51.531  0.00  0.00     0.116 C 
BRANCH  20  21
ATOM     21  C   UNL d   1      45.652  36.171  51.252  0.00  0.00     0.067 C 
BRANCH  21  22
ATOM     22  C   UNL d   1      45.142  36.588  51.750  0.00  0.00     0.236 C 
ATOM     23  O   UNL d   1      44.332  36.425  51.735  0.00  0.00    -0.283 OA
ENDBRANCH  21  22
ENDBRANCH  20  21
ENDBRANCH  19  20
ENDBRANCH  16  19
ENDBRANCH   7  16
BRANCH   8  24
ATOM     24  S   UNL d   1      52.802  33.581  53.261  0.00  0.00     0.285 S 
ATOM     25  O   UNL d   1      53.229  33.009  52.850  0.00  0.00    -0.198 OA
ATOM     26  O   UNL d   1      53.114  33.920  53.942  0.00  0.00    -0.198 OA
BRANCH  24  27
ATOM     27  N   UNL d   1      53.545  33.351  53.541  0.00  0.00    -0.157 NA
BRANCH  27  28
ATOM     28  C   UNL d   1      53.810  33.616  54.274  0.00  0.00     0.116 C 
BRANCH  28  29
ATOM     29  C   UNL d   1      54.548  33.388  54.562  0.00  0.00     0.067 C 
BRANCH  29  30
ATOM     30  C   UNL d   1      54.779  33.584  55.329  0.00  0.00     0.236 C 
ATOM     31  O   UNL d   1      55.466  34.024  55.454  0.00  0.00    -0.283 OA
ENDBRANCH  29  30
ENDBRANCH  28  29
ENDBRANCH  27  28
ENDBRANCH  24  27
ENDBRANCH   8  24
TORSDOF 10
ENDMDL
MODEL 2
REMARK VINA RESULT:      -7.4      0.950      6.619
REMARK  10 active torsions:
REMARK  status: ('A' for Active; 'I' for Inactive)
REMARK    1  A    between atoms: C_9  and  S_1 
REMARK    2  A    between atoms: N_20  and  S_1 
REMARK    3  A    between atoms: S_2  and  C_10 
REMARK    4  A    between atoms: N_19  and  S_2 
REMARK    5  A    between atoms: C_28  and  N_19 
REMARK    6  A    between atoms: C_29  and  N_20 
REMARK    7  A    between atoms: C_24  and  C_28 
REMARK    8  A    between atoms: C_30  and  C_24 
REMARK    9  A    between atoms: C_25  and  C_29 
REMARK   10  A    between atoms: C_31  and  C_25 
ROOT
ATOM      1  C   UNL d   1      50.651  34.212  51.485  0.00  0.00     0.300 A 
ATOM      2  C   UNL d   1      50.854  34.206  52.278  0.00  0.00     0.064 A 
ATOM      3  C   UNL d   1      49.399  34.814  51.804  0.00  0.00     0.104 A 
ATOM      4  O   UNL d   1      49.926  34.515  51.247  0.00  0.00    -0.273 OA
ATOM      5  C   UNL d   1      50.331  34.504  52.836  0.00  0.00     0.007 A 
ATOM      6  C   UNL d   1      49.600  34.810  52.604  0.00  0.00     0.023 A 
ATOM      7  C   UNL d   1      51.787  33.895  53.309  0.00  0.00     0.105 A 
ATOM      8  C   UNL d   1      48.144  35.417  52.114  0.00  0.00     0.107 A 
ATOM      9  C   UNL d   1      51.576  33.904  52.514  0.00  0.00     0.018 A 
ATOM     10  C   UNL d   1      48.670  35.119  51.562  0.00  0.00     0.038 A 
ATOM     11  C   UNL d   1      50.532  34.499  53.636  0.00  0.00     0.001 A 
ATOM     12  C   UNL d   1      49.073  35.109  53.161  0.00  0.00     0.003 A 
ATOM     13  O   UNL d   1      51.172  33.915  50.918  0.00  0.00    -0.259 OA
ATOM     14  C   UNL d   1      51.257  34.196  53.874  0.00  0.00     0.013 A 
ATOM     15  C   UNL d   1      48.344  35.413  52.919  0.00  0.00     0.013 A 
ENDROOT
BRANCH   7  16
ATOM     16  S   UNL d   1      52.516  33.591  53.548  0.00  0.00     0.285 S 
ATOM     17  O   UNL d   1      53.118  34.105  53.771  0.00  0.00    -0.198 OA
ATOM     18  O   UNL d   1      52.638  32.768  53.561  0.00  0.00    -0.198 OA
BRANCH  16  19
ATOM     19  N   UNL d   1      53.249  33.297  53.788  0.00  0.00    -0.157 NA
BRANCH  19  20
ATOM     20  C   UNL d   1      53.699  33.711  54.341  0.00  0.00     0.116 C 
BRANCH  20  21
ATOM     21  C   UNL d   1      54.476  33.477  54.496  0.00  0.00     0.067 C 
BRANCH  21  22
ATOM     22  C   UNL d   1      54.799  33.594  55.247  0.00  0.00     0.236 C 
ATOM     23  O   UNL d   1      55.539  33.953  55.321  0.00  0.00    -0.283 OA
ENDBRANCH  21  22
ENDBRANCH  20  21
ENDBRANCH  19  20
ENDBRANCH  16  19
ENDBRANCH   7  16
BRANCH   8  24
ATOM     24  S   UNL d   1      47.414  35.722  51.879  0.00  0.00     0.285 S 
ATOM     25  O   UNL d   1      47.203  36.490  52.090  0.00  0.00    -0.198 OA
ATOM     26  O   UNL d   1      46.899  35.259  51.435  0.00  0.00    -0.198 OA
BRANCH  24  27
ATOM     27  N   UNL d   1      46.682  36.021  51.641  0.00  0.00    -0.157 NA
BRANCH  27  28
ATOM     28  C   UNL d   1      46.061  35.506  51.472  0.00  0.00     0.116 C 
BRANCH  28  29
ATOM     29  C   UNL d   1      45.375  35.781  51.104  0.00  0.00     0.067 C 
BRANCH  29  30
ATOM     30  C   UNL d   1      44.649  35.418  51.244  0.00  0.00     0.236 C 
ATOM     31  O   UNL d   1      44.314  34.926  50.672  0.00  0.00    -0.283 OA
ENDBRANCH  29  30
ENDBRANCH  28  29
ENDBRANCH  27  28
ENDBRANCH  24  27
ENDBRANCH   8  24
TORSDOF 10
ENDMDL
MODEL 3
REMARK VINA RESULT:      -5.9     10.953     11.690
REMARK  10 active torsions:
REMARK  status: ('A' for Active; 'I' for Inactive)
REMARK    1  A    between atoms: C_9  and  S_1 
REMARK    2  A    between atoms: N_20  and  S_1 
REMARK    3  A    between atoms: S_2  and  C_10 
REMARK    4  A    between atoms: N_19  and  S_2 
REMARK    5  A    between atoms: C_28  and  N_19 
REMARK    6  A    between atoms: C_29  and  N_20 
REMARK    7  A    between atoms: C_24  and  C_28 
REMARK    8  A    between atoms: C_30  and  C_24 
REMARK    9  A    between atoms: C_25  and  C_29 
REMARK   10  A    between atoms: C_31  and  C_25 
ROOT
ATOM      1  C   UNL d   1      45.071  27.970  57.433  0.00  0.00     0.300 A 
ATOM      2  C   UNL d   1      44.872  27.265  57.798  0.00  0.00     0.064 A 
ATOM      3  C   UNL d   1      44.905  28.665  58.667  0.00  0.00     0.104 A 
ATOM      4  O   UNL d   1      45.088  28.669  57.864  0.00  0.00    -0.273 OA
ATOM      5  C   UNL d   1      44.689  27.258  58.599  0.00  0.00     0.007 A 
ATOM      6  C   UNL d   1      44.704  27.957  59.039  0.00  0.00     0.023 A 
ATOM      7  C   UNL d   1      44.656  25.859  57.731  0.00  0.00     0.105 A 
ATOM      8  C   UNL d   1      44.742  29.368  59.896  0.00  0.00     0.107 A 
ATOM      9  C   UNL d   1      44.855  26.570  57.369  0.00  0.00     0.018 A 
ATOM     10  C   UNL d   1      44.924  29.369  59.098  0.00  0.00     0.038 A 
ATOM     11  C   UNL d   1      44.488  26.550  58.971  0.00  0.00     0.001 A 
ATOM     12  C   UNL d   1      44.521  27.953  59.841  0.00  0.00     0.003 A 
ATOM     13  O   UNL d   1      45.256  27.985  56.628  0.00  0.00    -0.259 OA
ATOM     14  C   UNL d   1      44.471  25.851  58.540  0.00  0.00     0.013 A 
ATOM     15  C   UNL d   1      44.540  28.658  60.272  0.00  0.00     0.013 A 
ENDROOT
BRANCH   7  16
ATOM     16  S   UNL d   1      44.639  25.157  57.297  0.00  0.00     0.285 S 
ATOM     17  O   UNL d   1      44.314  25.154  56.541  0.00  0.00    -0.198 OA
ATOM     18  O   UNL d   1      44.949  24.459  57.624  0.00  0.00    -0.198 OA
BRANCH  16  19
ATOM     19  N   UNL d   1      44.617  24.460  56.854  0.00  0.00    -0.157 NA
BRANCH  19  20
ATOM     20  C   UNL d   1      44.638  24.494  56.031  0.00  0.00     0.116 C 
BRANCH  20  21
ATOM     21  C   UNL d   1      44.378  23.847  55.587  0.00  0.00     0.067 C 
BRANCH  21  22
ATOM     22  C   UNL d   1      44.890  23.482  55.052  0.00  0.00     0.236 C 
ATOM     23  O   UNL d   1      44.609  23.248  54.312  0.00  0.00    -0.283 OA
ENDBRANCH  21  22
ENDBRANCH  20  21
ENDBRANCH  19  20
ENDBRANCH  16  19
ENDBRANCH   7  16
BRANCH   8  24
ATOM     24  S   UNL d   1      44.758  30.068  60.334  0.00  0.00     0.285 S 
ATOM     25  O   UNL d   1      45.053  30.758  59.994  0.00  0.00    -0.198 OA
ATOM     26  O   UNL d   1      44.479  30.075  61.107  0.00  0.00    -0.198 OA
BRANCH  24  27
ATOM     27  N   UNL d   1      44.771  30.765  60.777  0.00  0.00    -0.157 NA
BRANCH  27  28
ATOM     28  C   UNL d   1      44.512  30.761  61.560  0.00  0.00     0.116 C 
BRANCH  28  29
ATOM     29  C   UNL d   1      44.314  31.466  61.941  0.00  0.00     0.067 C 
BRANCH  29  30
ATOM     30  C   UNL d   1      44.421  31.548  62.753  0.00  0.00     0.236 C 
ATOM     31  O   UNL d   1      44.314  32.284  63.113  0.00  0.00    -0.283 OA
ENDBRANCH  29  30
ENDBRANCH  28  29
ENDBRANCH  27  28
ENDBRANCH  24  27
ENDBRANCH   8  24
TORSDOF 10
ENDMDL
MODEL 4
REMARK VINA RESULT:      -5.8      2.137      2.636
REMARK  10 active torsions:
REMARK  status: ('A' for Active; 'I' for Inactive)
REMARK    1  A    between atoms: C_9  and  S_1 
REMARK    2  A    between atoms: N_20  and  S_1 
REMARK    3  A    between atoms: S_2  and  C_10 
REMARK    4  A    between atoms: N_19  and  S_2 
REMARK    5  A    between atoms: C_28  and  N_19 
REMARK    6  A    between atoms: C_29  and  N_20 
REMARK    7  A    between atoms: C_24  and  C_28 
REMARK    8  A    between atoms: C_30  and  C_24 
REMARK    9  A    between atoms: C_25  and  C_29 
REMARK   10  A    between atoms: C_31  and  C_25 
ROOT
ATOM      1  C   UNL d   1      51.758  34.651  53.523  0.00  0.00     0.300 A 
ATOM      2  C   UNL d   1      51.001  34.464  53.274  0.00  0.00     0.064 A 
ATOM      3  C   UNL d   1      52.138  33.281  53.418  0.00  0.00     0.104 A 
ATOM      4  O   UNL d   1      52.326  34.063  53.596  0.00  0.00    -0.273 OA
ATOM      5  C   UNL d   1      50.810  33.686  53.096  0.00  0.00     0.007 A 
ATOM      6  C   UNL d   1      51.377  33.089  53.166  0.00  0.00     0.023 A 
ATOM      7  C   UNL d   1      49.673  34.869  52.951  0.00  0.00     0.105 A 
ATOM      8  C   UNL d   1      52.527  31.914  53.316  0.00  0.00     0.107 A 
ATOM      9  C   UNL d   1      50.436  35.050  53.202  0.00  0.00     0.018 A 
ATOM     10  C   UNL d   1      52.712  32.692  53.492  0.00  0.00     0.038 A 
ATOM     11  C   UNL d   1      50.049  33.493  52.844  0.00  0.00     0.001 A 
ATOM     12  C   UNL d   1      51.189  32.307  52.989  0.00  0.00     0.003 A 
ATOM     13  O   UNL d   1      51.956  35.432  53.704  0.00  0.00    -0.259 OA
ATOM     14  C   UNL d   1      49.481  34.081  52.771  0.00  0.00     0.013 A 
ATOM     15  C   UNL d   1      51.763  31.718  53.063  0.00  0.00     0.013 A 
ENDROOT
BRANCH   7  16
ATOM     16  S   UNL d   1      49.103  35.460  52.879  0.00  0.00     0.285 S 
ATOM     17  O   UNL d   1      48.665  35.520  52.185  0.00  0.00    -0.198 OA
ATOM     18  O   UNL d   1      48.974  35.992  53.504  0.00  0.00    -0.198 OA
BRANCH  16  19
ATOM     19  N   UNL d   1      48.529  36.049  52.795  0.00  0.00    -0.157 NA
BRANCH  19  20
ATOM     20  C   UNL d   1      47.834  35.891  52.382  0.00  0.00     0.116 C 
BRANCH  20  21
ATOM     21  C   UNL d   1      47.260  36.481  52.305  0.00  0.00     0.067 C 
BRANCH  21  22
ATOM     22  C   UNL d   1      46.528  36.302  51.968  0.00  0.00     0.236 C 
ATOM     23  O   UNL d   1      45.845  36.667  52.257  0.00  0.00    -0.283 OA
ENDBRANCH  21  22
ENDBRANCH  20  21
ENDBRANCH  19  20
ENDBRANCH  16  19
ENDBRANCH   7  16
BRANCH   8  24
ATOM     24  S   UNL d   1      53.096  31.319  53.388  0.00  0.00     0.285 S 
ATOM     25  O   UNL d   1      53.855  31.505  53.648  0.00  0.00    -0.198 OA
ATOM     26  O   UNL d   1      52.903  30.542  53.198  0.00  0.00    -0.198 OA
BRANCH  24  27
ATOM     27  N   UNL d   1      53.659  30.718  53.457  0.00  0.00    -0.157 NA
BRANCH  27  28
ATOM     28  C   UNL d   1      53.419  29.938  53.572  0.00  0.00     0.116 C 
BRANCH  28  29
ATOM     29  C   UNL d   1      53.742  29.484  54.180  0.00  0.00     0.067 C 
BRANCH  29  30
ATOM     30  C   UNL d   1      53.508  28.702  54.290  0.00  0.00     0.236 C 
ATOM     31  O   UNL d   1      53.525  28.367  55.045  0.00  0.00    -0.283 OA
ENDBRANCH  29  30
ENDBRANCH  28  29
ENDBRANCH  27  28
ENDBRANCH  24  27
ENDBRANCH   8  24
TORSDOF 10
ENDMDL
MODEL 5
REMARK VINA RESULT:      -5.0     10.909     11.657
REMARK  10 active torsions:
REMARK  status: ('A' for Active; 'I' for Inactive)
REMARK    1  A    between atoms: C_9  and  S_1 
REMARK    2  A    between atoms: N_20  and  S_1 
REMARK    3  A    between atoms: S_2  and  C_10 
REMARK    4  A    between atoms: N_19  and  S_2 
REMARK    5  A    between atoms: C_28  and  N_19 
REMARK    6  A    between atoms: C_29  and  N_20 
REMARK    7  A    between atoms: C_24  and  C_28 
REMARK    8  A    between atoms: C_30  and  C_24 
REMARK    9  A    between atoms: C_25  and  C_29 
REMARK   10  A    between atoms: C_31  and  C_25 
ROOT
ATOM      1  C   UNL d   1      45.066  30.301  59.137  0.00  0.00     0.300 A 
ATOM      2  C   UNL d   1      44.939  29.493  59.132  0.00  0.00     0.064 A 
ATOM      3  C   UNL d   1      44.789  30.342  60.535  0.00  0.00     0.104 A 
ATOM      4  O   UNL d   1      44.991  30.726  59.836  0.00  0.00    -0.273 OA
ATOM      5  C   UNL d   1      44.736  29.106  59.827  0.00  0.00     0.007 A 
ATOM      6  C   UNL d   1      44.660  29.528  60.534  0.00  0.00     0.023 A 
ATOM      7  C   UNL d   1      44.886  28.257  58.424  0.00  0.00     0.105 A 
ATOM      8  C   UNL d   1      44.513  30.392  61.933  0.00  0.00     0.107 A 
ATOM      9  C   UNL d   1      45.013  29.070  58.436  0.00  0.00     0.018 A 
ATOM     10  C   UNL d   1      44.715  30.773  61.236  0.00  0.00     0.038 A 
ATOM     11  C   UNL d   1      44.607  28.292  59.826  0.00  0.00     0.001 A 
ATOM     12  C   UNL d   1      44.457  29.143  61.233  0.00  0.00     0.003 A 
ATOM     13  O   UNL d   1      45.270  30.696  58.441  0.00  0.00    -0.259 OA
ATOM     14  C   UNL d   1      44.682  27.867  59.128  0.00  0.00     0.013 A 
ATOM     15  C   UNL d   1      44.383  29.574  61.934  0.00  0.00     0.013 A 
ENDROOT
BRANCH   7  16
ATOM     16  S   UNL d   1      44.961  27.831  57.722  0.00  0.00     0.285 S 
ATOM     17  O   UNL d   1      45.450  27.169  57.698  0.00  0.00    -0.198 OA
ATOM     18  O   UNL d   1      44.544  28.070  57.044  0.00  0.00    -0.198 OA
BRANCH  16  19
ATOM     19  N   UNL d   1      45.044  27.396  57.024  0.00  0.00    -0.157 NA
BRANCH  19  20
ATOM     20  C   UNL d   1      45.056  26.572  57.050  0.00  0.00     0.116 C 
BRANCH  20  21
ATOM     21  C   UNL d   1      44.955  26.139  56.354  0.00  0.00     0.067 C 
BRANCH  21  22
ATOM     22  C   UNL d   1      44.851  25.320  56.389  0.00  0.00     0.236 C 
ATOM     23  O   UNL d   1      45.261  24.834  55.862  0.00  0.00    -0.283 OA
ENDBRANCH  21  22
ENDBRANCH  20  21
ENDBRANCH  19  20
ENDBRANCH  16  19
ENDBRANCH   7  16
BRANCH   8  24
ATOM     24  S   UNL d   1      44.437  30.816  62.638  0.00  0.00     0.285 S 
ATOM     25  O   UNL d   1      44.484  31.639  62.630  0.00  0.00    -0.198 OA
ATOM     26  O   UNL d   1      44.314  30.416  63.346  0.00  0.00    -0.198 OA
BRANCH  24  27
ATOM     27  N   UNL d   1      44.360  31.233  63.347  0.00  0.00    -0.157 NA
BRANCH  27  28
ATOM     28  C   UNL d   1      44.759  30.978  64.021  0.00  0.00     0.116 C 
BRANCH  28  29
ATOM     29  C   UNL d   1      44.361  30.901  64.740  0.00  0.00     0.067 C 
BRANCH  29  30
ATOM     30  C   UNL d   1      44.760  31.006  65.454  0.00  0.00     0.236 C 
ATOM     31  O   UNL d   1      44.357  31.293  66.115  0.00  0.00    -0.283 OA
ENDBRANCH  29  30
ENDBRANCH  28  29
ENDBRANCH  27  28
ENDBRANCH  24  27
ENDBRANCH   8  24
TORSDOF 10
ENDMDL
MODEL 6
REMARK VINA RESULT:      -4.9     10.767     11.645
REMARK  10 active torsions:
REMARK  status: ('A' for Active; 'I' for Inactive)
REMARK    1  A    between atoms: C_9  and  S_1 
REMARK    2  A    between atoms: N_20  and  S_1 
REMARK    3  A    between atoms: S_2  and  C_10 
REMARK    4  A    between atoms: N_19  and  S_2 
REMARK    5  A    between atoms: C_28  and  N_19 
REMARK    6  A    between atoms: C_29  and  N_20 
REMARK    7  A    between atoms: C_24  and  C_28 
REMARK    8  A    between atoms: C_30  and  C_24 
REMARK    9  A    between atoms: C_25  and  C_29 
REMARK   10  A    between atoms: C_31  and  C_25 
ROOT
ATOM      1  C   UNL d   1      45.275  26.973  56.955  0.00  0.00     0.300 A 
ATOM      2  C   UNL d   1      44.981  26.566  57.601  0.00  0.00     0.064 A 
ATOM      3  C   UNL d   1      45.113  28.207  57.650  0.00  0.00     0.104 A 
ATOM      4  O   UNL d   1      45.342  27.791  56.977  0.00  0.00    -0.273 OA
ATOM      5  C   UNL d   1      44.752  26.977  58.273  0.00  0.00     0.007 A 
ATOM      6  C   UNL d   1      44.816  27.800  58.303  0.00  0.00     0.023 A 
ATOM      7  C   UNL d   1      44.620  25.336  58.224  0.00  0.00     0.105 A 
ATOM      8  C   UNL d   1      44.954  29.445  58.338  0.00  0.00     0.107 A 
ATOM      9  C   UNL d   1      44.915  25.751  57.578  0.00  0.00     0.018 A 
ATOM     10  C   UNL d   1      45.181  29.030  57.670  0.00  0.00     0.038 A 
ATOM     11  C   UNL d   1      44.455  26.571  58.926  0.00  0.00     0.001 A 
ATOM     12  C   UNL d   1      44.587  28.216  58.976  0.00  0.00     0.003 A 
ATOM     13  O   UNL d   1      45.507  26.565  56.275  0.00  0.00    -0.259 OA
ATOM     14  C   UNL d   1      44.388  25.753  58.904  0.00  0.00     0.013 A 
ATOM     15  C   UNL d   1      44.655  29.039  58.995  0.00  0.00     0.013 A 
ENDROOT
BRANCH   7  16
ATOM     16  S   UNL d   1      44.553  24.514  58.201  0.00  0.00     0.285 S 
ATOM     17  O   UNL d   1      44.392  24.139  57.487  0.00  0.00    -0.198 OA
ATOM     18  O   UNL d   1      44.650  24.069  58.897  0.00  0.00    -0.198 OA
BRANCH  16  19
ATOM     19  N   UNL d   1      44.485  23.692  58.166  0.00  0.00    -0.157 NA
BRANCH  19  20
ATOM     20  C   UNL d   1      44.364  23.318  57.441  0.00  0.00     0.116 C 
BRANCH  20  21
ATOM     21  C   UNL d   1      44.412  22.495  57.391  0.00  0.00     0.067 C 
BRANCH  21  22
ATOM     22  C   UNL d   1      44.454  22.128  56.652  0.00  0.00     0.236 C 
ATOM     23  O   UNL d   1      45.137  21.714  56.440  0.00  0.00    -0.283 OA
ENDBRANCH  21  22
ENDBRANCH  20  21
ENDBRANCH  19  20
ENDBRANCH  16  19
ENDBRANCH   7  16
BRANCH   8  24
ATOM     24  S   UNL d   1      45.019  30.269  58.365  0.00  0.00     0.285 S 
ATOM     25  O   UNL d   1      45.557  30.621  58.880  0.00  0.00    -0.198 OA
ATOM     26  O   UNL d   1      44.547  30.734  57.877  0.00  0.00    -0.198 OA
BRANCH  24  27
ATOM     27  N   UNL d   1      45.078  31.092  58.386  0.00  0.00    -0.157 NA
BRANCH  27  28
ATOM     28  C   UNL d   1      44.533  31.556  57.979  0.00  0.00     0.116 C 
BRANCH  28  29
ATOM     29  C   UNL d   1      44.766  32.006  57.328  0.00  0.00     0.067 C 
BRANCH  29  30
ATOM     30  C   UNL d   1      44.314  32.647  57.076  0.00  0.00     0.236 C 
ATOM     31  O   UNL d   1      44.608  33.160  56.499  0.00  0.00    -0.283 OA
ENDBRANCH  29  30
ENDBRANCH  28  29
ENDBRANCH  27  28
ENDBRANCH  24  27
ENDBRANCH   8  24
TORSDOF 10
ENDMDL
