MODEL 1
REMARK VINA RESULT:      76.1      0.000      0.000
REMARK  3 active torsions:
REMARK  status: ('A' for Active; 'I' for Inactive)
REMARK    1  A    between atoms: N_4  and  C_1 
REMARK    2  A    between atoms: C_15  and  C_5 
REMARK    3  A    between atoms: C_9  and  N_8 
ROOT
ATOM      1  C   UNL d   1      14.326  14.781  -2.898  0.00  0.00     0.169 A 
ATOM      2  N   UNL d   1      14.690  14.934  -2.175  0.00  0.00    -0.130 NA
ATOM      3  N   UNL d   1      14.723  14.318  -1.614  0.00  0.00    -0.147 NA
ATOM      4  C   UNL d   1      14.407  13.586  -1.775  0.00  0.00     0.103 A 
ATOM      5  C   UNL d   1      14.011  14.052  -3.058  0.00  0.00     0.038 A 
ATOM      6  C   UNL d   1      14.052  13.448  -2.490  0.00  0.00     0.022 A 
ATOM      7  C   UNL d   1      13.639  13.900  -3.802  0.00  0.00     0.003 A 
ATOM      8  C   UNL d   1      13.713  12.688  -2.680  0.00  0.00     0.002 A 
ATOM      9  C   UNL d   1      13.305  13.138  -3.979  0.00  0.00     0.000 A 
ATOM     10  C   UNL d   1      13.354  12.545  -3.402  0.00  0.00     0.000 A 
ENDROOT
BRANCH   1  11
ATOM     11  N   UNL d   1      14.286  15.373  -3.455  0.00  0.00    -0.285 N 
ATOM     12  C   UNL d   1      13.735  15.350  -4.071  0.00  0.00     0.101 A 
ATOM     13  C   UNL d   1      13.695  15.950  -4.635  0.00  0.00     0.101 A 
ATOM     14  N   UNL d   1      14.204  16.587  -4.596  0.00  0.00    -0.286 N 
ATOM     15  C   UNL d   1      14.751  16.622  -3.996  0.00  0.00     0.101 A 
ATOM     16  C   UNL d   1      14.793  16.004  -3.414  0.00  0.00     0.101 A 
BRANCH  14  17
ATOM     17  C   UNL d   1      14.176  17.193  -5.152  0.00  0.00     0.148 A 
ATOM     18  N   UNL d   1      14.589  17.904  -5.050  0.00  0.00    -0.227 NA
ATOM     19  C   UNL d   1      14.560  18.512  -5.607  0.00  0.00     0.101 A 
ATOM     20  C   UNL d   1      14.111  18.416  -6.286  0.00  0.00     0.021 A 
ATOM     21  C   UNL d   1      13.703  17.717  -6.389  0.00  0.00     0.005 A 
ATOM     22  C   UNL d   1      13.732  17.111  -5.832  0.00  0.00     0.037 A 
ENDBRANCH  14  17
ENDBRANCH   1  11
BRANCH   4  23
ATOM     23  C   UNL d   1      14.447  12.983  -1.208  0.00  0.00     0.019 A 
ATOM     24  C   UNL d   1      13.904  12.978  -0.588  0.00  0.00     0.002 A 
ATOM     25  C   UNL d   1      13.941  12.374  -0.014  0.00  0.00     0.000 A 
ATOM     26  C   UNL d   1      14.510  11.779  -0.054  0.00  0.00     0.000 A 
ATOM     27  C   UNL d   1      15.057  11.782  -0.678  0.00  0.00     0.000 A 
ATOM     28  C   UNL d   1      15.028  12.390  -1.263  0.00  0.00     0.002 A 
ENDBRANCH   4  23
TORSDOF 3
ENDMDL
MODEL 2
REMARK VINA RESULT:      76.9      2.045      5.873
REMARK  3 active torsions:
REMARK  status: ('A' for Active; 'I' for Inactive)
REMARK    1  A    between atoms: N_4  and  C_1 
REMARK    2  A    between atoms: C_15  and  C_5 
REMARK    3  A    between atoms: C_9  and  N_8 
ROOT
ATOM      1  C   UNL d   1      13.687  16.554  -5.343  0.00  0.00     0.169 A 
ATOM      2  N   UNL d   1      13.287  16.880  -5.986  0.00  0.00    -0.130 NA
ATOM      3  N   UNL d   1      13.432  17.679  -6.175  0.00  0.00    -0.147 NA
ATOM      4  C   UNL d   1      13.954  18.126  -5.738  0.00  0.00     0.103 A 
ATOM      5  C   UNL d   1      14.206  17.000  -4.909  0.00  0.00     0.038 A 
ATOM      6  C   UNL d   1      14.341  17.793  -5.108  0.00  0.00     0.022 A 
ATOM      7  C   UNL d   1      14.614  16.660  -4.250  0.00  0.00     0.003 A 
ATOM      8  C   UNL d   1      14.892  18.243  -4.636  0.00  0.00     0.002 A 
ATOM      9  C   UNL d   1      15.161  17.119  -3.788  0.00  0.00     0.000 A 
ATOM     10  C   UNL d   1      15.285  17.911  -4.000  0.00  0.00     0.000 A 
ENDROOT
BRANCH   1  11
ATOM     11  N   UNL d   1      13.555  15.775  -5.147  0.00  0.00    -0.285 N 
ATOM     12  C   UNL d   1      13.021  15.564  -4.552  0.00  0.00     0.101 A 
ATOM     13  C   UNL d   1      12.888  14.775  -4.354  0.00  0.00     0.101 A 
ATOM     14  N   UNL d   1      13.284  14.179  -4.747  0.00  0.00    -0.286 N 
ATOM     15  C   UNL d   1      13.812  14.372  -5.334  0.00  0.00     0.101 A 
ATOM     16  C   UNL d   1      13.950  15.186  -5.538  0.00  0.00     0.101 A 
BRANCH  14  17
ATOM     17  C   UNL d   1      13.161  13.387  -4.560  0.00  0.00     0.148 A 
ATOM     18  N   UNL d   1      13.278  13.091  -3.795  0.00  0.00    -0.227 NA
ATOM     19  C   UNL d   1      13.155  12.298  -3.608  0.00  0.00     0.101 A 
ATOM     20  C   UNL d   1      12.908  11.779  -4.194  0.00  0.00     0.021 A 
ATOM     21  C   UNL d   1      12.792  12.067  -4.947  0.00  0.00     0.005 A 
ATOM     22  C   UNL d   1      12.915  12.861  -5.133  0.00  0.00     0.037 A 
ENDBRANCH  14  17
ENDBRANCH   1  11
BRANCH   4  23
ATOM     23  C   UNL d   1      14.088  18.919  -5.937  0.00  0.00     0.019 A 
ATOM     24  C   UNL d   1      13.466  19.457  -5.883  0.00  0.00     0.002 A 
ATOM     25  C   UNL d   1      13.596  20.257  -6.082  0.00  0.00     0.000 A 
ATOM     26  C   UNL d   1      14.335  20.521  -6.332  0.00  0.00     0.000 A 
ATOM     27  C   UNL d   1      14.963  19.981  -6.387  0.00  0.00     0.000 A 
ATOM     28  C   UNL d   1      14.840  19.170  -6.188  0.00  0.00     0.002 A 
ENDBRANCH   4  23
TORSDOF 3
ENDMDL
MODEL 3
REMARK VINA RESULT:      77.4      1.994      2.776
REMARK  3 active torsions:
REMARK  status: ('A' for Active; 'I' for Inactive)
REMARK    1  A    between atoms: N_4  and  C_1 
REMARK    2  A    between atoms: C_15  and  C_5 
REMARK    3  A    between atoms: C_9  and  N_8 
ROOT
ATOM      1  C   UNL d   1      13.708  15.735  -5.026  0.00  0.00     0.169 A 
ATOM      2  N   UNL d   1      13.358  15.247  -5.590  0.00  0.00    -0.130 NA
ATOM      3  N   UNL d   1      13.216  14.450  -5.386  0.00  0.00    -0.147 NA
ATOM      4  C   UNL d   1      13.418  14.163  -4.651  0.00  0.00     0.103 A 
ATOM      5  C   UNL d   1      13.908  15.449  -4.295  0.00  0.00     0.038 A 
ATOM      6  C   UNL d   1      13.762  14.655  -4.106  0.00  0.00     0.022 A 
ATOM      7  C   UNL d   1      14.267  15.955  -3.721  0.00  0.00     0.003 A 
ATOM      8  C   UNL d   1      13.982  14.375  -3.330  0.00  0.00     0.002 A 
ATOM      9  C   UNL d   1      14.481  15.664  -2.951  0.00  0.00     0.000 A 
ATOM     10  C   UNL d   1      14.329  14.868  -2.776  0.00  0.00     0.000 A 
ENDROOT
BRANCH   1  11
ATOM     11  N   UNL d   1      13.851  16.515  -5.212  0.00  0.00    -0.285 N 
ATOM     12  C   UNL d   1      13.360  16.933  -5.729  0.00  0.00     0.101 A 
ATOM     13  C   UNL d   1      13.505  17.722  -5.918  0.00  0.00     0.101 A 
ATOM     14  N   UNL d   1      14.145  18.112  -5.593  0.00  0.00    -0.286 N 
ATOM     15  C   UNL d   1      14.636  17.713  -5.082  0.00  0.00     0.101 A 
ATOM     16  C   UNL d   1      14.486  16.899  -4.888  0.00  0.00     0.101 A 
BRANCH  14  17
ATOM     17  C   UNL d   1      14.303  18.900  -5.771  0.00  0.00     0.148 A 
ATOM     18  N   UNL d   1      14.995  19.279  -5.519  0.00  0.00    -0.227 NA
ATOM     19  C   UNL d   1      15.153  20.068  -5.697  0.00  0.00     0.101 A 
ATOM     20  C   UNL d   1      14.612  20.497  -6.139  0.00  0.00     0.021 A 
ATOM     21  C   UNL d   1      13.930  20.128  -6.388  0.00  0.00     0.005 A 
ATOM     22  C   UNL d   1      13.773  19.339  -6.209  0.00  0.00     0.037 A 
ENDBRANCH  14  17
ENDBRANCH   1  11
BRANCH   4  23
ATOM     23  C   UNL d   1      13.272  13.369  -4.462  0.00  0.00     0.019 A 
ATOM     24  C   UNL d   1      12.923  13.188  -3.738  0.00  0.00     0.002 A 
ATOM     25  C   UNL d   1      12.773  12.391  -3.542  0.00  0.00     0.000 A 
ATOM     26  C   UNL d   1      12.969  11.779  -4.059  0.00  0.00     0.000 A 
ATOM     27  C   UNL d   1      13.320  11.960  -4.788  0.00  0.00     0.000 A 
ATOM     28  C   UNL d   1      13.475  12.764  -4.994  0.00  0.00     0.002 A 
ENDBRANCH   4  23
TORSDOF 3
ENDMDL
