MODEL 1
REMARK VINA RESULT:      -9.7      0.000      0.000
REMARK  4 active torsions:
REMARK  status: ('A' for Active; 'I' for Inactive)
REMARK    1  A    between atoms: C_7  and  C_1 
REMARK    2  A    between atoms: C_8  and  C_2 
REMARK    3  A    between atoms: C_10  and  C_4 
REMARK    4  A    between atoms: O_13  and  C_7 
ROOT
ATOM      1  C   UNL d   1      52.839  33.263  53.361  0.00  0.00     0.086 A 
ATOM      2  C   UNL d   1      53.312  31.930  53.484  0.00  0.00     0.064 A 
ATOM      3  C   UNL d   1      52.701  31.666  52.970  0.00  0.00     0.205 A 
ATOM      4  C   UNL d   1      53.368  32.728  53.669  0.00  0.00     0.012 A 
ATOM      5  C   UNL d   1      52.229  33.000  52.848  0.00  0.00     0.107 A 
ATOM      6  O   UNL d   1      52.165  32.209  52.658  0.00  0.00    -0.288 OA
ATOM      7  N   UNL d   1      52.621  30.846  52.763  0.00  0.00    -0.121 N 
ATOM      8  C   UNL d   1      51.660  33.558  52.513  0.00  0.00     0.027 C 
ENDROOT
BRANCH   4   9
ATOM      9  C   UNL d   1      53.956  32.982  54.164  0.00  0.00     0.000 A 
ATOM     10  C   UNL d   1      53.841  32.987  54.972  0.00  0.00     0.000 A 
ATOM     11  C   UNL d   1      54.433  33.243  55.470  0.00  0.00     0.000 A 
ATOM     12  C   UNL d   1      55.151  33.498  55.168  0.00  0.00     0.000 A 
ATOM     13  C   UNL d   1      55.268  33.493  54.348  0.00  0.00     0.000 A 
ATOM     14  C   UNL d   1      54.675  33.237  53.850  0.00  0.00     0.000 A 
ENDBRANCH   4   9
BRANCH   2  15
ATOM     15  C   UNL d   1      53.847  31.375  53.793  0.00  0.00     0.126 C 
ATOM     16  N   UNL d   1      53.736  30.565  53.647  0.00  0.00    -0.146 N 
ENDBRANCH   2  15
BRANCH   1  17
ATOM     17  C   UNL d   1      52.886  34.087  53.544  0.00  0.00     0.298 C 
ATOM     18  O   UNL d   1      53.397  34.571  53.125  0.00  0.00    -0.259 OA
BRANCH  17  19
ATOM     19  O   UNL d   1      52.411  34.390  54.148  0.00  0.00    -0.296 OA
ATOM     20  C   UNL d   1      52.210  35.199  54.168  0.00  0.00     0.185 C 
ENDBRANCH  17  19
ENDBRANCH   1  17
TORSDOF 4
ENDMDL
MODEL 2
REMARK VINA RESULT:      -9.3      0.894      2.523
REMARK  4 active torsions:
REMARK  status: ('A' for Active; 'I' for Inactive)
REMARK    1  A    between atoms: C_7  and  C_1 
REMARK    2  A    between atoms: C_8  and  C_2 
REMARK    3  A    between atoms: C_10  and  C_4 
REMARK    4  A    between atoms: O_13  and  C_7 
ROOT
ATOM      1  C   UNL d   1      53.414  33.400  53.985  0.00  0.00     0.086 A 
ATOM      2  C   UNL d   1      53.016  32.175  53.386  0.00  0.00     0.064 A 
ATOM      3  C   UNL d   1      53.689  31.795  53.716  0.00  0.00     0.205 A 
ATOM      4  C   UNL d   1      52.893  32.974  53.529  0.00  0.00     0.012 A 
ATOM      5  C   UNL d   1      54.086  33.020  54.315  0.00  0.00     0.107 A 
ATOM      6  O   UNL d   1      54.218  32.226  54.179  0.00  0.00    -0.288 OA
ATOM      7  N   UNL d   1      53.840  30.969  53.584  0.00  0.00    -0.121 N 
ATOM      8  C   UNL d   1      54.649  33.459  54.802  0.00  0.00     0.027 C 
ENDROOT
BRANCH   4   9
ATOM      9  C   UNL d   1      52.244  33.341  53.211  0.00  0.00     0.000 A 
ATOM     10  C   UNL d   1      52.298  33.720  52.491  0.00  0.00     0.000 A 
ATOM     11  C   UNL d   1      51.646  34.089  52.171  0.00  0.00     0.000 A 
ATOM     12  C   UNL d   1      50.927  34.084  52.566  0.00  0.00     0.000 A 
ATOM     13  C   UNL d   1      50.873  33.699  53.297  0.00  0.00     0.000 A 
ATOM     14  C   UNL d   1      51.526  33.330  53.617  0.00  0.00     0.000 A 
ENDBRANCH   4   9
BRANCH   2  15
ATOM     15  C   UNL d   1      52.489  31.732  52.922  0.00  0.00     0.126 C 
ATOM     16  N   UNL d   1      52.564  30.906  52.884  0.00  0.00    -0.146 N 
ENDBRANCH   2  15
BRANCH   1  17
ATOM     17  C   UNL d   1      53.298  34.222  54.139  0.00  0.00     0.298 C 
ATOM     18  O   UNL d   1      53.507  34.778  53.575  0.00  0.00    -0.259 OA
BRANCH  17  19
ATOM     19  O   UNL d   1      52.974  34.451  54.864  0.00  0.00    -0.296 OA
ATOM     20  C   UNL d   1      53.113  35.213  55.172  0.00  0.00     0.185 C 
ENDBRANCH  17  19
ENDBRANCH   1  17
TORSDOF 4
ENDMDL
MODEL 3
REMARK VINA RESULT:      -9.0      1.540      2.465
REMARK  4 active torsions:
REMARK  status: ('A' for Active; 'I' for Inactive)
REMARK    1  A    between atoms: C_7  and  C_1 
REMARK    2  A    between atoms: C_8  and  C_2 
REMARK    3  A    between atoms: C_10  and  C_4 
REMARK    4  A    between atoms: O_13  and  C_7 
ROOT
ATOM      1  C   UNL d   1      53.171  32.435  53.471  0.00  0.00     0.086 A 
ATOM      2  C   UNL d   1      52.762  33.783  53.649  0.00  0.00     0.064 A 
ATOM      3  C   UNL d   1      52.108  33.652  53.139  0.00  0.00     0.205 A 
ATOM      4  C   UNL d   1      53.283  33.167  53.805  0.00  0.00     0.012 A 
ATOM      5  C   UNL d   1      52.517  32.304  52.960  0.00  0.00     0.107 A 
ATOM      6  O   UNL d   1      51.994  32.910  52.800  0.00  0.00    -0.288 OA
ATOM      7  N   UNL d   1      51.554  34.273  52.962  0.00  0.00    -0.121 N 
ATOM      8  C   UNL d   1      52.385  31.531  52.598  0.00  0.00     0.027 C 
ENDROOT
BRANCH   4   9
ATOM      9  C   UNL d   1      53.914  33.294  54.297  0.00  0.00     0.000 A 
ATOM     10  C   UNL d   1      54.633  33.529  53.991  0.00  0.00     0.000 A 
ATOM     11  C   UNL d   1      55.268  33.656  54.486  0.00  0.00     0.000 A 
ATOM     12  C   UNL d   1      55.194  33.550  55.295  0.00  0.00     0.000 A 
ATOM     13  C   UNL d   1      54.464  33.311  55.605  0.00  0.00     0.000 A 
ATOM     14  C   UNL d   1      53.829  33.184  55.110  0.00  0.00     0.000 A 
ENDBRANCH   4   9
BRANCH   2  15
ATOM     15  C   UNL d   1      52.868  34.535  53.986  0.00  0.00     0.126 C 
ATOM     16  N   UNL d   1      52.381  35.166  53.753  0.00  0.00    -0.146 N 
ENDBRANCH   2  15
BRANCH   1  17
ATOM     17  C   UNL d   1      53.700  31.794  53.622  0.00  0.00     0.298 C 
ATOM     18  O   UNL d   1      54.424  31.761  53.242  0.00  0.00    -0.259 OA
BRANCH  17  19
ATOM     19  O   UNL d   1      53.472  31.207  54.157  0.00  0.00    -0.296 OA
ATOM     20  C   UNL d   1      53.712  30.416  54.050  0.00  0.00     0.185 C 
ENDBRANCH  17  19
ENDBRANCH   1  17
TORSDOF 4
ENDMDL
MODEL 4
REMARK VINA RESULT:      -8.9      1.698      3.313
REMARK  4 active torsions:
REMARK  status: ('A' for Active; 'I' for Inactive)
REMARK    1  A    between atoms: C_7  and  C_1 
REMARK    2  A    between atoms: C_8  and  C_2 
REMARK    3  A    between atoms: C_10  and  C_4 
REMARK    4  A    between atoms: O_13  and  C_7 
ROOT
ATOM      1  C   UNL d   1      53.137  32.632  53.554  0.00  0.00     0.086 A 
ATOM      2  C   UNL d   1      53.178  33.897  54.198  0.00  0.00     0.064 A 
ATOM      3  C   UNL d   1      53.878  33.669  54.602  0.00  0.00     0.205 A 
ATOM      4  C   UNL d   1      52.821  33.370  53.680  0.00  0.00     0.012 A 
ATOM      5  C   UNL d   1      53.837  32.404  53.958  0.00  0.00     0.107 A 
ATOM      6  O   UNL d   1      54.200  32.920  54.475  0.00  0.00    -0.288 OA
ATOM      7  N   UNL d   1      54.269  34.195  55.144  0.00  0.00    -0.121 N 
ATOM      8  C   UNL d   1      54.185  31.622  53.834  0.00  0.00     0.027 C 
ENDROOT
BRANCH   4   9
ATOM      9  C   UNL d   1      52.145  33.590  53.290  0.00  0.00     0.000 A 
ATOM     10  C   UNL d   1      51.414  33.431  53.614  0.00  0.00     0.000 A 
ATOM     11  C   UNL d   1      50.734  33.652  53.223  0.00  0.00     0.000 A 
ATOM     12  C   UNL d   1      50.775  34.037  52.500  0.00  0.00     0.000 A 
ATOM     13  C   UNL d   1      51.518  34.198  52.172  0.00  0.00     0.000 A 
ATOM     14  C   UNL d   1      52.197  33.976  52.564  0.00  0.00     0.000 A 
ENDBRANCH   4   9
BRANCH   2  15
ATOM     15  C   UNL d   1      52.862  34.653  54.333  0.00  0.00     0.126 C 
ATOM     16  N   UNL d   1      53.203  35.148  54.906  0.00  0.00    -0.146 N 
ENDBRANCH   2  15
BRANCH   1  17
ATOM     17  C   UNL d   1      52.779  32.081  53.023  0.00  0.00     0.298 C 
ATOM     18  O   UNL d   1      52.885  32.162  52.215  0.00  0.00    -0.259 OA
BRANCH  17  19
ATOM     19  O   UNL d   1      52.324  31.465  53.334  0.00  0.00    -0.296 OA
ATOM     20  C   UNL d   1      52.315  30.716  52.968  0.00  0.00     0.185 C 
ENDBRANCH  17  19
ENDBRANCH   1  17
TORSDOF 4
ENDMDL
MODEL 5
REMARK VINA RESULT:      -7.8      1.503      2.578
REMARK  4 active torsions:
REMARK  status: ('A' for Active; 'I' for Inactive)
REMARK    1  A    between atoms: C_7  and  C_1 
REMARK    2  A    between atoms: C_8  and  C_2 
REMARK    3  A    between atoms: C_10  and  C_4 
REMARK    4  A    between atoms: O_13  and  C_7 
ROOT
ATOM      1  C   UNL d   1      52.765  33.517  53.669  0.00  0.00     0.086 A 
ATOM      2  C   UNL d   1      53.904  33.497  54.517  0.00  0.00     0.064 A 
ATOM      3  C   UNL d   1      53.798  34.314  54.679  0.00  0.00     0.205 A 
ATOM      4  C   UNL d   1      53.382  33.114  54.012  0.00  0.00     0.012 A 
ATOM      5  C   UNL d   1      52.659  34.335  53.831  0.00  0.00     0.107 A 
ATOM      6  O   UNL d   1      53.173  34.724  54.332  0.00  0.00    -0.288 OA
ATOM      7  N   UNL d   1      54.324  34.734  55.198  0.00  0.00    -0.121 N 
ATOM      8  C   UNL d   1      52.008  34.777  53.474  0.00  0.00     0.027 C 
ENDROOT
BRANCH   4   9
ATOM      9  C   UNL d   1      53.484  32.326  53.855  0.00  0.00     0.000 A 
ATOM     10  C   UNL d   1      53.895  32.089  53.191  0.00  0.00     0.000 A 
ATOM     11  C   UNL d   1      53.998  31.296  53.033  0.00  0.00     0.000 A 
ATOM     12  C   UNL d   1      53.692  30.726  53.537  0.00  0.00     0.000 A 
ATOM     13  C   UNL d   1      53.275  30.968  54.210  0.00  0.00     0.000 A 
ATOM     14  C   UNL d   1      53.172  31.761  54.368  0.00  0.00     0.000 A 
ENDBRANCH   4   9
BRANCH   2  15
ATOM     15  C   UNL d   1      54.537  33.093  54.872  0.00  0.00     0.126 C 
ATOM     16  N   UNL d   1      55.138  33.519  55.254  0.00  0.00    -0.146 N 
ENDBRANCH   2  15
BRANCH   1  17
ATOM     17  C   UNL d   1      52.221  33.135  53.147  0.00  0.00     0.298 C 
ATOM     18  O   UNL d   1      52.421  33.017  52.362  0.00  0.00    -0.259 OA
BRANCH  17  19
ATOM     19  O   UNL d   1      51.492  32.886  53.444  0.00  0.00    -0.296 OA
ATOM     20  C   UNL d   1      50.812  32.887  52.961  0.00  0.00     0.185 C 
ENDBRANCH  17  19
ENDBRANCH   1  17
TORSDOF 4
ENDMDL
MODEL 6
REMARK VINA RESULT:      -7.7      1.484      2.718
REMARK  4 active torsions:
REMARK  status: ('A' for Active; 'I' for Inactive)
REMARK    1  A    between atoms: C_7  and  C_1 
REMARK    2  A    between atoms: C_8  and  C_2 
REMARK    3  A    between atoms: C_10  and  C_4 
REMARK    4  A    between atoms: O_13  and  C_7 
ROOT
ATOM      1  C   UNL d   1      53.414  33.707  54.403  0.00  0.00     0.086 A 
ATOM      2  C   UNL d   1      52.462  33.532  53.364  0.00  0.00     0.064 A 
ATOM      3  C   UNL d   1      52.173  34.309  53.497  0.00  0.00     0.205 A 
ATOM      4  C   UNL d   1      53.080  33.246  53.823  0.00  0.00     0.012 A 
ATOM      5  C   UNL d   1      53.125  34.485  54.537  0.00  0.00     0.107 A 
ATOM      6  O   UNL d   1      52.511  34.778  54.086  0.00  0.00    -0.288 OA
ATOM      7  N   UNL d   1      51.534  34.629  53.036  0.00  0.00    -0.121 N 
ATOM      8  C   UNL d   1      53.470  34.986  55.150  0.00  0.00     0.027 C 
ENDROOT
BRANCH   4   9
ATOM      9  C   UNL d   1      53.359  32.497  53.695  0.00  0.00     0.000 A 
ATOM     10  C   UNL d   1      53.970  32.370  53.169  0.00  0.00     0.000 A 
ATOM     11  C   UNL d   1      54.251  31.615  53.040  0.00  0.00     0.000 A 
ATOM     12  C   UNL d   1      53.925  30.975  53.434  0.00  0.00     0.000 A 
ATOM     13  C   UNL d   1      53.304  31.105  53.967  0.00  0.00     0.000 A 
ATOM     14  C   UNL d   1      53.024  31.859  54.096  0.00  0.00     0.000 A 
ENDBRANCH   4   9
BRANCH   2  15
ATOM     15  C   UNL d   1      52.115  33.068  52.769  0.00  0.00     0.126 C 
ATOM     16  N   UNL d   1      51.504  33.382  52.302  0.00  0.00    -0.146 N 
ENDBRANCH   2  15
BRANCH   1  17
ATOM     17  C   UNL d   1      54.050  33.425  54.882  0.00  0.00     0.298 C 
ATOM     18  O   UNL d   1      53.896  32.934  55.520  0.00  0.00    -0.259 OA
BRANCH  17  19
ATOM     19  O   UNL d   1      54.822  33.653  54.696  0.00  0.00    -0.296 OA
ATOM     20  C   UNL d   1      55.397  33.739  55.293  0.00  0.00     0.185 C 
ENDBRANCH  17  19
ENDBRANCH   1  17
TORSDOF 4
ENDMDL
MODEL 7
REMARK VINA RESULT:      -7.1      1.149      2.032
REMARK  4 active torsions:
REMARK  status: ('A' for Active; 'I' for Inactive)
REMARK    1  A    between atoms: C_7  and  C_1 
REMARK    2  A    between atoms: C_8  and  C_2 
REMARK    3  A    between atoms: C_10  and  C_4 
REMARK    4  A    between atoms: O_13  and  C_7 
ROOT
ATOM      1  C   UNL d   1      52.358  33.103  53.351  0.00  0.00     0.086 A 
ATOM      2  C   UNL d   1      53.710  32.927  53.751  0.00  0.00     0.064 A 
ATOM      3  C   UNL d   1      53.690  32.136  53.469  0.00  0.00     0.205 A 
ATOM      4  C   UNL d   1      53.038  33.396  53.685  0.00  0.00     0.012 A 
ATOM      5  C   UNL d   1      52.339  32.312  53.069  0.00  0.00     0.107 A 
ATOM      6  O   UNL d   1      53.000  31.838  53.130  0.00  0.00    -0.288 OA
ATOM      7  N   UNL d   1      54.371  31.629  53.524  0.00  0.00    -0.121 N 
ATOM      8  C   UNL d   1      51.622  31.987  52.712  0.00  0.00     0.027 C 
ENDROOT
BRANCH   4   9
ATOM      9  C   UNL d   1      53.057  34.159  53.957  0.00  0.00     0.000 A 
ATOM     10  C   UNL d   1      53.234  34.772  53.449  0.00  0.00     0.000 A 
ATOM     11  C   UNL d   1      53.253  35.540  53.723  0.00  0.00     0.000 A 
ATOM     12  C   UNL d   1      53.095  35.707  54.509  0.00  0.00     0.000 A 
ATOM     13  C   UNL d   1      52.916  35.084  55.024  0.00  0.00     0.000 A 
ATOM     14  C   UNL d   1      52.897  34.316  54.751  0.00  0.00     0.000 A 
ENDBRANCH   4   9
BRANCH   2  15
ATOM     15  C   UNL d   1      54.410  33.218  54.091  0.00  0.00     0.126 C 
ATOM     16  N   UNL d   1      55.141  32.888  53.879  0.00  0.00    -0.146 N 
ENDBRANCH   2  15
BRANCH   1  17
ATOM     17  C   UNL d   1      51.661  33.575  53.278  0.00  0.00     0.298 C 
ATOM     18  O   UNL d   1      51.150  33.652  53.914  0.00  0.00    -0.259 OA
BRANCH  17  19
ATOM     19  O   UNL d   1      51.509  33.953  52.560  0.00  0.00    -0.296 OA
ATOM     20  C   UNL d   1      50.730  34.156  52.342  0.00  0.00     0.185 C 
ENDBRANCH  17  19
ENDBRANCH   1  17
TORSDOF 4
ENDMDL
MODEL 8
REMARK VINA RESULT:      -7.1      1.373      2.426
REMARK  4 active torsions:
REMARK  status: ('A' for Active; 'I' for Inactive)
REMARK    1  A    between atoms: C_7  and  C_1 
REMARK    2  A    between atoms: C_8  and  C_2 
REMARK    3  A    between atoms: C_10  and  C_4 
REMARK    4  A    between atoms: O_13  and  C_7 
ROOT
ATOM      1  C   UNL d   1      53.276  32.751  53.634  0.00  0.00     0.086 A 
ATOM      2  C   UNL d   1      51.928  33.140  53.412  0.00  0.00     0.064 A 
ATOM      3  C   UNL d   1      51.749  32.365  53.142  0.00  0.00     0.205 A 
ATOM      4  C   UNL d   1      52.693  33.317  53.653  0.00  0.00     0.012 A 
ATOM      5  C   UNL d   1      53.096  31.976  53.364  0.00  0.00     0.107 A 
ATOM      6  O   UNL d   1      52.339  31.790  53.121  0.00  0.00    -0.288 OA
ATOM      7  N   UNL d   1      50.965  32.156  52.886  0.00  0.00    -0.121 N 
ATOM      8  C   UNL d   1      53.706  31.364  53.337  0.00  0.00     0.027 C 
ENDROOT
BRANCH   4   9
ATOM      9  C   UNL d   1      52.866  34.064  53.914  0.00  0.00     0.000 A 
ATOM     10  C   UNL d   1      52.879  34.229  54.713  0.00  0.00     0.000 A 
ATOM     11  C   UNL d   1      53.053  34.981  54.975  0.00  0.00     0.000 A 
ATOM     12  C   UNL d   1      53.217  35.581  54.442  0.00  0.00     0.000 A 
ATOM     13  C   UNL d   1      53.204  35.414  53.631  0.00  0.00     0.000 A 
ATOM     14  C   UNL d   1      53.030  34.662  53.369  0.00  0.00     0.000 A 
ENDBRANCH   4   9
BRANCH   2  15
ATOM     15  C   UNL d   1      51.325  33.712  53.428  0.00  0.00     0.126 C 
ATOM     16  N   UNL d   1      50.544  33.495  53.252  0.00  0.00    -0.146 N 
ENDBRANCH   2  15
BRANCH   1  17
ATOM     17  C   UNL d   1      54.066  32.921  53.880  0.00  0.00     0.298 C 
ATOM     18  O   UNL d   1      54.263  32.893  54.674  0.00  0.00    -0.259 OA
BRANCH  17  19
ATOM     19  O   UNL d   1      54.630  33.113  53.307  0.00  0.00    -0.296 OA
ATOM     20  C   UNL d   1      55.443  33.003  53.456  0.00  0.00     0.185 C 
ENDBRANCH  17  19
ENDBRANCH   1  17
TORSDOF 4
ENDMDL
