MODEL 1
REMARK VINA RESULT:      -0.3      0.000      0.000
REMARK  3 active torsions:
REMARK  status: ('A' for Active; 'I' for Inactive)
REMARK    1  A    between atoms: C_7  and  N_1 
REMARK    2  A    between atoms: C_6  and  C_2 
REMARK    3  A    between atoms: O_19  and  C_9 
ROOT
ATOM      1  N   UNL d   1      31.306  17.688 -24.528  0.00  0.00    -0.259 N 
ATOM      2  C   UNL d   1      32.121  17.547 -24.472  0.00  0.00     0.137 A 
ATOM      3  C   UNL d   1      31.181  18.452 -24.771  0.00  0.00     0.282 A 
ATOM      4  N   UNL d   1      32.505  18.257 -24.691  0.00  0.00    -0.287 N 
ATOM      5  C   UNL d   1      31.917  18.821 -24.877  0.00  0.00     0.122 A 
ATOM      6  O   UNL d   1      30.449  18.823 -24.898  0.00  0.00    -0.265 OA
ATOM      7  C   UNL d   1      33.240  18.617 -24.795  0.00  0.00     0.082 A 
ATOM      8  C   UNL d   1      32.307  19.517 -25.092  0.00  0.00     0.024 A 
ATOM      9  C   UNL d   1      33.117  19.398 -25.044  0.00  0.00     0.021 A 
ENDROOT
BRANCH   2  10
ATOM     10  C   UNL d   1      32.496  16.848 -24.246  0.00  0.00     0.056 A 
ATOM     11  C   UNL d   1      32.789  16.762 -23.491  0.00  0.00     0.097 A 
ATOM     12  C   UNL d   1      33.163  16.069 -23.260  0.00  0.00     0.024 A 
ATOM     13  C   UNL d   1      33.241  15.453 -23.806  0.00  0.00     0.002 A 
ATOM     14  C   UNL d   1      32.948  15.538 -24.561  0.00  0.00     0.000 A 
ATOM     15  C   UNL d   1      32.569  16.242 -24.792  0.00  0.00     0.005 A 
BRANCH  11  16
ATOM     16  O   UNL d   1      32.707  17.386 -22.948  0.00  0.00    -0.328 OA
ATOM     17  C   UNL d   1      33.155  17.384 -22.234  0.00  0.00     0.181 C 
ENDBRANCH  11  16
ENDBRANCH   2  10
BRANCH   1  18
ATOM     18  C   UNL d   1      30.722  17.133 -24.360  0.00  0.00     0.068 A 
ATOM     19  C   UNL d   1      30.439  17.060 -23.594  0.00  0.00     0.018 A 
ATOM     20  C   UNL d   1      29.853  16.506 -23.419  0.00  0.00     0.013 A 
ATOM     21  C   UNL d   1      29.553  16.022 -24.022  0.00  0.00     0.058 A 
ATOM     22  C   UNL d   1      29.837  16.094 -24.793  0.00  0.00     0.013 A 
ATOM     23 CL   UNL d   1      28.968  15.468 -23.845  0.00  0.00    -0.082 Cl
ATOM     24  C   UNL d   1      30.421  16.649 -24.963  0.00  0.00     0.018 A 
ENDBRANCH   1  18
TORSDOF 3
ENDMDL
MODEL 2
REMARK VINA RESULT:       1.1      1.396      2.574
REMARK  3 active torsions:
REMARK  status: ('A' for Active; 'I' for Inactive)
REMARK    1  A    between atoms: C_7  and  N_1 
REMARK    2  A    between atoms: C_6  and  C_2 
REMARK    3  A    between atoms: O_19  and  C_9 
ROOT
ATOM      1  N   UNL d   1      31.243  16.877 -23.602  0.00  0.00    -0.259 N 
ATOM      2  C   UNL d   1      32.015  17.180 -23.585  0.00  0.00     0.137 A 
ATOM      3  C   UNL d   1      31.223  16.173 -23.200  0.00  0.00     0.282 A 
ATOM      4  N   UNL d   1      32.480  16.636 -23.153  0.00  0.00    -0.287 N 
ATOM      5  C   UNL d   1      31.984  16.008 -22.914  0.00  0.00     0.122 A 
ATOM      6  O   UNL d   1      30.562  15.684 -23.083  0.00  0.00    -0.265 OA
ATOM      7  C   UNL d   1      33.239  16.478 -22.871  0.00  0.00     0.082 A 
ATOM      8  C   UNL d   1      32.453  15.476 -22.488  0.00  0.00     0.024 A 
ATOM      9  C   UNL d   1      33.222  15.759 -22.460  0.00  0.00     0.021 A 
ENDROOT
BRANCH   2  10
ATOM     10  C   UNL d   1      32.287  17.882 -23.923  0.00  0.00     0.056 A 
ATOM     11  C   UNL d   1      32.460  18.526 -23.455  0.00  0.00     0.097 A 
ATOM     12  C   UNL d   1      32.731  19.227 -23.785  0.00  0.00     0.024 A 
ATOM     13  C   UNL d   1      32.827  19.274 -24.605  0.00  0.00     0.002 A 
ATOM     14  C   UNL d   1      32.655  18.631 -25.073  0.00  0.00     0.000 A 
ATOM     15  C   UNL d   1      32.380  17.921 -24.736  0.00  0.00     0.005 A 
BRANCH  11  16
ATOM     16  O   UNL d   1      32.360  18.471 -22.632  0.00  0.00    -0.328 OA
ATOM     17  C   UNL d   1      32.720  19.041 -22.126  0.00  0.00     0.181 C 
ENDBRANCH  11  16
ENDBRANCH   2  10
BRANCH   1  18
ATOM     18  C   UNL d   1      30.605  17.241 -23.973  0.00  0.00     0.068 A 
ATOM     19  C   UNL d   1      30.213  17.854 -23.597  0.00  0.00     0.018 A 
ATOM     20  C   UNL d   1      29.572  18.224 -23.962  0.00  0.00     0.013 A 
ATOM     21  C   UNL d   1      29.327  17.971 -24.713  0.00  0.00     0.058 A 
ATOM     22  C   UNL d   1      29.720  17.354 -25.093  0.00  0.00     0.013 A 
ATOM     23 CL   UNL d   1      28.686  18.341 -25.078  0.00  0.00    -0.082 Cl
ATOM     24  C   UNL d   1      30.360  16.988 -24.724  0.00  0.00     0.018 A 
ENDBRANCH   1  18
TORSDOF 3
ENDMDL
