MODEL 1
REMARK VINA RESULT:      -7.5      0.000      0.000
REMARK  5 active torsions:
REMARK  status: ('A' for Active; 'I' for Inactive)
REMARK    1  A    between atoms: C_2  and  C_1 
REMARK       I    between atoms: N_3  and  C_1 
REMARK    2  A    between atoms: C_9  and  N_3 
REMARK    3  A    between atoms: N_8  and  C_6 
REMARK    4  A    between atoms: C_18  and  N_8 
REMARK    5  A    between atoms: C_19  and  N_8 
ROOT
ATOM      1  C   UNL d   1      50.574  34.146  52.661  0.00  0.00     0.064 A 
ATOM      2  C   UNL d   1      51.978  33.360  53.019  0.00  0.00     0.135 A 
ATOM      3  C   UNL d   1      50.559  33.470  53.141  0.00  0.00     0.020 A 
ATOM      4  C   UNL d   1      51.278  34.425  52.363  0.00  0.00     0.020 A 
ATOM      5  C   UNL d   1      51.274  33.080  53.317  0.00  0.00     0.034 A 
ATOM      6  C   UNL d   1      51.983  34.036  52.540  0.00  0.00     0.034 A 
ENDROOT
BRANCH   2   7
ATOM      7  N   UNL d   1      52.671  32.969  53.199  0.00  0.00    -0.365 NA
ATOM      8  C   UNL d   1      53.362  32.570  53.365  0.00  0.00     0.330 C 
ATOM      9  O   UNL d   1      53.665  32.012  52.847  0.00  0.00    -0.251 OA
BRANCH   8  10
ATOM     10  C   UNL d   1      53.767  32.730  54.072  0.00  0.00     0.090 A 
ATOM     11  C   UNL d   1      54.345  33.322  54.104  0.00  0.00     0.016 A 
ATOM     12  C   UNL d   1      54.743  33.481  54.792  0.00  0.00     0.054 A 
ATOM     13 BR   UNL d   1      55.312  34.066  54.818  0.00  0.00    -0.048 Br
ATOM     14  C   UNL d   1      54.576  33.056  55.461  0.00  0.00     0.106 A 
ATOM     15  N   UNL d   1      54.008  32.465  55.453  0.00  0.00    -0.242 NA
ATOM     16  C   UNL d   1      53.600  32.305  54.741  0.00  0.00     0.105 A 
ENDBRANCH   8  10
ENDBRANCH   2   7
BRANCH   1  17
ATOM     17  N   UNL d   1      49.863  34.530  52.489  0.00  0.00    -0.304 N 
BRANCH  17  18
ATOM     18  C   UNL d   1      49.414  34.856  53.085  0.00  0.00     0.080 C 
ATOM     19  C   UNL d   1      48.952  35.519  52.938  0.00  0.00     0.021 C 
ENDBRANCH  17  18
BRANCH  17  20
ATOM     20  C   UNL d   1      49.610  34.579  51.697  0.00  0.00     0.080 C 
ATOM     21  C   UNL d   1      48.802  34.546  51.531  0.00  0.00     0.021 C 
ENDBRANCH  17  20
ENDBRANCH   1  17
TORSDOF 5
ENDMDL
MODEL 2
REMARK VINA RESULT:      -6.5      1.429      1.821
REMARK  5 active torsions:
REMARK  status: ('A' for Active; 'I' for Inactive)
REMARK    1  A    between atoms: C_2  and  C_1 
REMARK       I    between atoms: N_3  and  C_1 
REMARK    2  A    between atoms: C_9  and  N_3 
REMARK    3  A    between atoms: N_8  and  C_6 
REMARK    4  A    between atoms: C_18  and  N_8 
REMARK    5  A    between atoms: C_19  and  N_8 
ROOT
ATOM      1  C   UNL d   1      50.434  34.248  52.604  0.00  0.00     0.064 A 
ATOM      2  C   UNL d   1      51.879  33.513  52.905  0.00  0.00     0.135 A 
ATOM      3  C   UNL d   1      51.067  34.347  52.077  0.00  0.00     0.020 A 
ATOM      4  C   UNL d   1      50.520  33.789  53.271  0.00  0.00     0.020 A 
ATOM      5  C   UNL d   1      51.793  33.972  52.238  0.00  0.00     0.034 A 
ATOM      6  C   UNL d   1      51.241  33.419  53.426  0.00  0.00     0.034 A 
ENDROOT
BRANCH   2   7
ATOM      7  N   UNL d   1      52.595  33.151  53.051  0.00  0.00    -0.365 NA
ATOM      8  C   UNL d   1      53.318  32.803  53.192  0.00  0.00     0.330 C 
ATOM      9  O   UNL d   1      54.017  33.205  53.053  0.00  0.00    -0.251 OA
BRANCH   8  10
ATOM     10  C   UNL d   1      53.348  32.024  53.481  0.00  0.00     0.090 A 
ATOM     11  C   UNL d   1      53.151  31.384  52.996  0.00  0.00     0.016 A 
ATOM     12  C   UNL d   1      53.180  30.624  53.275  0.00  0.00     0.054 A 
ATOM     13 BR   UNL d   1      52.984  29.994  52.791  0.00  0.00    -0.048 Br
ATOM     14  C   UNL d   1      53.404  30.484  54.041  0.00  0.00     0.106 A 
ATOM     15  N   UNL d   1      53.603  31.102  54.540  0.00  0.00    -0.242 NA
ATOM     16  C   UNL d   1      53.572  31.885  54.247  0.00  0.00     0.105 A 
ENDBRANCH   8  10
ENDBRANCH   2   7
BRANCH   1  17
ATOM     17  N   UNL d   1      49.715  34.621  52.441  0.00  0.00    -0.304 N 
BRANCH  17  18
ATOM     18  C   UNL d   1      49.264  34.932  53.044  0.00  0.00     0.080 C 
ATOM     19  C   UNL d   1      48.839  35.624  52.925  0.00  0.00     0.021 C 
ENDBRANCH  17  18
BRANCH  17  20
ATOM     20  C   UNL d   1      49.457  34.677  51.651  0.00  0.00     0.080 C 
ATOM     21  C   UNL d   1      48.652  34.600  51.485  0.00  0.00     0.021 C 
ENDBRANCH  17  20
ENDBRANCH   1  17
TORSDOF 5
ENDMDL
MODEL 3
REMARK VINA RESULT:      -5.9      2.377      5.022
REMARK  5 active torsions:
REMARK  status: ('A' for Active; 'I' for Inactive)
REMARK    1  A    between atoms: C_2  and  C_1 
REMARK       I    between atoms: N_3  and  C_1 
REMARK    2  A    between atoms: C_9  and  N_3 
REMARK    3  A    between atoms: N_8  and  C_6 
REMARK    4  A    between atoms: C_18  and  N_8 
REMARK    5  A    between atoms: C_19  and  N_8 
ROOT
ATOM      1  C   UNL d   1      52.405  33.701  53.479  0.00  0.00     0.064 A 
ATOM      2  C   UNL d   1      50.982  34.147  52.777  0.00  0.00     0.135 A 
ATOM      3  C   UNL d   1      51.739  33.211  53.544  0.00  0.00     0.020 A 
ATOM      4  C   UNL d   1      52.362  34.403  53.069  0.00  0.00     0.020 A 
ATOM      5  C   UNL d   1      51.025  33.445  53.186  0.00  0.00     0.034 A 
ATOM      6  C   UNL d   1      51.652  34.631  52.716  0.00  0.00     0.034 A 
ENDROOT
BRANCH   2   7
ATOM      7  N   UNL d   1      50.276  34.365  52.431  0.00  0.00    -0.365 NA
ATOM      8  C   UNL d   1      49.574  34.574  52.073  0.00  0.00     0.330 C 
ATOM      9  O   UNL d   1      49.376  34.291  51.331  0.00  0.00    -0.251 OA
BRANCH   8  10
ATOM     10  C   UNL d   1      49.049  35.083  52.467  0.00  0.00     0.090 A 
ATOM     11  C   UNL d   1      48.372  35.370  52.087  0.00  0.00     0.016 A 
ATOM     12  C   UNL d   1      47.858  35.867  52.468  0.00  0.00     0.054 A 
ATOM     13 BR   UNL d   1      47.191  36.147  52.088  0.00  0.00    -0.048 Br
ATOM     14  C   UNL d   1      48.005  36.089  53.233  0.00  0.00     0.106 A 
ATOM     15  N   UNL d   1      48.668  35.817  53.629  0.00  0.00    -0.242 NA
ATOM     16  C   UNL d   1      49.196  35.305  53.232  0.00  0.00     0.105 A 
ENDBRANCH   8  10
ENDBRANCH   2   7
BRANCH   1  17
ATOM     17  N   UNL d   1      53.112  33.465  53.835  0.00  0.00    -0.304 N 
BRANCH  17  18
ATOM     18  C   UNL d   1      53.438  33.904  54.439  0.00  0.00     0.080 C 
ATOM     19  C   UNL d   1      53.882  33.536  55.023  0.00  0.00     0.021 C 
ENDBRANCH  17  18
BRANCH  17  20
ATOM     20  C   UNL d   1      53.488  32.771  53.570  0.00  0.00     0.080 C 
ATOM     21  C   UNL d   1      54.307  32.774  53.461  0.00  0.00     0.021 C 
ENDBRANCH  17  20
ENDBRANCH   1  17
TORSDOF 5
ENDMDL
