MODEL 1
REMARK VINA RESULT:     121.3      0.000      0.000
REMARK  6 active torsions:
REMARK  status: ('A' for Active; 'I' for Inactive)
REMARK    1  A    between atoms: C_12  and  N_3 
REMARK    2  A    between atoms: C_8  and  C_4 
REMARK    3  A    between atoms: O_23  and  C_11 
REMARK    4  A    between atoms: C_19  and  C_12 
REMARK    5  A    between atoms: N_13  and  C_19 
REMARK    6  A    between atoms: O_26  and  C_17 
ROOT
ATOM      1  C   UNL d   1     -58.026 -99.178 -43.762  0.00  0.00     0.083 A 
ATOM      2  C   UNL d   1     -58.841 -99.096 -43.857  0.00  0.00     0.161 A 
ATOM      3  N   UNL d   1     -58.290 -99.288 -45.055  0.00  0.00    -0.270 N 
ATOM      4  C   UNL d   1     -57.694 -99.296 -44.498  0.00  0.00     0.074 A 
ATOM      5  C   UNL d   1     -59.006 -99.164 -44.664  0.00  0.00     0.288 A 
ATOM      6  C   UNL d   1     -57.692 -99.136 -43.011  0.00  0.00     0.201 A 
ATOM      7  O   UNL d   1     -59.322 -98.970 -43.202  0.00  0.00    -0.302 OA
ATOM      8  C   UNL d   1     -58.174 -99.010 -42.354  0.00  0.00     0.064 A 
ATOM      9  C   UNL d   1     -58.989 -98.927 -42.450  0.00  0.00     0.103 A 
ATOM     10  O   UNL d   1     -59.753 -99.116 -45.010  0.00  0.00    -0.264 OA
ATOM     11  O   UNL d   1     -56.876 -99.218 -42.915  0.00  0.00    -0.286 OA
ATOM     12  C   UNL d   1     -57.839 -98.968 -41.611  0.00  0.00     0.035 A 
ATOM     13  C   UNL d   1     -59.470 -98.801 -41.795  0.00  0.00     0.027 A 
ATOM     14  C   UNL d   1     -58.321 -98.841 -40.947  0.00  0.00     0.140 A 
ATOM     15  C   UNL d   1     -59.136 -98.759 -41.052  0.00  0.00     0.032 A 
ATOM     16  F   UNL d   1     -57.987 -98.798 -40.196  0.00  0.00    -0.204 F 
ENDROOT
BRANCH   4  17
ATOM     17  C   UNL d   1     -56.889 -99.405 -44.661  0.00  0.00     0.041 A 
ATOM     18  C   UNL d   1     -56.545-100.150 -44.582  0.00  0.00     0.118 A 
ATOM     19  C   UNL d   1     -55.746-100.253 -44.745  0.00  0.00     0.116 A 
ATOM     20  C   UNL d   1     -55.286 -99.610 -44.989  0.00  0.00     0.026 A 
ATOM     21  C   UNL d   1     -55.631 -98.863 -45.069  0.00  0.00     0.002 A 
ATOM     22  C   UNL d   1     -56.434 -98.761 -44.904  0.00  0.00     0.004 A 
BRANCH  18  23
ATOM     23  O   UNL d   1     -57.005-100.787 -44.339  0.00  0.00    -0.326 OA
ATOM     24  C   UNL d   1     -56.624-101.370 -43.889  0.00  0.00     0.181 C 
ENDBRANCH  18  23
BRANCH  19  25
ATOM     25  O   UNL d   1     -55.402-101.000 -44.666  0.00  0.00    -0.326 OA
ATOM     26  C   UNL d   1     -55.005-101.200 -43.974  0.00  0.00     0.181 C 
ENDBRANCH  19  25
ENDBRANCH   4  17
BRANCH   3  27
ATOM     27  C   UNL d   1     -58.204 -99.386 -45.870  0.00  0.00     0.102 C 
BRANCH  27  28
ATOM     28  C   UNL d   1     -58.775 -99.796 -46.306  0.00  0.00     0.100 C 
BRANCH  28  29
ATOM     29  N   UNL d   1     -59.002 -99.524 -47.051  0.00  0.00    -0.298 N 
ATOM     30  C   UNL d   1     -58.501 -99.029 -47.478  0.00  0.00     0.107 A 
ATOM     31  C   UNL d   1     -58.723 -98.758 -48.216  0.00  0.00     0.142 A 
ATOM     32  O   UNL d   1     -59.456 -98.984 -48.534  0.00  0.00    -0.300 OA
ATOM     33  C   UNL d   1     -59.958 -99.480 -48.109  0.00  0.00     0.142 A 
ATOM     34  C   UNL d   1     -59.733 -99.753 -47.363  0.00  0.00     0.107 A 
ENDBRANCH  28  29
ENDBRANCH  27  28
ENDBRANCH   3  27
TORSDOF 6
ENDMDL
