MODEL 1
REMARK VINA RESULT:      -9.4      0.000      0.000
REMARK  4 active torsions:
REMARK  status: ('A' for Active; 'I' for Inactive)
REMARK    1  A    between atoms: C_2  and  C_1 
REMARK    2  A    between atoms: N_13  and  C_6 
REMARK    3  A    between atoms: N_12  and  N_13 
REMARK    4  A    between atoms: C_15  and  N_12 
ROOT
ATOM      1  C   UNL d   1      51.495  33.884  53.053  0.00  0.00     0.095 A 
ATOM      2  N   UNL d   1      50.724  34.053  53.333  0.00  0.00    -0.219 NA
ATOM      3  C   UNL d   1      50.303  34.347  52.698  0.00  0.00     0.215 A 
ATOM      4  S   UNL d   1      50.774  34.373  52.026  0.00  0.00    -0.045 SA
ATOM      5  C   UNL d   1      51.505  34.086  52.255  0.00  0.00     0.058 A 
ENDROOT
BRANCH   1   6
ATOM      6  C   UNL d   1      52.161  33.574  53.453  0.00  0.00     0.082 A 
ATOM      7  C   UNL d   1      52.327  32.777  53.393  0.00  0.00     0.302 A 
ATOM      8  O   UNL d   1      52.999  32.438  53.791  0.00  0.00    -0.273 OA
ATOM      9  O   UNL d   1      51.802  32.287  52.914  0.00  0.00    -0.259 OA
ATOM     10  C   UNL d   1      53.493  32.954  54.254  0.00  0.00     0.103 A 
ATOM     11  C   UNL d   1      53.328  33.751  54.314  0.00  0.00     0.023 A 
ATOM     12  C   UNL d   1      54.141  32.611  54.634  0.00  0.00     0.025 A 
ATOM     13  C   UNL d   1      52.662  34.061  53.914  0.00  0.00     0.009 A 
ATOM     14  C   UNL d   1      53.804  34.234  54.757  0.00  0.00     0.002 A 
ATOM     15  C   UNL d   1      54.471  33.924  55.158  0.00  0.00     0.000 A 
ATOM     16  C   UNL d   1      54.636  33.127  55.097  0.00  0.00     0.002 A 
ENDBRANCH   1   6
BRANCH   3  17
ATOM     17  N   UNL d   1      49.485  34.586  52.759  0.00  0.00    -0.122 NA
BRANCH  17  18
ATOM     18  N   UNL d   1      49.332  35.384  52.939  0.00  0.00    -0.146 NA
BRANCH  18  19
ATOM     19  C   UNL d   1      48.567  35.681  52.979  0.00  0.00     0.103 A 
ATOM     20  C   UNL d   1      48.286  35.985  53.705  0.00  0.00     0.021 A 
ATOM     21  C   UNL d   1      47.504  36.288  53.746  0.00  0.00     0.002 A 
ATOM     22  C   UNL d   1      47.048  36.270  53.059  0.00  0.00     0.000 A 
ATOM     23  C   UNL d   1      47.334  35.972  52.362  0.00  0.00     0.002 A 
ATOM     24  C   UNL d   1      48.094  35.677  52.322  0.00  0.00     0.021 A 
ENDBRANCH  18  19
ENDBRANCH  17  18
ENDBRANCH   3  17
TORSDOF 4
ENDMDL
MODEL 2
REMARK VINA RESULT:      -9.1      0.915      1.419
REMARK  4 active torsions:
REMARK  status: ('A' for Active; 'I' for Inactive)
REMARK    1  A    between atoms: C_2  and  C_1 
REMARK    2  A    between atoms: N_13  and  C_6 
REMARK    3  A    between atoms: N_12  and  N_13 
REMARK    4  A    between atoms: C_15  and  N_12 
ROOT
ATOM      1  C   UNL d   1      51.170  34.122  52.851  0.00  0.00     0.095 A 
ATOM      2  N   UNL d   1      50.480  34.345  53.271  0.00  0.00    -0.219 NA
ATOM      3  C   UNL d   1      49.919  34.545  52.712  0.00  0.00     0.215 A 
ATOM      4  S   UNL d   1      50.222  34.457  51.954  0.00  0.00    -0.045 SA
ATOM      5  C   UNL d   1      50.992  34.196  52.050  0.00  0.00     0.058 A 
ENDROOT
BRANCH   1   6
ATOM      6  C   UNL d   1      51.915  33.866  53.130  0.00  0.00     0.082 A 
ATOM      7  C   UNL d   1      52.428  34.412  53.455  0.00  0.00     0.302 A 
ATOM      8  O   UNL d   1      53.193  34.175  53.746  0.00  0.00    -0.273 OA
ATOM      9  O   UNL d   1      52.174  35.235  53.495  0.00  0.00    -0.259 OA
ATOM     10  C   UNL d   1      53.407  33.353  53.689  0.00  0.00     0.103 A 
ATOM     11  C   UNL d   1      52.895  32.807  53.365  0.00  0.00     0.023 A 
ATOM     12  C   UNL d   1      54.151  33.139  53.976  0.00  0.00     0.025 A 
ATOM     13  C   UNL d   1      52.149  33.063  53.085  0.00  0.00     0.009 A 
ATOM     14  C   UNL d   1      53.108  32.027  53.315  0.00  0.00     0.002 A 
ATOM     15  C   UNL d   1      53.854  31.771  53.595  0.00  0.00     0.000 A 
ATOM     16  C   UNL d   1      54.366  32.317  53.919  0.00  0.00     0.002 A 
ENDBRANCH   1   6
BRANCH   3  17
ATOM     17  N   UNL d   1      49.133  34.805  52.921  0.00  0.00    -0.122 NA
BRANCH  17  18
ATOM     18  N   UNL d   1      48.991  35.624  52.929  0.00  0.00    -0.146 NA
BRANCH  18  19
ATOM     19  C   UNL d   1      48.254  35.935  53.119  0.00  0.00     0.103 A 
ATOM     20  C   UNL d   1      47.683  36.027  52.515  0.00  0.00     0.021 A 
ATOM     21  C   UNL d   1      46.930  36.344  52.709  0.00  0.00     0.002 A 
ATOM     22  C   UNL d   1      46.792  36.552  53.495  0.00  0.00     0.000 A 
ATOM     23  C   UNL d   1      47.355  36.457  54.070  0.00  0.00     0.002 A 
ATOM     24  C   UNL d   1      48.086  36.149  53.881  0.00  0.00     0.021 A 
ENDBRANCH  18  19
ENDBRANCH  17  18
ENDBRANCH   3  17
TORSDOF 4
ENDMDL
MODEL 3
REMARK VINA RESULT:      -8.6      1.771      5.516
REMARK  4 active torsions:
REMARK  status: ('A' for Active; 'I' for Inactive)
REMARK    1  A    between atoms: C_2  and  C_1 
REMARK    2  A    between atoms: N_13  and  C_6 
REMARK    3  A    between atoms: N_12  and  N_13 
REMARK    4  A    between atoms: C_15  and  N_12 
ROOT
ATOM      1  C   UNL d   1      50.543  34.299  52.765  0.00  0.00     0.095 A 
ATOM      2  N   UNL d   1      50.706  33.523  53.036  0.00  0.00    -0.219 NA
ATOM      3  C   UNL d   1      51.514  33.477  53.145  0.00  0.00     0.215 A 
ATOM      4  S   UNL d   1      51.872  34.190  52.956  0.00  0.00    -0.045 SA
ATOM      5  C   UNL d   1      51.268  34.690  52.724  0.00  0.00     0.058 A 
ENDROOT
BRANCH   1   6
ATOM      6  C   UNL d   1      49.818  34.662  52.563  0.00  0.00     0.082 A 
ATOM      7  C   UNL d   1      49.522  34.567  51.808  0.00  0.00     0.302 A 
ATOM      8  O   UNL d   1      48.785  34.927  51.578  0.00  0.00    -0.273 OA
ATOM      9  O   UNL d   1      49.977  34.093  51.248  0.00  0.00    -0.259 OA
ATOM     10  C   UNL d   1      48.365  35.387  52.158  0.00  0.00     0.103 A 
ATOM     11  C   UNL d   1      48.660  35.482  52.912  0.00  0.00     0.023 A 
ATOM     12  C   UNL d   1      47.652  35.730  51.920  0.00  0.00     0.025 A 
ATOM     13  C   UNL d   1      49.386  35.119  53.115  0.00  0.00     0.009 A 
ATOM     14  C   UNL d   1      48.253  35.922  53.457  0.00  0.00     0.002 A 
ATOM     15  C   UNL d   1      47.527  36.285  53.255  0.00  0.00     0.000 A 
ATOM     16  C   UNL d   1      47.232  36.191  52.500  0.00  0.00     0.002 A 
ENDBRANCH   1   6
BRANCH   3  17
ATOM     17  N   UNL d   1      51.901  32.767  53.421  0.00  0.00    -0.122 NA
BRANCH  17  18
ATOM     18  N   UNL d   1      52.445  32.404  52.907  0.00  0.00    -0.146 NA
BRANCH  18  19
ATOM     19  C   UNL d   1      52.823  31.701  53.101  0.00  0.00     0.103 A 
ATOM     20  C   UNL d   1      52.494  30.977  52.843  0.00  0.00     0.021 A 
ATOM     21  C   UNL d   1      52.880  30.258  53.042  0.00  0.00     0.002 A 
ATOM     22  C   UNL d   1      53.573  30.305  53.487  0.00  0.00     0.000 A 
ATOM     23  C   UNL d   1      53.881  31.014  53.730  0.00  0.00     0.002 A 
ATOM     24  C   UNL d   1      53.505  31.712  53.537  0.00  0.00     0.021 A 
ENDBRANCH  18  19
ENDBRANCH  17  18
ENDBRANCH   3  17
TORSDOF 4
ENDMDL
MODEL 4
REMARK VINA RESULT:      -8.4      1.408      5.477
REMARK  4 active torsions:
REMARK  status: ('A' for Active; 'I' for Inactive)
REMARK    1  A    between atoms: C_2  and  C_1 
REMARK    2  A    between atoms: N_13  and  C_6 
REMARK    3  A    between atoms: N_12  and  N_13 
REMARK    4  A    between atoms: C_15  and  N_12 
ROOT
ATOM      1  C   UNL d   1      50.340  34.287  52.885  0.00  0.00     0.095 A 
ATOM      2  N   UNL d   1      51.133  34.541  52.977  0.00  0.00    -0.219 NA
ATOM      3  C   UNL d   1      51.561  33.891  53.225  0.00  0.00     0.215 A 
ATOM      4  S   UNL d   1      51.074  33.234  53.295  0.00  0.00    -0.045 SA
ATOM      5  C   UNL d   1      50.325  33.487  53.084  0.00  0.00     0.058 A 
ENDROOT
BRANCH   1   6
ATOM      6  C   UNL d   1      49.660  34.710  52.645  0.00  0.00     0.082 A 
ATOM      7  C   UNL d   1      49.412  34.657  51.869  0.00  0.00     0.302 A 
ATOM      8  O   UNL d   1      48.722  35.079  51.600  0.00  0.00    -0.273 OA
ATOM      9  O   UNL d   1      49.867  34.163  51.328  0.00  0.00    -0.259 OA
ATOM     10  C   UNL d   1      48.299  35.556  52.164  0.00  0.00     0.103 A 
ATOM     11  C   UNL d   1      48.547  35.609  52.939  0.00  0.00     0.023 A 
ATOM     12  C   UNL d   1      47.633  35.959  51.889  0.00  0.00     0.025 A 
ATOM     13  C   UNL d   1      49.227  35.186  53.180  0.00  0.00     0.009 A 
ATOM     14  C   UNL d   1      48.138  36.067  53.468  0.00  0.00     0.002 A 
ATOM     15  C   UNL d   1      47.457  36.490  53.228  0.00  0.00     0.000 A 
ATOM     16  C   UNL d   1      47.209  36.437  52.452  0.00  0.00     0.002 A 
ENDBRANCH   1   6
BRANCH   3  17
ATOM     17  N   UNL d   1      52.400  33.924  53.382  0.00  0.00    -0.122 NA
BRANCH  17  18
ATOM     18  N   UNL d   1      52.715  33.357  53.902  0.00  0.00    -0.146 NA
BRANCH  18  19
ATOM     19  C   UNL d   1      53.505  33.367  54.130  0.00  0.00     0.103 A 
ATOM     20  C   UNL d   1      53.719  33.752  54.840  0.00  0.00     0.021 A 
ATOM     21  C   UNL d   1      54.526  33.763  55.072  0.00  0.00     0.002 A 
ATOM     22  C   UNL d   1      55.072  33.388  54.580  0.00  0.00     0.000 A 
ATOM     23  C   UNL d   1      54.850  33.018  53.894  0.00  0.00     0.002 A 
ATOM     24  C   UNL d   1      54.065  33.008  53.669  0.00  0.00     0.021 A 
ENDBRANCH  18  19
ENDBRANCH  17  18
ENDBRANCH   3  17
TORSDOF 4
ENDMDL
MODEL 5
REMARK VINA RESULT:      -8.1      1.570      2.258
REMARK  4 active torsions:
REMARK  status: ('A' for Active; 'I' for Inactive)
REMARK    1  A    between atoms: C_2  and  C_1 
REMARK    2  A    between atoms: N_13  and  C_6 
REMARK    3  A    between atoms: N_12  and  N_13 
REMARK    4  A    between atoms: C_15  and  N_12 
ROOT
ATOM      1  C   UNL d   1      52.180  33.232  53.076  0.00  0.00     0.095 A 
ATOM      2  N   UNL d   1      51.555  33.388  52.541  0.00  0.00    -0.219 NA
ATOM      3  C   UNL d   1      51.304  34.151  52.689  0.00  0.00     0.215 A 
ATOM      4  S   UNL d   1      51.743  34.487  53.295  0.00  0.00    -0.045 SA
ATOM      5  C   UNL d   1      52.279  33.915  53.527  0.00  0.00     0.058 A 
ENDROOT
BRANCH   1   6
ATOM      6  C   UNL d   1      52.646  32.546  53.179  0.00  0.00     0.082 A 
ATOM      7  C   UNL d   1      53.452  32.624  53.286  0.00  0.00     0.302 A 
ATOM      8  O   UNL d   1      53.947  31.939  53.393  0.00  0.00    -0.273 OA
ATOM      9  O   UNL d   1      53.788  33.418  53.287  0.00  0.00    -0.259 OA
ATOM     10  C   UNL d   1      53.579  31.172  53.386  0.00  0.00     0.103 A 
ATOM     11  C   UNL d   1      52.774  31.094  53.279  0.00  0.00     0.023 A 
ATOM     12  C   UNL d   1      54.072  30.518  53.491  0.00  0.00     0.025 A 
ATOM     13  C   UNL d   1      52.307  31.780  53.176  0.00  0.00     0.009 A 
ATOM     14  C   UNL d   1      52.432  30.359  53.274  0.00  0.00     0.002 A 
ATOM     15  C   UNL d   1      52.898  29.672  53.377  0.00  0.00     0.000 A 
ATOM     16  C   UNL d   1      53.704  29.750  53.484  0.00  0.00     0.002 A 
ENDBRANCH   1   6
BRANCH   3  17
ATOM     17  N   UNL d   1      50.667  34.520  52.253  0.00  0.00    -0.122 NA
BRANCH  17  18
ATOM     18  N   UNL d   1      49.891  34.369  52.510  0.00  0.00    -0.146 NA
BRANCH  18  19
ATOM     19  C   UNL d   1      49.238  34.697  52.133  0.00  0.00     0.103 A 
ATOM     20  C   UNL d   1      48.767  35.252  52.543  0.00  0.00     0.021 A 
ATOM     21  C   UNL d   1      48.100  35.587  52.158  0.00  0.00     0.002 A 
ATOM     22  C   UNL d   1      47.943  35.347  51.385  0.00  0.00     0.000 A 
ATOM     23  C   UNL d   1      48.409  34.807  50.999  0.00  0.00     0.002 A 
ATOM     24  C   UNL d   1      49.057  34.482  51.374  0.00  0.00     0.021 A 
ENDBRANCH  18  19
ENDBRANCH  17  18
ENDBRANCH   3  17
TORSDOF 4
ENDMDL
