MODEL 1
REMARK VINA RESULT:      73.4      0.000      0.000
REMARK  3 active torsions:
REMARK  status: ('A' for Active; 'I' for Inactive)
REMARK    1  A    between atoms: C_16  and  C_4 
REMARK    2  A    between atoms: C_10  and  O_14 
REMARK    3  A    between atoms: O_14  and  C_16 
ROOT
ATOM      1  C   UNL d   1      61.080  47.153  51.356  0.00  0.00     0.030 A 
ATOM      2  C   UNL d   1      60.777  47.806  50.985  0.00  0.00     0.105 A 
ATOM      3  C   UNL d   1      60.354  48.360  51.428  0.00  0.00     0.118 A 
ATOM      4  N   UNL d   1      60.879  47.931  50.181  0.00  0.00    -0.242 NA
ATOM      5  C   UNL d   1      60.978  47.030  52.157  0.00  0.00     0.059 A 
ATOM      6  C   UNL d   1      60.240  48.258  52.229  0.00  0.00     0.027 A 
ATOM      7  C   UNL d   1      60.553  47.587  52.603  0.00  0.00     0.013 A 
ATOM      8 CL   UNL d   1      61.292  46.359  52.529  0.00  0.00    -0.082 Cl
ATOM      9  C   UNL d   1      61.502  46.598  50.918  0.00  0.00     0.004 A 
ATOM     10  C   UNL d   1      61.305  47.374  49.734  0.00  0.00     0.099 A 
ATOM     11  C   UNL d   1      61.618  46.703  50.108  0.00  0.00     0.021 A 
ENDROOT
BRANCH   3  12
ATOM     12  O   UNL d   1      60.041  49.032  51.056  0.00  0.00    -0.302 OA
BRANCH  12  13
ATOM     13  C   UNL d   1      59.722  49.705  50.690  0.00  0.00     0.144 C 
BRANCH  13  14
ATOM     14  C   UNL d   1      58.930  49.706  50.444  0.00  0.00     0.142 A 
ATOM     15  N   UNL d   1      58.670  49.706  49.685  0.00  0.00    -0.057 NA
ATOM     16  C   UNL d   1      57.865  49.707  49.694  0.00  0.00     0.735 A 
ATOM     17  N   UNL d   1      57.623  49.707  50.493  0.00  0.00    -0.136 N 
ATOM     18  N   UNL d   1      57.292  49.707  49.097  0.00  0.00    -0.059 NA
ATOM     19  C   UNL d   1      58.281  49.706  50.943  0.00  0.00     0.120 A 
ATOM     20  C   UNL d   1      56.822  49.708  50.676  0.00  0.00     0.100 A 
ATOM     21  C   UNL d   1      56.259  49.708  50.083  0.00  0.00     0.041 A 
ATOM     22  C   UNL d   1      56.497  49.708  49.282  0.00  0.00     0.119 A 
ENDBRANCH  13  14
ENDBRANCH  12  13
ENDBRANCH   3  12
TORSDOF 3
ENDMDL
MODEL 2
REMARK VINA RESULT:      74.3      1.797      4.334
REMARK  3 active torsions:
REMARK  status: ('A' for Active; 'I' for Inactive)
REMARK    1  A    between atoms: C_16  and  C_4 
REMARK    2  A    between atoms: C_10  and  O_14 
REMARK    3  A    between atoms: O_14  and  C_16 
ROOT
ATOM      1  C   UNL d   1      60.034  49.372  51.628  0.00  0.00     0.030 A 
ATOM      2  C   UNL d   1      60.341  49.052  50.950  0.00  0.00     0.105 A 
ATOM      3  C   UNL d   1      61.098  48.722  50.969  0.00  0.00     0.118 A 
ATOM      4  N   UNL d   1      59.920  49.046  50.246  0.00  0.00    -0.242 NA
ATOM      5  C   UNL d   1      60.455  49.377  52.327  0.00  0.00     0.059 A 
ATOM      6  C   UNL d   1      61.537  48.715  51.656  0.00  0.00     0.027 A 
ATOM      7  C   UNL d   1      61.216  49.045  52.346  0.00  0.00     0.013 A 
ATOM      8 CL   UNL d   1      60.133  49.707  53.017  0.00  0.00    -0.082 Cl
ATOM      9  C   UNL d   1      59.280  49.702  51.614  0.00  0.00     0.004 A 
ATOM     10  C   UNL d   1      59.158  49.378  50.228  0.00  0.00     0.099 A 
ATOM     11  C   UNL d   1      58.837  49.708  50.917  0.00  0.00     0.021 A 
ENDROOT
BRANCH   3  12
ATOM     12  O   UNL d   1      61.420  48.392  50.279  0.00  0.00    -0.302 OA
BRANCH  12  13
ATOM     13  C   UNL d   1      61.750  48.064  49.591  0.00  0.00     0.144 C 
BRANCH  13  14
ATOM     14  C   UNL d   1      61.826  47.241  49.521  0.00  0.00     0.142 A 
ATOM     15  N   UNL d   1      62.461  46.848  49.231  0.00  0.00    -0.057 NA
ATOM     16  C   UNL d   1      62.304  46.058  49.262  0.00  0.00     0.735 A 
ATOM     17  N   UNL d   1      61.541  45.967  49.586  0.00  0.00    -0.136 N 
ATOM     18  N   UNL d   1      62.737  45.387  49.046  0.00  0.00    -0.059 NA
ATOM     19  C   UNL d   1      61.256  46.695  49.741  0.00  0.00     0.120 A 
ATOM     20  C   UNL d   1      61.229  45.213  49.686  0.00  0.00     0.100 A 
ATOM     21  C   UNL d   1      61.659  44.552  49.471  0.00  0.00     0.041 A 
ATOM     22  C   UNL d   1      62.424  44.639  49.146  0.00  0.00     0.119 A 
ENDBRANCH  13  14
ENDBRANCH  12  13
ENDBRANCH   3  12
TORSDOF 3
ENDMDL
MODEL 3
REMARK VINA RESULT:      75.2      2.448      4.438
REMARK  3 active torsions:
REMARK  status: ('A' for Active; 'I' for Inactive)
REMARK    1  A    between atoms: C_16  and  C_4 
REMARK    2  A    between atoms: C_10  and  O_14 
REMARK    3  A    between atoms: O_14  and  C_16 
ROOT
ATOM      1  C   UNL d   1      60.177  49.370  51.723  0.00  0.00     0.030 A 
ATOM      2  C   UNL d   1      60.817  49.049  51.345  0.00  0.00     0.105 A 
ATOM      3  C   UNL d   1      60.716  48.719  50.594  0.00  0.00     0.118 A 
ATOM      4  N   UNL d   1      61.562  49.042  51.687  0.00  0.00    -0.242 NA
ATOM      5  C   UNL d   1      59.436  49.376  51.381  0.00  0.00     0.059 A 
ATOM      6  C   UNL d   1      59.985  48.713  50.232  0.00  0.00     0.027 A 
ATOM      7  C   UNL d   1      59.334  49.044  50.626  0.00  0.00     0.013 A 
ATOM      8 CL   UNL d   1      58.785  49.707  51.775  0.00  0.00    -0.082 Cl
ATOM      9  C   UNL d   1      60.272  49.700  52.471  0.00  0.00     0.004 A 
ATOM     10  C   UNL d   1      61.664  49.374  52.443  0.00  0.00     0.099 A 
ATOM     11  C   UNL d   1      61.013  49.705  52.836  0.00  0.00     0.021 A 
ENDROOT
BRANCH   3  12
ATOM     12  O   UNL d   1      61.366  48.388  50.200  0.00  0.00    -0.302 OA
BRANCH  12  13
ATOM     13  C   UNL d   1      62.013  48.049  49.805  0.00  0.00     0.144 C 
BRANCH  13  14
ATOM     14  C   UNL d   1      62.006  47.240  49.620  0.00  0.00     0.142 A 
ATOM     15  N   UNL d   1      62.650  46.776  49.505  0.00  0.00    -0.057 NA
ATOM     16  C   UNL d   1      62.395  46.030  49.337  0.00  0.00     0.735 A 
ATOM     17  N   UNL d   1      61.561  46.041  49.350  0.00  0.00    -0.136 N 
ATOM     18  N   UNL d   1      62.789  45.322  49.170  0.00  0.00    -0.059 NA
ATOM     19  C   UNL d   1      61.333  46.785  49.524  0.00  0.00     0.120 A 
ATOM     20  C   UNL d   1      61.142  45.351  49.197  0.00  0.00     0.100 A 
ATOM     21  C   UNL d   1      61.535  44.653  49.032  0.00  0.00     0.041 A 
ATOM     22  C   UNL d   1      62.370  44.638  49.018  0.00  0.00     0.119 A 
ENDBRANCH  13  14
ENDBRANCH  12  13
ENDBRANCH   3  12
TORSDOF 3
ENDMDL
