MODEL 1
REMARK VINA RESULT:      -6.4      0.000      0.000
REMARK  10 active torsions:
REMARK  status: ('A' for Active; 'I' for Inactive)
REMARK    1  A    between atoms: C_7  and  C_1 
REMARK    2  A    between atoms: C_8  and  C_2 
REMARK    3  A    between atoms: O_24  and  C_8 
REMARK    4  A    between atoms: O_25  and  C_12 
REMARK    5  A    between atoms: C_14  and  C_22 
REMARK    6  A    between atoms: O_26  and  C_14 
REMARK    7  A    between atoms: O_27  and  C_16 
REMARK    8  A    between atoms: O_21  and  C_20 
REMARK    9  A    between atoms: C_22  and  O_21 
REMARK   10  A    between atoms: C_28  and  O_24 
ROOT
ATOM      1  C   UNL d   1      52.529  33.500  53.429  0.00  0.00     0.067 A 
ATOM      2  C   UNL d   1      52.289  32.873  52.940  0.00  0.00     0.166 A 
ATOM      3  C   UNL d   1      52.032  34.168  53.523  0.00  0.00     0.200 A 
ATOM      4  O   UNL d   1      51.553  32.905  52.541  0.00  0.00    -0.301 OA
ATOM      5  C   UNL d   1      51.311  34.203  53.133  0.00  0.00     0.062 A 
ATOM      6  C   UNL d   1      51.068  33.571  52.640  0.00  0.00     0.105 A 
ATOM      7  C   UNL d   1      50.339  33.606  52.245  0.00  0.00     0.050 A 
ATOM      8  C   UNL d   1      50.810  34.862  53.219  0.00  0.00     0.007 A 
ATOM      9  O   UNL d   1      52.274  34.790  54.010  0.00  0.00    -0.286 OA
ATOM     10  C   UNL d   1      49.852  34.269  52.342  0.00  0.00     0.102 A 
ATOM     11  C   UNL d   1      50.087  34.894  52.827  0.00  0.00     0.025 A 
ENDROOT
BRANCH   1  12
ATOM     12  C   UNL d   1      53.252  33.468  53.821  0.00  0.00     0.007 A 
ATOM     13  C   UNL d   1      53.278  33.172  54.596  0.00  0.00     0.026 A 
ATOM     14  C   UNL d   1      54.009  33.143  54.984  0.00  0.00     0.116 A 
ATOM     15  C   UNL d   1      54.698  33.405  54.605  0.00  0.00     0.116 A 
ATOM     16  C   UNL d   1      54.661  33.697  53.836  0.00  0.00     0.026 A 
ATOM     17  C   UNL d   1      53.938  33.728  53.444  0.00  0.00     0.002 A 
BRANCH  14  18
ATOM     18  O   UNL d   1      54.045  32.851  55.753  0.00  0.00    -0.326 OA
ATOM     19  C   UNL d   1      54.072  32.037  55.886  0.00  0.00     0.181 C 
ENDBRANCH  14  18
BRANCH  15  20
ATOM     20  O   UNL d   1      55.419  33.372  54.998  0.00  0.00    -0.326 OA
ATOM     21  C   UNL d   1      55.938  34.015  54.954  0.00  0.00     0.181 C 
ENDBRANCH  15  20
ENDBRANCH   1  12
BRANCH   2  22
ATOM     22  C   UNL d   1      52.778  32.217  52.849  0.00  0.00     0.323 C 
ATOM     23  O   UNL d   1      53.491  32.280  52.445  0.00  0.00    -0.257 OA
BRANCH  22  24
ATOM     24  O   UNL d   1      52.552  31.481  53.167  0.00  0.00    -0.270 OA
BRANCH  24  25
ATOM     25  C   UNL d   1      52.747  30.784  52.775  0.00  0.00     0.126 C 
ATOM     26  C   UNL d   1      52.640  30.056  53.148  0.00  0.00     0.029 C 
ENDBRANCH  24  25
ENDBRANCH  22  24
ENDBRANCH   2  22
BRANCH  10  27
ATOM     27  O   UNL d   1      49.130  34.300  51.949  0.00  0.00    -0.300 OA
BRANCH  27  28
ATOM     28  C   UNL d   1      48.749  35.017  51.840  0.00  0.00     0.191 C 
BRANCH  28  29
ATOM     29  C   UNL d   1      48.022  35.044  51.450  0.00  0.00     0.321 C 
ATOM     30  O   UNL d   1      47.895  34.588  50.774  0.00  0.00    -0.257 OA
BRANCH  29  31
ATOM     31  O   UNL d   1      47.418  35.527  51.731  0.00  0.00    -0.294 OA
ATOM     32  C   UNL d   1      46.730  35.636  51.292  0.00  0.00     0.185 C 
ENDBRANCH  29  31
ENDBRANCH  28  29
ENDBRANCH  27  28
ENDBRANCH  10  27
TORSDOF 10
ENDMDL
MODEL 2
REMARK VINA RESULT:      -5.1      1.175      2.372
REMARK  10 active torsions:
REMARK  status: ('A' for Active; 'I' for Inactive)
REMARK    1  A    between atoms: C_7  and  C_1 
REMARK    2  A    between atoms: C_8  and  C_2 
REMARK    3  A    between atoms: O_24  and  C_8 
REMARK    4  A    between atoms: O_25  and  C_12 
REMARK    5  A    between atoms: C_14  and  C_22 
REMARK    6  A    between atoms: O_26  and  C_14 
REMARK    7  A    between atoms: O_27  and  C_16 
REMARK    8  A    between atoms: O_21  and  C_20 
REMARK    9  A    between atoms: C_22  and  O_21 
REMARK   10  A    between atoms: C_28  and  O_24 
ROOT
ATOM      1  C   UNL d   1      51.987  33.954  53.118  0.00  0.00     0.067 A 
ATOM      2  C   UNL d   1      51.780  34.547  53.660  0.00  0.00     0.166 A 
ATOM      3  C   UNL d   1      51.451  33.737  52.512  0.00  0.00     0.200 A 
ATOM      4  O   UNL d   1      51.037  34.931  53.604  0.00  0.00    -0.301 OA
ATOM      5  C   UNL d   1      50.723  34.111  52.454  0.00  0.00     0.062 A 
ATOM      6  C   UNL d   1      50.512  34.709  53.000  0.00  0.00     0.105 A 
ATOM      7  C   UNL d   1      49.776  35.088  52.942  0.00  0.00     0.050 A 
ATOM      8  C   UNL d   1      50.183  33.903  51.856  0.00  0.00     0.007 A 
ATOM      9  O   UNL d   1      51.662  33.146  51.975  0.00  0.00    -0.286 OA
ATOM     10  C   UNL d   1      49.250  34.869  52.341  0.00  0.00     0.102 A 
ATOM     11  C   UNL d   1      49.453  34.279  51.800  0.00  0.00     0.025 A 
ENDROOT
BRANCH   1  12
ATOM     12  C   UNL d   1      52.717  33.577  53.174  0.00  0.00     0.007 A 
ATOM     13  C   UNL d   1      52.769  32.854  53.577  0.00  0.00     0.026 A 
ATOM     14  C   UNL d   1      53.507  32.482  53.629  0.00  0.00     0.116 A 
ATOM     15  C   UNL d   1      54.178  32.825  53.285  0.00  0.00     0.116 A 
ATOM     16  C   UNL d   1      54.116  33.544  52.886  0.00  0.00     0.026 A 
ATOM     17  C   UNL d   1      53.385  33.919  52.831  0.00  0.00     0.002 A 
BRANCH  14  18
ATOM     18  O   UNL d   1      53.568  31.764  54.028  0.00  0.00    -0.326 OA
ATOM     19  C   UNL d   1      53.186  31.094  53.735  0.00  0.00     0.181 C 
ENDBRANCH  14  18
BRANCH  15  20
ATOM     20  O   UNL d   1      54.905  32.448  53.342  0.00  0.00    -0.326 OA
ATOM     21  C   UNL d   1      55.601  32.884  53.236  0.00  0.00     0.181 C 
ENDBRANCH  15  20
ENDBRANCH   1  12
BRANCH   2  22
ATOM     22  C   UNL d   1      52.307  34.759  54.256  0.00  0.00     0.323 C 
ATOM     23  O   UNL d   1      52.417  34.273  54.910  0.00  0.00    -0.257 OA
BRANCH  22  24
ATOM     24  O   UNL d   1      52.736  35.472  54.199  0.00  0.00    -0.270 OA
BRANCH  24  25
ATOM     25  C   UNL d   1      52.912  35.903  54.877  0.00  0.00     0.126 C 
ATOM     26  C   UNL d   1      53.337  36.608  54.821  0.00  0.00     0.029 C 
ENDBRANCH  24  25
ENDBRANCH  22  24
ENDBRANCH   2  22
BRANCH  10  27
ATOM     27  O   UNL d   1      48.521  35.246  52.286  0.00  0.00    -0.300 OA
BRANCH  27  28
ATOM     28  C   UNL d   1      48.099  35.231  51.583  0.00  0.00     0.191 C 
BRANCH  28  29
ATOM     29  C   UNL d   1      47.365  35.604  51.533  0.00  0.00     0.321 C 
ATOM     30  O   UNL d   1      47.273  36.380  51.800  0.00  0.00    -0.257 OA
BRANCH  29  31
ATOM     31  O   UNL d   1      46.718  35.207  51.217  0.00  0.00    -0.294 OA
ATOM     32  C   UNL d   1      45.982  35.574  51.170  0.00  0.00     0.185 C 
ENDBRANCH  29  31
ENDBRANCH  28  29
ENDBRANCH  27  28
ENDBRANCH  10  27
TORSDOF 10
ENDMDL
MODEL 3
REMARK VINA RESULT:      -4.6      1.333      2.541
REMARK  10 active torsions:
REMARK  status: ('A' for Active; 'I' for Inactive)
REMARK    1  A    between atoms: C_7  and  C_1 
REMARK    2  A    between atoms: C_8  and  C_2 
REMARK    3  A    between atoms: O_24  and  C_8 
REMARK    4  A    between atoms: O_25  and  C_12 
REMARK    5  A    between atoms: C_14  and  C_22 
REMARK    6  A    between atoms: O_26  and  C_14 
REMARK    7  A    between atoms: O_27  and  C_16 
REMARK    8  A    between atoms: O_21  and  C_20 
REMARK    9  A    between atoms: C_22  and  O_21 
REMARK   10  A    between atoms: C_28  and  O_24 
ROOT
ATOM      1  C   UNL d   1      52.493  32.512  53.384  0.00  0.00     0.067 A 
ATOM      2  C   UNL d   1      52.841  33.234  53.601  0.00  0.00     0.166 A 
ATOM      3  C   UNL d   1      51.687  32.490  53.157  0.00  0.00     0.200 A 
ATOM      4  O   UNL d   1      52.390  33.940  53.595  0.00  0.00    -0.301 OA
ATOM      5  C   UNL d   1      51.242  33.179  53.149  0.00  0.00     0.062 A 
ATOM      6  C   UNL d   1      51.592  33.907  53.369  0.00  0.00     0.105 A 
ATOM      7  C   UNL d   1      51.142  34.605  53.361  0.00  0.00     0.050 A 
ATOM      8  C   UNL d   1      50.441  33.167  52.925  0.00  0.00     0.007 A 
ATOM      9  O   UNL d   1      51.345  31.769  52.941  0.00  0.00    -0.286 OA
ATOM     10  C   UNL d   1      50.346  34.576  53.136  0.00  0.00     0.102 A 
ATOM     11  C   UNL d   1      49.997  33.861  52.919  0.00  0.00     0.025 A 
ENDROOT
BRANCH   1  12
ATOM     12  C   UNL d   1      52.937  31.818  53.390  0.00  0.00     0.007 A 
ATOM     13  C   UNL d   1      52.941  31.348  54.073  0.00  0.00     0.026 A 
ATOM     14  C   UNL d   1      53.390  30.652  54.072  0.00  0.00     0.116 A 
ATOM     15  C   UNL d   1      53.825  30.432  53.402  0.00  0.00     0.116 A 
ATOM     16  C   UNL d   1      53.814  30.906  52.728  0.00  0.00     0.026 A 
ATOM     17  C   UNL d   1      53.370  31.599  52.723  0.00  0.00     0.002 A 
BRANCH  14  18
ATOM     18  O   UNL d   1      53.400  30.178  54.745  0.00  0.00    -0.326 OA
ATOM     19  C   UNL d   1      52.771  29.668  54.902  0.00  0.00     0.181 C 
ENDBRANCH  14  18
BRANCH  15  20
ATOM     20  O   UNL d   1      54.267  29.740  53.410  0.00  0.00    -0.326 OA
ATOM     21  C   UNL d   1      54.910  29.660  52.895  0.00  0.00     0.181 C 
ENDBRANCH  15  20
ENDBRANCH   1  12
BRANCH   2  22
ATOM     22  C   UNL d   1      53.633  33.255  53.824  0.00  0.00     0.323 C 
ATOM     23  O   UNL d   1      54.228  33.205  53.259  0.00  0.00    -0.257 OA
BRANCH  22  24
ATOM     24  O   UNL d   1      53.838  33.327  54.629  0.00  0.00    -0.270 OA
BRANCH  24  25
ATOM     25  C   UNL d   1      54.503  33.759  54.848  0.00  0.00     0.126 C 
ATOM     26  C   UNL d   1      54.808  33.691  55.611  0.00  0.00     0.029 C 
ENDBRANCH  24  25
ENDBRANCH  22  24
ENDBRANCH   2  22
BRANCH  10  27
ATOM     27  O   UNL d   1      49.903  35.270  53.130  0.00  0.00    -0.300 OA
BRANCH  27  28
ATOM     28  C   UNL d   1      49.085  35.238  53.085  0.00  0.00     0.191 C 
BRANCH  28  29
ATOM     29  C   UNL d   1      48.640  35.930  53.153  0.00  0.00     0.321 C 
ATOM     30  O   UNL d   1      48.765  36.446  53.784  0.00  0.00    -0.257 OA
BRANCH  29  31
ATOM     31  O   UNL d   1      48.068  36.112  52.590  0.00  0.00    -0.294 OA
ATOM     32  C   UNL d   1      47.393  36.534  52.800  0.00  0.00     0.185 C 
ENDBRANCH  29  31
ENDBRANCH  28  29
ENDBRANCH  27  28
ENDBRANCH  10  27
TORSDOF 10
ENDMDL
MODEL 4
REMARK VINA RESULT:      -3.9      1.716      5.529
REMARK  10 active torsions:
REMARK  status: ('A' for Active; 'I' for Inactive)
REMARK    1  A    between atoms: C_7  and  C_1 
REMARK    2  A    between atoms: C_8  and  C_2 
REMARK    3  A    between atoms: O_24  and  C_8 
REMARK    4  A    between atoms: O_25  and  C_12 
REMARK    5  A    between atoms: C_14  and  C_22 
REMARK    6  A    between atoms: O_26  and  C_14 
REMARK    7  A    between atoms: O_27  and  C_16 
REMARK    8  A    between atoms: O_21  and  C_20 
REMARK    9  A    between atoms: C_22  and  O_21 
REMARK   10  A    between atoms: C_28  and  O_24 
ROOT
ATOM      1  C   UNL d   1      51.188  33.475  53.034  0.00  0.00     0.067 A 
ATOM      2  C   UNL d   1      51.978  33.722  53.094  0.00  0.00     0.166 A 
ATOM      3  C   UNL d   1      51.004  32.658  53.071  0.00  0.00     0.200 A 
ATOM      4  O   UNL d   1      52.592  33.160  53.192  0.00  0.00    -0.301 OA
ATOM      5  C   UNL d   1      51.602  32.105  53.167  0.00  0.00     0.062 A 
ATOM      6  C   UNL d   1      52.399  32.353  53.227  0.00  0.00     0.105 A 
ATOM      7  C   UNL d   1      53.004  31.794  53.324  0.00  0.00     0.050 A 
ATOM      8  C   UNL d   1      51.429  31.292  53.205  0.00  0.00     0.007 A 
ATOM      9  O   UNL d   1      50.216  32.417  53.011  0.00  0.00    -0.286 OA
ATOM     10  C   UNL d   1      52.815  30.989  53.359  0.00  0.00     0.102 A 
ATOM     11  C   UNL d   1      52.031  30.739  53.300  0.00  0.00     0.025 A 
ENDROOT
BRANCH   1  12
ATOM     12  C   UNL d   1      50.586  34.028  52.939  0.00  0.00     0.007 A 
ATOM     13  C   UNL d   1      50.300  34.186  52.176  0.00  0.00     0.026 A 
ATOM     14  C   UNL d   1      49.694  34.743  52.088  0.00  0.00     0.116 A 
ATOM     15  C   UNL d   1      49.381  35.134  52.749  0.00  0.00     0.116 A 
ATOM     16  C   UNL d   1      49.672  34.970  53.502  0.00  0.00     0.026 A 
ATOM     17  C   UNL d   1      50.274  34.417  53.596  0.00  0.00     0.002 A 
BRANCH  14  18
ATOM     18  O   UNL d   1      49.404  34.907  51.335  0.00  0.00    -0.326 OA
ATOM     19  C   UNL d   1      49.187  34.290  50.832  0.00  0.00     0.181 C 
ENDBRANCH  14  18
BRANCH  15  20
ATOM     20  O   UNL d   1      48.781  35.685  52.651  0.00  0.00    -0.326 OA
ATOM     21  C   UNL d   1      48.394  35.990  53.317  0.00  0.00     0.181 C 
ENDBRANCH  15  20
ENDBRANCH   1  12
BRANCH   2  22
ATOM     22  C   UNL d   1      52.159  34.525  53.058  0.00  0.00     0.323 C 
ATOM     23  O   UNL d   1      52.201  34.911  52.333  0.00  0.00    -0.257 OA
BRANCH  22  24
ATOM     24  O   UNL d   1      52.302  34.952  53.758  0.00  0.00    -0.270 OA
BRANCH  24  25
ATOM     25  C   UNL d   1      52.979  35.414  53.830  0.00  0.00     0.126 C 
ATOM     26  C   UNL d   1      53.150  35.791  54.543  0.00  0.00     0.029 C 
ENDBRANCH  24  25
ENDBRANCH  22  24
ENDBRANCH   2  22
BRANCH  10  27
ATOM     27  O   UNL d   1      53.418  30.437  53.455  0.00  0.00    -0.300 OA
BRANCH  27  28
ATOM     28  C   UNL d   1      53.240  29.649  53.595  0.00  0.00     0.191 C 
BRANCH  28  29
ATOM     29  C   UNL d   1      53.702  29.206  54.116  0.00  0.00     0.321 C 
ATOM     30  O   UNL d   1      54.516  29.142  53.999  0.00  0.00    -0.257 OA
BRANCH  29  31
ATOM     31  O   UNL d   1      53.355  28.825  54.757  0.00  0.00    -0.294 OA
ATOM     32  C   UNL d   1      53.706  28.158  55.088  0.00  0.00     0.185 C 
ENDBRANCH  29  31
ENDBRANCH  28  29
ENDBRANCH  27  28
ENDBRANCH  10  27
TORSDOF 10
ENDMDL
