MODEL 1
REMARK VINA RESULT:      36.9      0.000      0.000
REMARK  2 active torsions:
REMARK  status: ('A' for Active; 'I' for Inactive)
REMARK    1  A    between atoms: C_6  and  N_1 
REMARK    2  A    between atoms: C_7  and  C_6 
ROOT
ATOM      1  N   UNL d   1     -54.828 -99.849 -44.065  0.00  0.00    -0.287 N 
ATOM      2  N   UNL d   1     -55.393 -98.976 -43.201  0.00  0.00    -0.224 NA
ATOM      3  C   UNL d   1     -54.714 -99.465 -43.343  0.00  0.00     0.183 A 
ATOM      4  C   UNL d   1     -55.540 -99.621 -44.370  0.00  0.00     0.083 A 
ATOM      5  C   UNL d   1     -55.897 -99.069 -43.825  0.00  0.00     0.099 A 
ATOM      6  C   UNL d   1     -55.933 -99.824 -45.066  0.00  0.00     0.019 A 
ATOM      7  C   UNL d   1     -56.645 -98.756 -44.030  0.00  0.00     0.021 A 
ATOM      8  C   UNL d   1     -56.671 -99.496 -45.235  0.00  0.00     0.002 A 
ATOM      9  C   UNL d   1     -57.015 -98.963 -44.708  0.00  0.00     0.002 A 
ENDROOT
BRANCH   1  10
ATOM     10  C   UNL d   1     -54.872-100.250 -44.746  0.00  0.00     0.082 C 
BRANCH  10  11
ATOM     11  C   UNL d   1     -54.819-101.072 -44.725  0.00  0.00     0.018 A 
ATOM     12  C   UNL d   1     -54.799-101.503 -45.429  0.00  0.00     0.002 A 
ATOM     13  C   UNL d   1     -54.746-102.330 -45.410  0.00  0.00     0.000 A 
ATOM     14  C   UNL d   1     -54.712-102.723 -44.685  0.00  0.00     0.000 A 
ATOM     15  C   UNL d   1     -54.731-102.289 -43.979  0.00  0.00     0.000 A 
ATOM     16  C   UNL d   1     -54.785-101.465 -44.000  0.00  0.00     0.002 A 
ENDBRANCH  10  11
ENDBRANCH   1  10
TORSDOF 2
ENDMDL
MODEL 2
REMARK VINA RESULT:      37.0      1.999      3.195
REMARK  2 active torsions:
REMARK  status: ('A' for Active; 'I' for Inactive)
REMARK    1  A    between atoms: C_6  and  N_1 
REMARK    2  A    between atoms: C_7  and  C_6 
ROOT
ATOM      1  N   UNL d   1     -54.739-100.802 -42.331  0.00  0.00    -0.287 N 
ATOM      2  N   UNL d   1     -54.784-100.396 -41.042  0.00  0.00    -0.224 NA
ATOM      3  C   UNL d   1     -54.766-100.132 -41.849  0.00  0.00     0.183 A 
ATOM      4  C   UNL d   1     -54.739-101.459 -41.862  0.00  0.00     0.083 A 
ATOM      5  C   UNL d   1     -54.768-101.203 -41.048  0.00  0.00     0.099 A 
ATOM      6  C   UNL d   1     -54.717-102.264 -42.040  0.00  0.00     0.019 A 
ATOM      7  C   UNL d   1     -54.773-101.797 -40.459  0.00  0.00     0.021 A 
ATOM      8  C   UNL d   1     -54.724-102.822 -41.432  0.00  0.00     0.002 A 
ATOM      9  C   UNL d   1     -54.752-102.574 -40.645  0.00  0.00     0.002 A 
ENDROOT
BRANCH   1  10
ATOM     10  C   UNL d   1     -54.711-101.398 -42.852  0.00  0.00     0.082 C 
BRANCH  10  11
ATOM     11  C   UNL d   1     -54.788-101.226 -43.654  0.00  0.00     0.018 A 
ATOM     12  C   UNL d   1     -54.726-100.446 -43.917  0.00  0.00     0.002 A 
ATOM     13  C   UNL d   1     -54.802-100.270 -44.724  0.00  0.00     0.000 A 
ATOM     14  C   UNL d   1     -54.940-100.878 -45.264  0.00  0.00     0.000 A 
ATOM     15  C   UNL d   1     -55.002-101.661 -44.999  0.00  0.00     0.000 A 
ATOM     16  C   UNL d   1     -54.926-101.833 -44.195  0.00  0.00     0.002 A 
ENDBRANCH  10  11
ENDBRANCH   1  10
TORSDOF 2
ENDMDL
