MODEL 1
REMARK VINA RESULT:      53.2      0.000      0.000
REMARK  4 active torsions:
REMARK  status: ('A' for Active; 'I' for Inactive)
REMARK    1  A    between atoms: C_11  and  C_3 
REMARK    2  A    between atoms: N_10  and  C_4 
REMARK    3  A    between atoms: C_15  and  N_10 
REMARK    4  A    between atoms: C_16  and  C_15 
ROOT
ATOM      1  C   UNL d   1      13.703  14.279  -3.800  0.00  0.00     0.167 A 
ATOM      2  N   UNL d   1      13.675  13.773  -3.119  0.00  0.00    -0.195 N 
ATOM      3  C   UNL d   1      13.939  15.050  -3.723  0.00  0.00     0.057 A 
ATOM      4  C   UNL d   1      13.438  13.010  -3.211  0.00  0.00     0.167 A 
ATOM      5  N   UNL d   1      14.126  14.853  -2.315  0.00  0.00    -0.161 NA
ATOM      6  N   UNL d   1      13.492  13.987  -4.529  0.00  0.00    -0.227 NA
ATOM      7  C   UNL d   1      13.223  12.705  -3.945  0.00  0.00     0.058 A 
ATOM      8  C   UNL d   1      14.153  15.343  -2.975  0.00  0.00     0.124 A 
ATOM      9  C   UNL d   1      13.251  13.203  -4.617  0.00  0.00     0.086 A 
ATOM     10  C   UNL d   1      13.028  12.895  -5.386  0.00  0.00     0.021 C 
ENDROOT
BRANCH   4  11
ATOM     11  N   UNL d   1      13.409  12.495  -2.526  0.00  0.00    -0.224 NA
BRANCH  11  12
ATOM     12  C   UNL d   1      13.757  11.779  -2.204  0.00  0.00     0.120 C 
BRANCH  12  13
ATOM     13  C   UNL d   1      14.224  11.815  -1.487  0.00  0.00     0.101 A 
ATOM     14  N   UNL d   1      15.084  11.780  -1.545  0.00  0.00    -0.242 NA
ATOM     15  C   UNL d   1      15.551  11.816  -0.828  0.00  0.00     0.099 A 
ATOM     16  C   UNL d   1      15.165  11.886  -0.063  0.00  0.00     0.021 A 
ATOM     17  C   UNL d   1      14.312  11.920  -0.016  0.00  0.00     0.003 A 
ATOM     18  C   UNL d   1      13.844  11.884  -0.733  0.00  0.00     0.021 A 
ENDBRANCH  12  13
ENDBRANCH  11  12
ENDBRANCH   4  11
BRANCH   3  19
ATOM     19  C   UNL d   1      13.966  15.541  -4.384  0.00  0.00     0.005 A 
ATOM     20  C   UNL d   1      13.279  15.734  -4.773  0.00  0.00     0.001 A 
ATOM     21  C   UNL d   1      13.306  16.224  -5.434  0.00  0.00     0.011 A 
ATOM     22  C   UNL d   1      14.019  16.513  -5.695  0.00  0.00     0.058 A 
ATOM     23  C   UNL d   1      14.707  16.312  -5.295  0.00  0.00     0.011 A 
ATOM     24 CL   UNL d   1      14.048  17.027  -6.387  0.00  0.00    -0.082 Cl
ATOM     25  C   UNL d   1      14.681  15.830  -4.645  0.00  0.00     0.001 A 
ENDBRANCH   3  19
TORSDOF 4
ENDMDL
