MODEL 1
REMARK VINA RESULT:      -0.2      0.000      0.000
REMARK  9 active torsions:
REMARK  status: ('A' for Active; 'I' for Inactive)
REMARK       I    between atoms: C_9  and  N_1 
REMARK       I    between atoms: N_2  and  C_10 
REMARK    1  A    between atoms: C_17  and  C_9 
REMARK    2  A    between atoms: C_10  and  C_18 
REMARK    3  A    between atoms: C_21  and  C_17 
REMARK    4  A    between atoms: C_18  and  C_22 
REMARK    5  A    between atoms: C_24  and  C_21 
REMARK    6  A    between atoms: C_22  and  C_23 
REMARK    7  A    between atoms: C_23  and  C_26 
REMARK    8  A    between atoms: C_25  and  C_24 
REMARK    9  A    between atoms: C_26  and  C_25 
ROOT
ATOM      1  C   UNL d   1     -41.410-122.067 -51.538  0.00  0.00     0.000 C 
ENDROOT
BRANCH   1   2
ATOM      2  C   UNL d   1     -41.170-121.678 -52.234  0.00  0.00     0.000 C 
BRANCH   2   3
ATOM      3  C   UNL d   1     -41.728-121.479 -52.805  0.00  0.00     0.005 C 
BRANCH   3   4
ATOM      4  C   UNL d   1     -41.675-121.796 -53.564  0.00  0.00     0.063 C 
BRANCH   4   5
ATOM      5  C   UNL d   1     -42.193-121.541 -54.153  0.00  0.00     0.280 C 
ATOM      6  N   UNL d   1     -42.325-122.007 -54.819  0.00  0.00    -0.195 N 
ATOM      7  N   UNL d   1     -42.841-121.755 -55.408  0.00  0.00    -0.163 NA
ATOM      8  C   UNL d   1     -42.026-122.741 -55.048  0.00  0.00     0.088 A 
ATOM      9  C   UNL d   1     -42.862-122.327 -55.998  0.00  0.00     0.103 A 
ATOM     10  C   UNL d   1     -43.312-122.295 -56.694  0.00  0.00     0.022 C 
ATOM     11  C   UNL d   1     -42.356-122.937 -55.771  0.00  0.00     0.040 A 
ATOM     12  C   UNL d   1     -41.487-123.197 -54.621  0.00  0.00     0.021 C 
ATOM     13  O   UNL d   1     -42.586-120.816 -54.085  0.00  0.00    -0.265 OA
ENDBRANCH   4   5
ENDBRANCH   3   4
ENDBRANCH   2   3
ENDBRANCH   1   2
BRANCH   1  14
ATOM     14  C   UNL d   1     -41.280-122.877 -51.459  0.00  0.00     0.000 C 
BRANCH  14  15
ATOM     15  C   UNL d   1     -41.123-123.204 -50.710  0.00  0.00     0.000 C 
BRANCH  15  16
ATOM     16  C   UNL d   1     -41.622-123.775 -50.392  0.00  0.00     0.005 C 
BRANCH  16  17
ATOM     17  C   UNL d   1     -41.758-123.799 -49.578  0.00  0.00     0.063 C 
BRANCH  17  18
ATOM     18  C   UNL d   1     -42.525-123.801 -49.286  0.00  0.00     0.280 C 
ATOM     19  N   UNL d   1     -42.662-123.788 -48.473  0.00  0.00    -0.195 N 
ATOM     20  N   UNL d   1     -43.395-123.788 -48.098  0.00  0.00    -0.163 NA
ATOM     21  C   UNL d   1     -42.080-123.771 -47.878  0.00  0.00     0.088 A 
ATOM     22  C   UNL d   1     -43.273-123.772 -47.282  0.00  0.00     0.103 A 
ATOM     23  C   UNL d   1     -43.864-123.767 -46.705  0.00  0.00     0.022 C 
ATOM     24  C   UNL d   1     -42.456-123.761 -47.149  0.00  0.00     0.040 A 
ATOM     25  C   UNL d   1     -41.260-123.765 -48.006  0.00  0.00     0.021 C 
ATOM     26  O   UNL d   1     -43.165-123.817 -49.810  0.00  0.00    -0.265 OA
ENDBRANCH  17  18
ENDBRANCH  16  17
ENDBRANCH  15  16
ENDBRANCH  14  15
ENDBRANCH   1  14
TORSDOF 9
ENDMDL
