MODEL 1
REMARK VINA RESULT:      -5.2      0.000      0.000
REMARK  5 active torsions:
REMARK  status: ('A' for Active; 'I' for Inactive)
REMARK    1  A    between atoms: C_3  and  C_1 
REMARK    2  A    between atoms: C_2  and  C_3 
REMARK    3  A    between atoms: C_4  and  C_2 
REMARK    4  A    between atoms: C_7  and  C_4 
REMARK    5  A    between atoms: O_14  and  C_8 
ROOT
ATOM      1  C   UNL d   1      57.419  -0.411  31.075  0.00  0.00     0.042 C 
ENDROOT
BRANCH   1   2
ATOM      2  C   UNL d   1      57.930  -0.756  30.481  0.00  0.00     0.199 C 
ATOM      3  O   UNL d   1      57.842  -1.560  30.289  0.00  0.00    -0.286 OA
BRANCH   2   4
ATOM      4  C   UNL d   1      58.501  -0.274  30.113  0.00  0.00     0.078 A 
ATOM      5  C   UNL d   1      58.523  -0.223  29.294  0.00  0.00     0.199 A 
ATOM      6  O   UNL d   1      57.973  -0.656  28.836  0.00  0.00    -0.286 OA
ATOM      7  C   UNL d   1      59.075   0.243  28.925  0.00  0.00     0.042 A 
ATOM      8  C   UNL d   1      59.628   0.678  29.398  0.00  0.00     0.003 A 
ATOM      9  C   UNL d   1      59.603   0.625  30.188  0.00  0.00     0.000 A 
ATOM     10  C   UNL d   1      59.044   0.153  30.560  0.00  0.00     0.006 A 
ENDBRANCH   2   4
ENDBRANCH   1   2
BRANCH   1  11
ATOM     11  C   UNL d   1      56.995  -0.920  31.600  0.00  0.00     0.003 C 
BRANCH  11  12
ATOM     12  C   UNL d   1      56.504  -0.561  32.133  0.00  0.00     0.000 A 
ATOM     13  C   UNL d   1      56.438   0.243  32.182  0.00  0.00     0.002 A 
ATOM     14  C   UNL d   1      55.928   0.579  32.736  0.00  0.00     0.024 A 
ATOM     15  C   UNL d   1      55.479   0.115  33.249  0.00  0.00     0.094 A 
ATOM     16  C   UNL d   1      55.549  -0.707  33.196  0.00  0.00     0.024 A 
ATOM     17  C   UNL d   1      56.058  -1.054  32.642  0.00  0.00     0.002 A 
BRANCH  15  18
ATOM     18  O   UNL d   1      54.967   0.463  33.805  0.00  0.00    -0.328 OA
ATOM     19  C   UNL d   1      55.234   0.677  34.557  0.00  0.00     0.181 C 
ENDBRANCH  15  18
ENDBRANCH  11  12
ENDBRANCH   1  11
TORSDOF 5
ENDMDL
MODEL 2
REMARK VINA RESULT:      -4.9      0.945      1.442
REMARK  5 active torsions:
REMARK  status: ('A' for Active; 'I' for Inactive)
REMARK    1  A    between atoms: C_3  and  C_1 
REMARK    2  A    between atoms: C_2  and  C_3 
REMARK    3  A    between atoms: C_4  and  C_2 
REMARK    4  A    between atoms: C_7  and  C_4 
REMARK    5  A    between atoms: O_14  and  C_8 
ROOT
ATOM      1  C   UNL d   1      58.150  -0.046  30.458  0.00  0.00     0.042 C 
ENDROOT
BRANCH   1   2
ATOM      2  C   UNL d   1      58.530   0.073  29.700  0.00  0.00     0.199 C 
ATOM      3  O   UNL d   1      58.072   0.324  29.053  0.00  0.00    -0.286 OA
BRANCH   2   4
ATOM      4  C   UNL d   1      59.349  -0.066  29.634  0.00  0.00     0.078 A 
ATOM      5  C   UNL d   1      59.619  -0.713  29.206  0.00  0.00     0.199 A 
ATOM      6  O   UNL d   1      59.069  -1.227  28.840  0.00  0.00    -0.286 OA
ATOM      7  C   UNL d   1      60.413  -0.857  29.136  0.00  0.00     0.042 A 
ATOM      8  C   UNL d   1      60.962  -0.331  29.510  0.00  0.00     0.003 A 
ATOM      9  C   UNL d   1      60.697   0.292  29.922  0.00  0.00     0.000 A 
ATOM     10  C   UNL d   1      59.892   0.438  29.993  0.00  0.00     0.006 A 
ENDBRANCH   2   4
ENDBRANCH   1   2
BRANCH   1  11
ATOM     11  C   UNL d   1      57.377   0.270  30.586  0.00  0.00     0.003 C 
BRANCH  11  12
ATOM     12  C   UNL d   1      57.013   0.065  31.278  0.00  0.00     0.000 A 
ATOM     13  C   UNL d   1      56.949  -0.705  31.518  0.00  0.00     0.002 A 
ATOM     14  C   UNL d   1      56.572  -0.882  32.230  0.00  0.00     0.024 A 
ATOM     15  C   UNL d   1      56.254  -0.292  32.710  0.00  0.00     0.094 A 
ATOM     16  C   UNL d   1      56.321   0.494  32.462  0.00  0.00     0.024 A 
ATOM     17  C   UNL d   1      56.699   0.682  31.748  0.00  0.00     0.002 A 
BRANCH  15  18
ATOM     18  O   UNL d   1      55.875  -0.480  33.426  0.00  0.00    -0.328 OA
ATOM     19  C   UNL d   1      55.234  -0.036  33.702  0.00  0.00     0.181 C 
ENDBRANCH  15  18
ENDBRANCH  11  12
ENDBRANCH   1  11
TORSDOF 5
ENDMDL
MODEL 3
REMARK VINA RESULT:      -4.7      0.997      4.463
REMARK  5 active torsions:
REMARK  status: ('A' for Active; 'I' for Inactive)
REMARK    1  A    between atoms: C_3  and  C_1 
REMARK    2  A    between atoms: C_2  and  C_3 
REMARK    3  A    between atoms: C_4  and  C_2 
REMARK    4  A    between atoms: C_7  and  C_4 
REMARK    5  A    between atoms: O_14  and  C_8 
ROOT
ATOM      1  C   UNL d   1      56.692  -0.354  32.044  0.00  0.00     0.042 C 
ENDROOT
BRANCH   1   2
ATOM      2  C   UNL d   1      56.293  -0.719  32.708  0.00  0.00     0.199 C 
ATOM      3  O   UNL d   1      56.123  -1.533  32.679  0.00  0.00    -0.286 OA
BRANCH   2   4
ATOM      4  C   UNL d   1      56.088  -0.248  33.363  0.00  0.00     0.078 A 
ATOM      5  C   UNL d   1      55.297  -0.147  33.560  0.00  0.00     0.199 A 
ATOM      6  O   UNL d   1      54.704  -0.518  33.100  0.00  0.00    -0.286 OA
ATOM      7  C   UNL d   1      55.087   0.310  34.195  0.00  0.00     0.042 A 
ATOM      8  C   UNL d   1      55.695   0.682  34.654  0.00  0.00     0.003 A 
ATOM      9  C   UNL d   1      56.456   0.581  34.460  0.00  0.00     0.000 A 
ATOM     10  C   UNL d   1      56.669   0.118  33.816  0.00  0.00     0.006 A 
ENDBRANCH   2   4
ENDBRANCH   1   2
BRANCH   1  11
ATOM     11  C   UNL d   1      57.016  -0.844  31.437  0.00  0.00     0.003 C 
BRANCH  11  12
ATOM     12  C   UNL d   1      57.473  -0.476  30.881  0.00  0.00     0.000 A 
ATOM     13  C   UNL d   1      57.430   0.321  30.748  0.00  0.00     0.002 A 
ATOM     14  C   UNL d   1      57.910   0.667  30.173  0.00  0.00     0.024 A 
ATOM     15  C   UNL d   1      58.439   0.221  29.725  0.00  0.00     0.094 A 
ATOM     16  C   UNL d   1      58.482  -0.593  29.863  0.00  0.00     0.024 A 
ATOM     17  C   UNL d   1      58.003  -0.950  30.439  0.00  0.00     0.002 A 
BRANCH  15  18
ATOM     18  O   UNL d   1      58.919   0.579  29.148  0.00  0.00    -0.328 OA
ATOM     19  C   UNL d   1      59.143   0.173  28.464  0.00  0.00     0.181 C 
ENDBRANCH  15  18
ENDBRANCH  11  12
ENDBRANCH   1  11
TORSDOF 5
ENDMDL
MODEL 4
REMARK VINA RESULT:      -4.7      1.415      1.843
REMARK  5 active torsions:
REMARK  status: ('A' for Active; 'I' for Inactive)
REMARK    1  A    between atoms: C_3  and  C_1 
REMARK    2  A    between atoms: C_2  and  C_3 
REMARK    3  A    between atoms: C_4  and  C_2 
REMARK    4  A    between atoms: C_7  and  C_4 
REMARK    5  A    between atoms: O_14  and  C_8 
ROOT
ATOM      1  C   UNL d   1      58.173  -0.521  30.365  0.00  0.00     0.042 C 
ENDROOT
BRANCH   1   2
ATOM      2  C   UNL d   1      58.422  -0.598  29.549  0.00  0.00     0.199 C 
ATOM      3  O   UNL d   1      58.135  -0.058  28.986  0.00  0.00    -0.286 OA
BRANCH   2   4
ATOM      4  C   UNL d   1      58.945  -1.213  29.344  0.00  0.00     0.078 A 
ATOM      5  C   UNL d   1      59.732  -1.042  29.188  0.00  0.00     0.199 A 
ATOM      6  O   UNL d   1      60.003  -0.251  29.236  0.00  0.00    -0.286 OA
ATOM      7  C   UNL d   1      60.250  -1.633  28.988  0.00  0.00     0.042 A 
ATOM      8  C   UNL d   1      59.966  -2.431  28.942  0.00  0.00     0.003 A 
ATOM      9  C   UNL d   1      59.205  -2.590  29.094  0.00  0.00     0.000 A 
ATOM     10  C   UNL d   1      58.682  -1.991  29.297  0.00  0.00     0.006 A 
ENDBRANCH   2   4
ENDBRANCH   1   2
BRANCH   1  11
ATOM     11  C   UNL d   1      57.531  -0.004  30.553  0.00  0.00     0.003 C 
BRANCH  11  12
ATOM     12  C   UNL d   1      57.325   0.046  31.333  0.00  0.00     0.000 A 
ATOM     13  C   UNL d   1      57.650   0.595  31.829  0.00  0.00     0.002 A 
ATOM     14  C   UNL d   1      57.419   0.621  32.620  0.00  0.00     0.024 A 
ATOM     15  C   UNL d   1      56.859   0.098  32.925  0.00  0.00     0.094 A 
ATOM     16  C   UNL d   1      56.528  -0.463  32.416  0.00  0.00     0.024 A 
ATOM     17  C   UNL d   1      56.754  -0.497  31.619  0.00  0.00     0.002 A 
BRANCH  15  18
ATOM     18  O   UNL d   1      56.632   0.131  33.725  0.00  0.00    -0.328 OA
ATOM     19  C   UNL d   1      55.850   0.288  33.942  0.00  0.00     0.181 C 
ENDBRANCH  15  18
ENDBRANCH  11  12
ENDBRANCH   1  11
TORSDOF 5
ENDMDL
MODEL 5
REMARK VINA RESULT:      -4.5      1.709      4.666
REMARK  5 active torsions:
REMARK  status: ('A' for Active; 'I' for Inactive)
REMARK    1  A    between atoms: C_3  and  C_1 
REMARK    2  A    between atoms: C_2  and  C_3 
REMARK    3  A    between atoms: C_4  and  C_2 
REMARK    4  A    between atoms: C_7  and  C_4 
REMARK    5  A    between atoms: O_14  and  C_8 
ROOT
ATOM      1  C   UNL d   1      57.978  -0.412  30.745  0.00  0.00     0.042 C 
ENDROOT
BRANCH   1   2
ATOM      2  C   UNL d   1      57.322   0.018  31.088  0.00  0.00     0.199 C 
ATOM      3  O   UNL d   1      57.020   0.682  30.688  0.00  0.00    -0.286 OA
BRANCH   2   4
ATOM      4  C   UNL d   1      57.006  -0.242  31.813  0.00  0.00     0.078 A 
ATOM      5  C   UNL d   1      57.273   0.088  32.515  0.00  0.00     0.199 A 
ATOM      6  O   UNL d   1      57.862   0.682  32.497  0.00  0.00    -0.286 OA
ATOM      7  C   UNL d   1      56.972  -0.158  33.227  0.00  0.00     0.042 A 
ATOM      8  C   UNL d   1      56.376  -0.762  33.235  0.00  0.00     0.003 A 
ATOM      9  C   UNL d   1      56.121  -1.076  32.554  0.00  0.00     0.000 A 
ATOM     10  C   UNL d   1      56.427  -0.827  31.834  0.00  0.00     0.006 A 
ENDBRANCH   2   4
ENDBRANCH   1   2
BRANCH   1  11
ATOM     11  C   UNL d   1      58.095  -0.388  29.908  0.00  0.00     0.003 C 
BRANCH  11  12
ATOM     12  C   UNL d   1      58.721  -0.809  29.619  0.00  0.00     0.000 A 
ATOM     13  C   UNL d   1      59.467  -0.498  29.578  0.00  0.00     0.002 A 
ATOM     14  C   UNL d   1      60.085  -0.954  29.277  0.00  0.00     0.024 A 
ATOM     15  C   UNL d   1      59.965  -1.725  29.014  0.00  0.00     0.094 A 
ATOM     16  C   UNL d   1      59.202  -2.041  29.056  0.00  0.00     0.024 A 
ATOM     17  C   UNL d   1      58.574  -1.591  29.357  0.00  0.00     0.002 A 
BRANCH  15  18
ATOM     18  O   UNL d   1      60.595  -2.178  28.712  0.00  0.00    -0.328 OA
ATOM     19  C   UNL d   1      61.130  -2.558  29.215  0.00  0.00     0.181 C 
ENDBRANCH  15  18
ENDBRANCH  11  12
ENDBRANCH   1  11
TORSDOF 5
ENDMDL
MODEL 6
REMARK VINA RESULT:      -2.8      8.441      9.323
REMARK  5 active torsions:
REMARK  status: ('A' for Active; 'I' for Inactive)
REMARK    1  A    between atoms: C_3  and  C_1 
REMARK    2  A    between atoms: C_2  and  C_3 
REMARK    3  A    between atoms: C_4  and  C_2 
REMARK    4  A    between atoms: C_7  and  C_4 
REMARK    5  A    between atoms: O_14  and  C_8 
ROOT
ATOM      1  C   UNL d   1      59.224  -8.642  34.489  0.00  0.00     0.042 C 
ENDROOT
BRANCH   1   2
ATOM      2  C   UNL d   1      58.822  -9.332  34.179  0.00  0.00     0.199 C 
ATOM      3  O   UNL d   1      58.393  -9.818  34.700  0.00  0.00    -0.286 OA
BRANCH   2   4
ATOM      4  C   UNL d   1      58.874  -9.496  33.364  0.00  0.00     0.078 A 
ATOM      5  C   UNL d   1      58.187  -9.577  32.922  0.00  0.00     0.199 A 
ATOM      6  O   UNL d   1      57.442  -9.495  33.293  0.00  0.00    -0.286 OA
ATOM      7  C   UNL d   1      58.226  -9.736  32.128  0.00  0.00     0.042 A 
ATOM      8  C   UNL d   1      58.986  -9.818  31.761  0.00  0.00     0.003 A 
ATOM      9  C   UNL d   1      59.646  -9.738  32.193  0.00  0.00     0.000 A 
ATOM     10  C   UNL d   1      59.605  -9.577  32.997  0.00  0.00     0.006 A 
ENDBRANCH   2   4
ENDBRANCH   1   2
BRANCH   1  11
ATOM     11  C   UNL d   1      59.264  -8.529  35.325  0.00  0.00     0.003 C 
BRANCH  11  12
ATOM     12  C   UNL d   1      59.568  -7.825  35.580  0.00  0.00     0.000 A 
ATOM     13  C   UNL d   1      60.267  -7.780  35.985  0.00  0.00     0.002 A 
ATOM     14  C   UNL d   1      60.551  -7.046  36.231  0.00  0.00     0.024 A 
ATOM     15  C   UNL d   1      60.140  -6.348  36.077  0.00  0.00     0.094 A 
ATOM     16  C   UNL d   1      59.426  -6.397  35.664  0.00  0.00     0.024 A 
ATOM     17  C   UNL d   1      59.132  -7.130  35.411  0.00  0.00     0.002 A 
BRANCH  15  18
ATOM     18  O   UNL d   1      60.435  -5.612  36.330  0.00  0.00    -0.328 OA
ATOM     19  C   UNL d   1      61.050  -5.235  35.927  0.00  0.00     0.181 C 
ENDBRANCH  15  18
ENDBRANCH  11  12
ENDBRANCH   1  11
TORSDOF 5
ENDMDL
