MODEL 1
REMARK VINA RESULT:      20.7      0.000      0.000
REMARK  3 active torsions:
REMARK  status: ('A' for Active; 'I' for Inactive)
REMARK    1  A    between atoms: C_16  and  C_4 
REMARK    2  A    between atoms: C_10  and  O_14 
REMARK    3  A    between atoms: O_14  and  C_16 
ROOT
ATOM      1  C   UNL d   1      46.069 -19.057  42.940  0.00  0.00     0.030 A 
ATOM      2  C   UNL d   1      46.259 -18.272  43.012  0.00  0.00     0.105 A 
ATOM      3  C   UNL d   1      46.269 -17.928  43.763  0.00  0.00     0.118 A 
ATOM      4  N   UNL d   1      46.440 -17.811  42.358  0.00  0.00    -0.242 NA
ATOM      5  C   UNL d   1      45.889 -19.515  43.592  0.00  0.00     0.059 A 
ATOM      6  C   UNL d   1      46.093 -18.365  44.428  0.00  0.00     0.027 A 
ATOM      7  C   UNL d   1      45.900 -19.168  44.347  0.00  0.00     0.013 A 
ATOM      8 CL   UNL d   1      45.697 -20.317  43.510  0.00  0.00    -0.082 Cl
ATOM      9  C   UNL d   1      46.058 -19.404  42.194  0.00  0.00     0.004 A 
ATOM     10  C   UNL d   1      46.429 -18.157  41.602  0.00  0.00     0.099 A 
ATOM     11  C   UNL d   1      46.237 -18.959  41.522  0.00  0.00     0.021 A 
ENDROOT
BRANCH   3  12
ATOM     12  O   UNL d   1      46.462 -17.126  43.844  0.00  0.00    -0.302 OA
BRANCH  12  13
ATOM     13  C   UNL d   1      46.647 -16.320  43.923  0.00  0.00     0.144 C 
BRANCH  13  14
ATOM     14  C   UNL d   1      46.057 -15.780  44.141  0.00  0.00     0.142 A 
ATOM     15  N   UNL d   1      45.340 -15.962  44.452  0.00  0.00    -0.057 NA
ATOM     16  C   UNL d   1      44.941 -15.275  44.582  0.00  0.00     0.735 A 
ATOM     17  N   UNL d   1      45.435 -14.647  44.341  0.00  0.00    -0.136 N 
ATOM     18  N   UNL d   1      44.191 -15.106  44.888  0.00  0.00    -0.059 NA
ATOM     19  C   UNL d   1      46.115 -14.966  44.073  0.00  0.00     0.120 A 
ATOM     20  C   UNL d   1      45.172 -13.872  44.410  0.00  0.00     0.100 A 
ATOM     21  C   UNL d   1      44.429 -13.709  44.712  0.00  0.00     0.041 A 
ATOM     22  C   UNL d   1      43.932 -14.334  44.955  0.00  0.00     0.119 A 
ENDBRANCH  13  14
ENDBRANCH  12  13
ENDBRANCH   3  12
TORSDOF 3
ENDMDL
