MODEL 1
REMARK VINA RESULT:     -10.5      0.000      0.000
REMARK  4 active torsions:
REMARK  status: ('A' for Active; 'I' for Inactive)
REMARK    1  A    between atoms: C_7  and  N_1 
REMARK    2  A    between atoms: C_9  and  C_7 
REMARK       I    between atoms: N_16  and  C_9 
REMARK    3  A    between atoms: C_21  and  N_16 
REMARK    4  A    between atoms: C_20  and  C_21 
ROOT
ATOM      1  C   UNL d   1      52.185  33.619  52.883  0.00  0.00     0.146 C 
ENDROOT
BRANCH   1   2
ATOM      2  N   UNL d   1      52.816  33.480  53.387  0.00  0.00    -0.269 N 
ATOM      3  C   UNL d   1      53.133  34.121  53.786  0.00  0.00     0.265 A 
ATOM      4  C   UNL d   1      53.796  34.093  54.340  0.00  0.00     0.068 A 
ATOM      5  O   UNL d   1      52.781  34.867  53.641  0.00  0.00    -0.267 OA
ATOM      6  C   UNL d   1      54.247  33.412  54.581  0.00  0.00     0.034 A 
ATOM      7  C   UNL d   1      54.847  33.540  55.114  0.00  0.00     0.007 C 
ATOM      8  S   UNL d   1      54.140  32.638  54.332  0.00  0.00    -0.085 SA
ATOM      9  C   UNL d   1      53.654  32.421  53.877  0.00  0.00     0.046 A 
ATOM     10  C   UNL d   1      53.040  32.791  53.435  0.00  0.00     0.073 A 
ATOM     11  C   UNL d   1      53.769  31.593  53.805  0.00  0.00     0.008 A 
ATOM     12  C   UNL d   1      52.552  32.343  52.931  0.00  0.00     0.018 A 
ATOM     13  C   UNL d   1      52.670  31.523  52.862  0.00  0.00     0.002 A 
ATOM     14  C   UNL d   1      53.281  31.146  53.301  0.00  0.00     0.001 A 
ENDBRANCH   1   2
BRANCH   1  15
ATOM     15  C   UNL d   1      51.474  33.890  53.195  0.00  0.00     0.297 C 
ATOM     16  N   UNL d   1      50.882  34.173  52.713  0.00  0.00    -0.205 NA
ATOM     17  O   UNL d   1      51.363  33.875  54.006  0.00  0.00    -0.264 OA
BRANCH  16  18
ATOM     18  C   UNL d   1      50.184  34.438  53.026  0.00  0.00     0.102 C 
BRANCH  18  19
ATOM     19  C   UNL d   1      49.573  34.669  52.535  0.00  0.00     0.021 A 
ATOM     20  C   UNL d   1      48.997  35.184  52.820  0.00  0.00     0.028 A 
ATOM     21  C   UNL d   1      48.378  35.417  52.319  0.00  0.00     0.119 A 
ATOM     22  O   UNL d   1      47.744  35.903  52.428  0.00  0.00    -0.300 OA
ATOM     23  C   UNL d   1      48.351  35.133  51.555  0.00  0.00     0.119 A 
ATOM     24  C   UNL d   1      47.316  35.926  51.735  0.00  0.00     0.304 A 
ATOM     25  O   UNL d   1      47.688  35.450  51.189  0.00  0.00    -0.300 OA
ATOM     26  C   UNL d   1      48.935  34.617  51.283  0.00  0.00     0.026 A 
ATOM     27  C   UNL d   1      49.543  34.391  51.782  0.00  0.00     0.004 A 
ENDBRANCH  18  19
ENDBRANCH  16  18
ENDBRANCH   1  15
TORSDOF 4
ENDMDL
MODEL 2
REMARK VINA RESULT:     -10.0      0.821      1.739
REMARK  4 active torsions:
REMARK  status: ('A' for Active; 'I' for Inactive)
REMARK    1  A    between atoms: C_7  and  N_1 
REMARK    2  A    between atoms: C_9  and  C_7 
REMARK       I    between atoms: N_16  and  C_9 
REMARK    3  A    between atoms: C_21  and  N_16 
REMARK    4  A    between atoms: C_20  and  C_21 
ROOT
ATOM      1  C   UNL d   1      51.817  34.202  52.835  0.00  0.00     0.146 C 
ENDROOT
BRANCH   1   2
ATOM      2  N   UNL d   1      52.388  33.699  53.139  0.00  0.00    -0.269 N 
ATOM      3  C   UNL d   1      52.439  32.945  52.823  0.00  0.00     0.265 A 
ATOM      4  C   UNL d   1      53.000  32.334  53.066  0.00  0.00     0.068 A 
ATOM      5  O   UNL d   1      51.898  32.755  52.212  0.00  0.00    -0.267 OA
ATOM      6  C   UNL d   1      53.601  32.384  53.667  0.00  0.00     0.034 A 
ATOM      7  C   UNL d   1      54.057  31.722  53.784  0.00  0.00     0.007 C 
ATOM      8  S   UNL d   1      53.769  33.032  54.141  0.00  0.00    -0.085 SA
ATOM      9  C   UNL d   1      53.436  33.647  54.121  0.00  0.00     0.046 A 
ATOM     10  C   UNL d   1      52.803  33.971  53.670  0.00  0.00     0.073 A 
ATOM     11  C   UNL d   1      53.807  34.121  54.706  0.00  0.00     0.008 A 
ATOM     12  C   UNL d   1      52.546  34.751  53.800  0.00  0.00     0.018 A 
ATOM     13  C   UNL d   1      52.916  35.218  54.381  0.00  0.00     0.002 A 
ATOM     14  C   UNL d   1      53.549  34.901  54.836  0.00  0.00     0.001 A 
ENDBRANCH   1   2
BRANCH   1  15
ATOM     15  C   UNL d   1      51.023  34.004  52.917  0.00  0.00     0.297 C 
ATOM     16  N   UNL d   1      50.438  34.455  52.575  0.00  0.00    -0.205 NA
ATOM     17  O   UNL d   1      50.820  33.340  53.352  0.00  0.00    -0.264 OA
BRANCH  16  18
ATOM     18  C   UNL d   1      49.657  34.256  52.660  0.00  0.00     0.102 C 
BRANCH  18  19
ATOM     19  C   UNL d   1      49.072  34.757  52.388  0.00  0.00     0.021 A 
ATOM     20  C   UNL d   1      48.734  35.302  52.905  0.00  0.00     0.028 A 
ATOM     21  C   UNL d   1      48.140  35.810  52.626  0.00  0.00     0.119 A 
ATOM     22  O   UNL d   1      47.710  36.390  52.984  0.00  0.00    -0.300 OA
ATOM     23  C   UNL d   1      47.902  35.761  51.848  0.00  0.00     0.119 A 
ATOM     24  C   UNL d   1      47.200  36.709  52.434  0.00  0.00     0.304 A 
ATOM     25  O   UNL d   1      47.315  36.322  51.727  0.00  0.00    -0.300 OA
ATOM     26  C   UNL d   1      48.251  35.210  51.341  0.00  0.00     0.026 A 
ATOM     27  C   UNL d   1      48.836  34.712  51.622  0.00  0.00     0.004 A 
ENDBRANCH  18  19
ENDBRANCH  16  18
ENDBRANCH   1  15
TORSDOF 4
ENDMDL
MODEL 3
REMARK VINA RESULT:      -8.6      2.777      5.031
REMARK  4 active torsions:
REMARK  status: ('A' for Active; 'I' for Inactive)
REMARK    1  A    between atoms: C_7  and  N_1 
REMARK    2  A    between atoms: C_9  and  C_7 
REMARK       I    between atoms: N_16  and  C_9 
REMARK    3  A    between atoms: C_21  and  N_16 
REMARK    4  A    between atoms: C_20  and  C_21 
ROOT
ATOM      1  C   UNL d   1      53.572  33.090  52.957  0.00  0.00     0.146 C 
ENDROOT
BRANCH   1   2
ATOM      2  N   UNL d   1      53.395  33.717  53.454  0.00  0.00    -0.269 N 
ATOM      3  C   UNL d   1      52.738  34.172  53.274  0.00  0.00     0.265 A 
ATOM      4  C   UNL d   1      52.457  34.854  53.725  0.00  0.00     0.068 A 
ATOM      5  O   UNL d   1      52.303  33.953  52.592  0.00  0.00    -0.267 OA
ATOM      6  C   UNL d   1      52.795  35.188  54.432  0.00  0.00     0.034 A 
ATOM      7  C   UNL d   1      52.418  35.835  54.747  0.00  0.00     0.007 C 
ATOM      8  S   UNL d   1      53.462  34.925  54.830  0.00  0.00    -0.085 SA
ATOM      9  C   UNL d   1      53.857  34.378  54.644  0.00  0.00     0.046 A 
ATOM     10  C   UNL d   1      53.842  33.814  54.018  0.00  0.00     0.073 A 
ATOM     11  C   UNL d   1      54.465  34.335  55.220  0.00  0.00     0.008 A 
ATOM     12  C   UNL d   1      54.423  33.220  53.969  0.00  0.00     0.018 A 
ATOM     13  C   UNL d   1      55.024  33.181  54.543  0.00  0.00     0.002 A 
ATOM     14  C   UNL d   1      55.046  33.741  55.171  0.00  0.00     0.001 A 
ENDBRANCH   1   2
BRANCH   1  15
ATOM     15  C   UNL d   1      53.034  32.472  52.885  0.00  0.00     0.297 C 
ATOM     16  N   UNL d   1      53.219  31.720  53.139  0.00  0.00    -0.205 NA
ATOM     17  O   UNL d   1      52.301  32.617  52.550  0.00  0.00    -0.264 OA
BRANCH  16  18
ATOM     18  C   UNL d   1      52.686  31.115  53.065  0.00  0.00     0.102 C 
BRANCH  18  19
ATOM     19  C   UNL d   1      52.851  30.380  53.383  0.00  0.00     0.021 A 
ATOM     20  C   UNL d   1      52.963  30.307  54.195  0.00  0.00     0.028 A 
ATOM     21  C   UNL d   1      53.130  29.559  54.515  0.00  0.00     0.119 A 
ATOM     22  O   UNL d   1      53.265  29.309  55.269  0.00  0.00    -0.300 OA
ATOM     23  C   UNL d   1      53.180  28.913  54.020  0.00  0.00     0.119 A 
ATOM     24  C   UNL d   1      53.401  28.506  55.253  0.00  0.00     0.304 A 
ATOM     25  O   UNL d   1      53.349  28.254  54.481  0.00  0.00    -0.300 OA
ATOM     26  C   UNL d   1      53.065  29.002  53.208  0.00  0.00     0.026 A 
ATOM     27  C   UNL d   1      52.901  29.741  52.898  0.00  0.00     0.004 A 
ENDBRANCH  18  19
ENDBRANCH  16  18
ENDBRANCH   1  15
TORSDOF 4
ENDMDL
MODEL 4
REMARK VINA RESULT:      -8.0      2.213      6.020
REMARK  4 active torsions:
REMARK  status: ('A' for Active; 'I' for Inactive)
REMARK    1  A    between atoms: C_7  and  N_1 
REMARK    2  A    between atoms: C_9  and  C_7 
REMARK       I    between atoms: N_16  and  C_9 
REMARK    3  A    between atoms: C_21  and  N_16 
REMARK    4  A    between atoms: C_20  and  C_21 
ROOT
ATOM      1  C   UNL d   1      48.815  35.656  52.645  0.00  0.00     0.146 C 
ENDROOT
BRANCH   1   2
ATOM      2  N   UNL d   1      48.018  35.729  52.470  0.00  0.00    -0.269 N 
ATOM      3  C   UNL d   1      47.776  35.544  51.710  0.00  0.00     0.265 A 
ATOM      4  C   UNL d   1      46.965  35.585  51.414  0.00  0.00     0.068 A 
ATOM      5  O   UNL d   1      48.372  35.294  51.175  0.00  0.00    -0.267 OA
ATOM      6  C   UNL d   1      46.265  35.819  51.839  0.00  0.00     0.034 A 
ATOM      7  C   UNL d   1      45.566  35.807  51.425  0.00  0.00     0.007 C 
ATOM      8  S   UNL d   1      46.222  36.056  52.622  0.00  0.00    -0.085 SA
ATOM      9  C   UNL d   1      46.763  36.100  53.064  0.00  0.00     0.046 A 
ATOM     10  C   UNL d   1      47.591  35.956  53.013  0.00  0.00     0.073 A 
ATOM     11  C   UNL d   1      46.437  36.365  53.790  0.00  0.00     0.008 A 
ATOM     12  C   UNL d   1      48.083  36.072  53.673  0.00  0.00     0.018 A 
ATOM     13  C   UNL d   1      47.756  36.334  54.392  0.00  0.00     0.002 A 
ATOM     14  C   UNL d   1      46.929  36.481  54.451  0.00  0.00     0.001 A 
ENDBRANCH   1   2
BRANCH   1  15
ATOM     15  C   UNL d   1      49.182  34.927  52.544  0.00  0.00     0.297 C 
ATOM     16  N   UNL d   1      49.951  34.805  52.784  0.00  0.00    -0.205 NA
ATOM     17  O   UNL d   1      48.765  34.314  52.197  0.00  0.00    -0.264 OA
BRANCH  16  18
ATOM     18  C   UNL d   1      50.308  34.085  52.682  0.00  0.00     0.102 C 
BRANCH  18  19
ATOM     19  C   UNL d   1      51.090  33.979  52.895  0.00  0.00     0.021 A 
ATOM     20  C   UNL d   1      51.359  33.224  53.079  0.00  0.00     0.028 A 
ATOM     21  C   UNL d   1      52.154  33.118  53.295  0.00  0.00     0.119 A 
ATOM     22  O   UNL d   1      52.578  32.465  53.503  0.00  0.00    -0.300 OA
ATOM     23  C   UNL d   1      52.652  33.763  53.321  0.00  0.00     0.119 A 
ATOM     24  C   UNL d   1      53.344  32.696  53.659  0.00  0.00     0.304 A 
ATOM     25  O   UNL d   1      53.396  33.501  53.548  0.00  0.00    -0.300 OA
ATOM     26  C   UNL d   1      52.367  34.515  53.133  0.00  0.00     0.026 A 
ATOM     27  C   UNL d   1      51.583  34.612  52.921  0.00  0.00     0.004 A 
ENDBRANCH  18  19
ENDBRANCH  16  18
ENDBRANCH   1  15
TORSDOF 4
ENDMDL
