MODEL 1
REMARK VINA RESULT:      -0.7      0.000      0.000
REMARK  3 active torsions:
REMARK  status: ('A' for Active; 'I' for Inactive)
REMARK    1  A    between atoms: N_10  and  C_3 
REMARK    2  A    between atoms: C_11  and  C_5 
REMARK    3  A    between atoms: C_15  and  N_10 
ROOT
ATOM      1  N   UNL d   1      58.544   0.341  32.035  0.00  0.00    -0.184 N 
ATOM      2  C   UNL d   1      57.725   0.179  32.147  0.00  0.00     0.168 A 
ATOM      3  C   UNL d   1      58.881   0.250  31.281  0.00  0.00     0.217 A 
ATOM      4  N   UNL d   1      58.668   0.675  33.416  0.00  0.00    -0.162 NA
ATOM      5  C   UNL d   1      57.395   0.267  32.883  0.00  0.00     0.055 A 
ATOM      6  N   UNL d   1      57.271  -0.067  31.502  0.00  0.00    -0.227 NA
ATOM      7  C   UNL d   1      58.420   0.006  30.654  0.00  0.00     0.066 A 
ATOM      8  C   UNL d   1      57.861   0.516  33.526  0.00  0.00     0.104 A 
ATOM      9  C   UNL d   1      57.600  -0.157  30.758  0.00  0.00     0.087 A 
ATOM     10  C   UNL d   1      58.588  -0.130  29.869  0.00  0.00     0.006 A 
ATOM     11  C   UNL d   1      57.519   0.603  34.268  0.00  0.00     0.023 C 
ATOM     12  C   UNL d   1      57.284  -0.390  30.035  0.00  0.00     0.019 A 
ATOM     13  C   UNL d   1      57.907  -0.371  29.479  0.00  0.00     0.002 A 
ENDROOT
BRANCH   5  14
ATOM     14  C   UNL d   1      56.593   0.109  32.993  0.00  0.00     0.004 A 
ATOM     15  C   UNL d   1      56.350  -0.626  33.278  0.00  0.00     0.000 A 
ATOM     16  C   UNL d   1      55.553  -0.787  33.389  0.00  0.00     0.000 A 
ATOM     17  C   UNL d   1      54.987  -0.208  33.214  0.00  0.00     0.000 A 
ATOM     18  C   UNL d   1      55.218   0.521  32.932  0.00  0.00     0.000 A 
ATOM     19  C   UNL d   1      56.029   0.681  32.820  0.00  0.00     0.000 A 
ENDBRANCH   5  14
BRANCH   3  20
ATOM     20  N   UNL d   1      59.708   0.413  31.163  0.00  0.00    -0.383 NA
BRANCH  20  21
ATOM     21  C   UNL d   1      60.526   0.577  31.043  0.00  0.00     0.134 C 
ATOM     22  C   UNL d   1      61.030   0.682  31.712  0.00  0.00     0.035 C 
ATOM     23  C   UNL d   1      60.836   0.635  30.251  0.00  0.00     0.035 C 
ENDBRANCH  20  21
ENDBRANCH   3  20
TORSDOF 3
ENDMDL
MODEL 2
REMARK VINA RESULT:       0.3      9.471     10.127
REMARK  3 active torsions:
REMARK  status: ('A' for Active; 'I' for Inactive)
REMARK    1  A    between atoms: N_10  and  C_3 
REMARK    2  A    between atoms: C_11  and  C_5 
REMARK    3  A    between atoms: C_15  and  N_10 
ROOT
ATOM      1  N   UNL d   1      58.823  -9.377  32.228  0.00  0.00    -0.184 N 
ATOM      2  C   UNL d   1      59.452  -9.338  32.787  0.00  0.00     0.168 A 
ATOM      3  C   UNL d   1      58.993  -9.519  31.427  0.00  0.00     0.217 A 
ATOM      4  N   UNL d   1      57.880  -9.136  33.270  0.00  0.00    -0.162 NA
ATOM      5  C   UNL d   1      59.286  -9.200  33.569  0.00  0.00     0.055 A 
ATOM      6  N   UNL d   1      60.229  -9.442  32.527  0.00  0.00    -0.227 NA
ATOM      7  C   UNL d   1      59.765  -9.619  31.185  0.00  0.00     0.066 A 
ATOM      8  C   UNL d   1      58.499  -9.097  33.821  0.00  0.00     0.104 A 
ATOM      9  C   UNL d   1      60.400  -9.581  31.739  0.00  0.00     0.087 A 
ATOM     10  C   UNL d   1      60.099  -9.762  30.456  0.00  0.00     0.006 A 
ATOM     11  C   UNL d   1      58.340  -8.957  34.615  0.00  0.00     0.023 C 
ATOM     12  C   UNL d   1      61.108  -9.702  31.337  0.00  0.00     0.019 A 
ATOM     13  C   UNL d   1      60.915  -9.815  30.532  0.00  0.00     0.002 A 
ENDROOT
BRANCH   5  14
ATOM     14  C   UNL d   1      59.902  -9.161  34.117  0.00  0.00     0.004 A 
ATOM     15  C   UNL d   1      60.351  -8.473  34.189  0.00  0.00     0.000 A 
ATOM     16  C   UNL d   1      60.964  -8.431  34.733  0.00  0.00     0.000 A 
ATOM     17  C   UNL d   1      61.133  -9.084  35.213  0.00  0.00     0.000 A 
ATOM     18  C   UNL d   1      60.694  -9.768  35.149  0.00  0.00     0.000 A 
ATOM     19  C   UNL d   1      60.072  -9.807  34.595  0.00  0.00     0.000 A 
ENDBRANCH   5  14
BRANCH   3  20
ATOM     20  N   UNL d   1      58.361  -9.559  30.859  0.00  0.00    -0.383 NA
BRANCH  20  21
ATOM     21  C   UNL d   1      57.732  -9.595  30.298  0.00  0.00     0.134 C 
ATOM     22  C   UNL d   1      57.892  -9.435  29.486  0.00  0.00     0.035 C 
ATOM     23  C   UNL d   1      56.944  -9.793  30.557  0.00  0.00     0.035 C 
ENDBRANCH  20  21
ENDBRANCH   3  20
TORSDOF 3
ENDMDL
MODEL 3
REMARK VINA RESULT:       0.8      0.910      3.608
REMARK  3 active torsions:
REMARK  status: ('A' for Active; 'I' for Inactive)
REMARK    1  A    between atoms: N_10  and  C_3 
REMARK    2  A    between atoms: C_11  and  C_5 
REMARK    3  A    between atoms: C_15  and  N_10 
ROOT
ATOM      1  N   UNL d   1      57.952   0.108  32.404  0.00  0.00    -0.184 N 
ATOM      2  C   UNL d   1      57.895  -0.179  31.614  0.00  0.00     0.168 A 
ATOM      3  C   UNL d   1      57.336  -0.042  32.941  0.00  0.00     0.217 A 
ATOM      4  N   UNL d   1      59.222   0.682  32.105  0.00  0.00    -0.162 NA
ATOM      5  C   UNL d   1      58.496  -0.033  31.089  0.00  0.00     0.055 A 
ATOM      6  N   UNL d   1      57.225  -0.607  31.388  0.00  0.00    -0.227 NA
ATOM      7  C   UNL d   1      56.681  -0.466  32.704  0.00  0.00     0.066 A 
ATOM      8  C   UNL d   1      59.167   0.399  31.327  0.00  0.00     0.104 A 
ATOM      9  C   UNL d   1      56.616  -0.756  31.915  0.00  0.00     0.087 A 
ATOM     10  C   UNL d   1      56.004  -0.696  33.094  0.00  0.00     0.006 A 
ATOM     11  C   UNL d   1      59.771   0.543  30.789  0.00  0.00     0.023 C 
ATOM     12  C   UNL d   1      55.902  -1.158  31.840  0.00  0.00     0.019 A 
ATOM     13  C   UNL d   1      55.520  -1.118  32.581  0.00  0.00     0.002 A 
ENDROOT
BRANCH   5  14
ATOM     14  C   UNL d   1      58.440  -0.314  30.315  0.00  0.00     0.004 A 
ATOM     15  C   UNL d   1      58.648  -1.093  30.141  0.00  0.00     0.000 A 
ATOM     16  C   UNL d   1      58.595  -1.376  29.372  0.00  0.00     0.000 A 
ATOM     17  C   UNL d   1      58.329  -0.877  28.767  0.00  0.00     0.000 A 
ATOM     18  C   UNL d   1      58.122  -0.106  28.930  0.00  0.00     0.000 A 
ATOM     19  C   UNL d   1      58.178   0.179  29.713  0.00  0.00     0.000 A 
ENDBRANCH   5  14
BRANCH   3  20
ATOM     20  N   UNL d   1      57.389   0.246  33.740  0.00  0.00    -0.383 NA
BRANCH  20  21
ATOM     21  C   UNL d   1      57.443   0.536  34.530  0.00  0.00     0.134 C 
ATOM     22  C   UNL d   1      58.202   0.680  34.867  0.00  0.00     0.035 C 
ATOM     23  C   UNL d   1      56.732   0.681  34.977  0.00  0.00     0.035 C 
ENDBRANCH  20  21
ENDBRANCH   3  20
TORSDOF 3
ENDMDL
MODEL 4
REMARK VINA RESULT:       0.9      1.286      2.419
REMARK  3 active torsions:
REMARK  status: ('A' for Active; 'I' for Inactive)
REMARK    1  A    between atoms: N_10  and  C_3 
REMARK    2  A    between atoms: C_11  and  C_5 
REMARK    3  A    between atoms: C_15  and  N_10 
ROOT
ATOM      1  N   UNL d   1      57.422  -1.199  31.078  0.00  0.00    -0.184 N 
ATOM      2  C   UNL d   1      57.285  -0.686  31.733  0.00  0.00     0.168 A 
ATOM      3  C   UNL d   1      58.062  -1.054  30.569  0.00  0.00     0.217 A 
ATOM      4  N   UNL d   1      56.288  -1.979  31.452  0.00  0.00    -0.162 NA
ATOM      5  C   UNL d   1      56.661  -0.827  32.230  0.00  0.00     0.055 A 
ATOM      6  N   UNL d   1      57.794  -0.047  31.856  0.00  0.00    -0.227 NA
ATOM      7  C   UNL d   1      58.555  -0.419  30.703  0.00  0.00     0.066 A 
ATOM      8  C   UNL d   1      56.154  -1.474  32.097  0.00  0.00     0.104 A 
ATOM      9  C   UNL d   1      58.426   0.099  31.356  0.00  0.00     0.087 A 
ATOM     10  C   UNL d   1      59.213  -0.140  30.311  0.00  0.00     0.006 A 
ATOM     11  C   UNL d   1      55.523  -1.610  32.606  0.00  0.00     0.023 C 
ATOM     12  C   UNL d   1      59.006   0.682  31.349  0.00  0.00     0.019 A 
ATOM     13  C   UNL d   1      59.498   0.529  30.692  0.00  0.00     0.002 A 
ENDROOT
BRANCH   5  14
ATOM     14  C   UNL d   1      56.527  -0.325  32.871  0.00  0.00     0.004 A 
ATOM     15  C   UNL d   1      57.053  -0.316  33.507  0.00  0.00     0.000 A 
ATOM     16  C   UNL d   1      56.923   0.182  34.147  0.00  0.00     0.000 A 
ATOM     17  C   UNL d   1      56.260   0.679  34.154  0.00  0.00     0.000 A 
ATOM     18  C   UNL d   1      55.736   0.676  33.530  0.00  0.00     0.000 A 
ATOM     19  C   UNL d   1      55.871   0.169  32.882  0.00  0.00     0.000 A 
ENDBRANCH   5  14
BRANCH   3  20
ATOM     20  N   UNL d   1      58.203  -1.569  29.906  0.00  0.00    -0.383 NA
BRANCH  20  21
ATOM     21  C   UNL d   1      58.348  -2.079  29.250  0.00  0.00     0.134 C 
ATOM     22  C   UNL d   1      58.195  -1.801  28.469  0.00  0.00     0.035 C 
ATOM     23  C   UNL d   1      58.645  -2.866  29.383  0.00  0.00     0.035 C 
ENDBRANCH  20  21
ENDBRANCH   3  20
TORSDOF 3
ENDMDL
