MODEL 1
REMARK VINA RESULT:      73.7      0.000      0.000
REMARK  6 active torsions:
REMARK  status: ('A' for Active; 'I' for Inactive)
REMARK    1  A    between atoms: C_5  and  N_1 
REMARK    2  A    between atoms: C_7  and  C_3 
REMARK    3  A    between atoms: C_12  and  C_4 
REMARK    4  A    between atoms: N_14  and  C_5 
REMARK    5  A    between atoms: O_16  and  C_9 
REMARK    6  A    between atoms: O_17  and  C_11 
ROOT
ATOM      1  N   UNL d   1     -50.735  26.965  33.716  0.00  0.00    -0.203 N 
ATOM      2  N   UNL d   1     -51.056  26.240  33.481  0.00  0.00    -0.163 NA
ATOM      3  C   UNL d   1     -50.110  26.804  34.221  0.00  0.00     0.087 A 
ATOM      4  C   UNL d   1     -50.638  25.648  33.833  0.00  0.00     0.103 A 
ATOM      5  C   UNL d   1     -50.054  25.988  34.291  0.00  0.00     0.040 A 
ENDROOT
BRANCH   3   6
ATOM      6  C   UNL d   1     -49.615  27.355  34.600  0.00  0.00     0.020 A 
ATOM      7  C   UNL d   1     -49.709  27.549  35.382  0.00  0.00     0.028 A 
ATOM      8  C   UNL d   1     -49.221  28.092  35.750  0.00  0.00     0.116 A 
ATOM      9  C   UNL d   1     -48.629  28.446  35.327  0.00  0.00     0.116 A 
ATOM     10  C   UNL d   1     -48.519  28.261  34.531  0.00  0.00     0.026 A 
ATOM     11  C   UNL d   1     -49.007  27.718  34.163  0.00  0.00     0.004 A 
BRANCH   8  12
ATOM     12  O   UNL d   1     -49.313  28.294  36.551  0.00  0.00    -0.326 OA
ATOM     13  C   UNL d   1     -49.642  27.749  37.083  0.00  0.00     0.181 C 
ENDBRANCH   8  12
BRANCH   9  14
ATOM     14  O   UNL d   1     -48.121  29.005  35.694  0.00  0.00    -0.326 OA
ATOM     15  C   UNL d   1     -48.022  29.761  35.390  0.00  0.00     0.181 C 
ENDBRANCH   9  14
ENDBRANCH   3   6
BRANCH   1  16
ATOM     16  C   UNL d   1     -51.008  27.714  33.475  0.00  0.00     0.222 C 
ATOM     17  S   UNL d   1     -50.483  28.360  33.395  0.00  0.00    -0.037 SA
BRANCH  16  18
ATOM     18  N   UNL d   1     -51.826  27.838  33.307  0.00  0.00    -0.214 NA
ATOM     19  C   UNL d   1     -52.152  28.603  33.423  0.00  0.00     0.122 C 
ENDBRANCH  16  18
ENDBRANCH   1  16
BRANCH   4  20
ATOM     20  C   UNL d   1     -50.812  24.841  33.719  0.00  0.00     0.019 A 
ATOM     21  C   UNL d   1     -50.241  24.337  33.429  0.00  0.00     0.002 A 
ATOM     22  C   UNL d   1     -50.397  23.523  33.307  0.00  0.00     0.000 A 
ATOM     23  C   UNL d   1     -51.160  23.229  33.491  0.00  0.00     0.000 A 
ATOM     24  C   UNL d   1     -51.737  23.762  33.789  0.00  0.00     0.000 A 
ATOM     25  C   UNL d   1     -51.568  24.553  33.901  0.00  0.00     0.002 A 
ENDBRANCH   4  20
TORSDOF 6
ENDMDL
MODEL 2
REMARK VINA RESULT:      74.5      1.400      2.219
REMARK  6 active torsions:
REMARK  status: ('A' for Active; 'I' for Inactive)
REMARK    1  A    between atoms: C_5  and  N_1 
REMARK    2  A    between atoms: C_7  and  C_3 
REMARK    3  A    between atoms: C_12  and  C_4 
REMARK    4  A    between atoms: N_14  and  C_5 
REMARK    5  A    between atoms: O_16  and  C_9 
REMARK    6  A    between atoms: O_17  and  C_11 
ROOT
ATOM      1  N   UNL d   1     -50.058  25.309  33.720  0.00  0.00    -0.203 N 
ATOM      2  N   UNL d   1     -50.708  24.832  33.537  0.00  0.00    -0.163 NA
ATOM      3  C   UNL d   1     -50.348  26.031  33.981  0.00  0.00     0.087 A 
ATOM      4  C   UNL d   1     -51.382  25.251  33.681  0.00  0.00     0.103 A 
ATOM      5  C   UNL d   1     -51.168  25.989  33.954  0.00  0.00     0.040 A 
ENDROOT
BRANCH   3   6
ATOM      6  C   UNL d   1     -49.906  26.690  34.228  0.00  0.00     0.020 A 
ATOM      7  C   UNL d   1     -49.816  26.876  35.013  0.00  0.00     0.028 A 
ATOM      8  C   UNL d   1     -49.380  27.526  35.251  0.00  0.00     0.116 A 
ATOM      9  C   UNL d   1     -49.029  27.997  34.694  0.00  0.00     0.116 A 
ATOM     10  C   UNL d   1     -49.110  27.822  33.892  0.00  0.00     0.026 A 
ATOM     11  C   UNL d   1     -49.546  27.173  33.653  0.00  0.00     0.004 A 
BRANCH   8  12
ATOM     12  O   UNL d   1     -49.285  27.720  36.053  0.00  0.00    -0.326 OA
ATOM     13  C   UNL d   1     -49.933  27.686  36.570  0.00  0.00     0.181 C 
ENDBRANCH   8  12
BRANCH   9  14
ATOM     14  O   UNL d   1     -48.579  28.666  34.927  0.00  0.00    -0.326 OA
ATOM     15  C   UNL d   1     -48.864  29.430  34.831  0.00  0.00     0.181 C 
ENDBRANCH   9  14
ENDBRANCH   3   6
BRANCH   1  16
ATOM     16  C   UNL d   1     -49.259  25.085  33.649  0.00  0.00     0.222 C 
ATOM     17  S   UNL d   1     -48.694  25.598  33.307  0.00  0.00    -0.037 SA
BRANCH  16  18
ATOM     18  N   UNL d   1     -49.001  24.328  33.923  0.00  0.00    -0.214 NA
ATOM     19  C   UNL d   1     -49.036  23.674  33.398  0.00  0.00     0.122 C 
ENDBRANCH  16  18
ENDBRANCH   1  16
BRANCH   4  20
ATOM     20  C   UNL d   1     -52.144  24.938  33.556  0.00  0.00     0.019 A 
ATOM     21  C   UNL d   1     -52.776  25.438  33.438  0.00  0.00     0.002 A 
ATOM     22  C   UNL d   1     -53.550  25.141  33.310  0.00  0.00     0.000 A 
ATOM     23  C   UNL d   1     -53.666  24.312  33.307  0.00  0.00     0.000 A 
ATOM     24  C   UNL d   1     -53.004  23.811  33.431  0.00  0.00     0.000 A 
ATOM     25  C   UNL d   1     -52.256  24.116  33.553  0.00  0.00     0.002 A 
ENDBRANCH   4  20
TORSDOF 6
ENDMDL
MODEL 3
REMARK VINA RESULT:      75.8      2.755      4.423
REMARK  6 active torsions:
REMARK  status: ('A' for Active; 'I' for Inactive)
REMARK    1  A    between atoms: C_5  and  N_1 
REMARK    2  A    between atoms: C_7  and  C_3 
REMARK    3  A    between atoms: C_12  and  C_4 
REMARK    4  A    between atoms: N_14  and  C_5 
REMARK    5  A    between atoms: O_16  and  C_9 
REMARK    6  A    between atoms: O_17  and  C_11 
ROOT
ATOM      1  N   UNL d   1     -48.038  29.534  35.143  0.00  0.00    -0.203 N 
ATOM      2  N   UNL d   1     -48.435  28.819  35.018  0.00  0.00    -0.163 NA
ATOM      3  C   UNL d   1     -48.264  30.047  34.544  0.00  0.00     0.087 A 
ATOM      4  C   UNL d   1     -48.894  28.892  34.359  0.00  0.00     0.103 A 
ATOM      5  C   UNL d   1     -48.793  29.645  34.062  0.00  0.00     0.040 A 
ENDROOT
BRANCH   3   6
ATOM      6  C   UNL d   1     -48.011  30.832  34.433  0.00  0.00     0.020 A 
ATOM      7  C   UNL d   1     -48.536  31.441  34.331  0.00  0.00     0.028 A 
ATOM      8  C   UNL d   1     -48.282  32.211  34.223  0.00  0.00     0.116 A 
ATOM      9  C   UNL d   1     -47.489  32.372  34.217  0.00  0.00     0.116 A 
ATOM     10  C   UNL d   1     -46.941  31.765  34.319  0.00  0.00     0.026 A 
ATOM     11  C   UNL d   1     -47.194  30.995  34.427  0.00  0.00     0.004 A 
BRANCH   8  12
ATOM     12  O   UNL d   1     -48.816  32.839  34.119  0.00  0.00    -0.326 OA
ATOM     13  C   UNL d   1     -49.005  33.102  33.355  0.00  0.00     0.181 C 
ENDBRANCH   8  12
BRANCH   9  14
ATOM     14  O   UNL d   1     -47.217  33.159  34.107  0.00  0.00    -0.326 OA
ATOM     15  C   UNL d   1     -46.723  33.360  33.482  0.00  0.00     0.181 C 
ENDBRANCH   9  14
ENDBRANCH   3   6
BRANCH   1  16
ATOM     16  C   UNL d   1     -47.509  29.690  35.766  0.00  0.00     0.222 C 
ATOM     17  S   UNL d   1     -46.683  29.601  35.666  0.00  0.00    -0.037 SA
BRANCH  16  18
ATOM     18  N   UNL d   1     -47.797  29.944  36.519  0.00  0.00    -0.214 NA
ATOM     19  C   UNL d   1     -47.272  29.944  37.174  0.00  0.00     0.122 C 
ENDBRANCH  16  18
ENDBRANCH   1  16
BRANCH   4  20
ATOM     20  C   UNL d   1     -49.372  28.274  34.070  0.00  0.00     0.019 A 
ATOM     21  C   UNL d   1     -50.021  28.441  33.607  0.00  0.00     0.002 A 
ATOM     22  C   UNL d   1     -50.513  27.832  33.308  0.00  0.00     0.000 A 
ATOM     23  C   UNL d   1     -50.327  27.037  33.494  0.00  0.00     0.000 A 
ATOM     24  C   UNL d   1     -49.654  26.882  33.973  0.00  0.00     0.000 A 
ATOM     25  C   UNL d   1     -49.185  27.487  34.257  0.00  0.00     0.002 A 
ENDBRANCH   4  20
TORSDOF 6
ENDMDL
MODEL 4
REMARK VINA RESULT:      76.7      2.722      4.374
REMARK  6 active torsions:
REMARK  status: ('A' for Active; 'I' for Inactive)
REMARK    1  A    between atoms: C_5  and  N_1 
REMARK    2  A    between atoms: C_7  and  C_3 
REMARK    3  A    between atoms: C_12  and  C_4 
REMARK    4  A    between atoms: N_14  and  C_5 
REMARK    5  A    between atoms: O_16  and  C_9 
REMARK    6  A    between atoms: O_17  and  C_11 
ROOT
ATOM      1  N   UNL d   1     -48.098  29.566  35.003  0.00  0.00    -0.203 N 
ATOM      2  N   UNL d   1     -48.417  28.810  34.899  0.00  0.00    -0.163 NA
ATOM      3  C   UNL d   1     -48.441  30.055  34.441  0.00  0.00     0.087 A 
ATOM      4  C   UNL d   1     -48.942  28.834  34.288  0.00  0.00     0.103 A 
ATOM      5  C   UNL d   1     -48.961  29.598  34.001  0.00  0.00     0.040 A 
ENDROOT
BRANCH   3   6
ATOM      6  C   UNL d   1     -48.296  30.866  34.326  0.00  0.00     0.020 A 
ATOM      7  C   UNL d   1     -47.574  31.143  34.082  0.00  0.00     0.028 A 
ATOM      8  C   UNL d   1     -47.437  31.942  33.971  0.00  0.00     0.116 A 
ATOM      9  C   UNL d   1     -48.034  32.471  34.107  0.00  0.00     0.116 A 
ATOM     10  C   UNL d   1     -48.775  32.208  34.356  0.00  0.00     0.026 A 
ATOM     11  C   UNL d   1     -48.912  31.409  34.467  0.00  0.00     0.004 A 
BRANCH   8  12
ATOM     12  O   UNL d   1     -46.699  32.230  33.722  0.00  0.00    -0.326 OA
ATOM     13  C   UNL d   1     -46.175  31.734  33.312  0.00  0.00     0.181 C 
ENDBRANCH   8  12
BRANCH   9  14
ATOM     14  O   UNL d   1     -47.904  33.293  33.997  0.00  0.00    -0.326 OA
ATOM     15  C   UNL d   1     -48.183  33.687  33.332  0.00  0.00     0.181 C 
ENDBRANCH   9  14
ENDBRANCH   3   6
BRANCH   1  16
ATOM     16  C   UNL d   1     -47.534  29.777  35.577  0.00  0.00     0.222 C 
ATOM     17  S   UNL d   1     -46.723  29.604  35.473  0.00  0.00    -0.037 SA
BRANCH  16  18
ATOM     18  N   UNL d   1     -47.771  30.176  36.284  0.00  0.00    -0.214 NA
ATOM     19  C   UNL d   1     -47.443  29.930  37.017  0.00  0.00     0.122 C 
ENDBRANCH  16  18
ENDBRANCH   1  16
BRANCH   4  20
ATOM     20  C   UNL d   1     -49.367  28.166  34.030  0.00  0.00     0.019 A 
ATOM     21  C   UNL d   1     -49.089  27.417  34.190  0.00  0.00     0.002 A 
ATOM     22  C   UNL d   1     -49.503  26.733  33.938  0.00  0.00     0.000 A 
ATOM     23  C   UNL d   1     -50.219  26.831  33.514  0.00  0.00     0.000 A 
ATOM     24  C   UNL d   1     -50.492  27.610  33.359  0.00  0.00     0.000 A 
ATOM     25  C   UNL d   1     -50.076  28.266  33.611  0.00  0.00     0.002 A 
ENDBRANCH   4  20
TORSDOF 6
ENDMDL
