MODEL 1
REMARK VINA RESULT:     118.1      0.000      0.000
REMARK  5 active torsions:
REMARK  status: ('A' for Active; 'I' for Inactive)
REMARK    1  A    between atoms: C_4  and  N_1 
REMARK    2  A    between atoms: C_8  and  C_2 
REMARK    3  A    between atoms: C_13  and  C_6 
REMARK    4  A    between atoms: C_7  and  C_8 
REMARK    5  A    between atoms: O_24  and  C_22 
ROOT
ATOM      1  N   UNL d   1      60.305  47.006  50.677  0.00  0.00    -0.255 N 
ATOM      2  C   UNL d   1      59.361  47.855  51.106  0.00  0.00     0.101 A 
ATOM      3  C   UNL d   1      59.642  46.565  50.898  0.00  0.00     0.305 A 
ATOM      4  C   UNL d   1      59.064  47.085  51.160  0.00  0.00     0.256 A 
ATOM      5  C   UNL d   1      60.129  47.807  50.807  0.00  0.00     0.075 A 
ATOM      6  O   UNL d   1      59.574  45.742  50.859  0.00  0.00    -0.263 OA
ATOM      7  O   UNL d   1      58.309  46.874  51.434  0.00  0.00    -0.281 OA
ENDROOT
BRANCH   2   8
ATOM      8  C   UNL d   1      58.961  48.548  51.313  0.00  0.00     0.223 C 
ATOM      9  O   UNL d   1      59.193  48.966  51.984  0.00  0.00    -0.284 OA
BRANCH   8  10
ATOM     10  C   UNL d   1      58.336  48.818  50.852  0.00  0.00     0.139 A 
ATOM     11  O   UNL d   1      58.363  48.968  50.043  0.00  0.00    -0.304 OA
ATOM     12  C   UNL d   1      57.611  49.230  49.806  0.00  0.00     0.100 A 
ATOM     13  C   UNL d   1      57.313  49.458  49.075  0.00  0.00     0.025 A 
ATOM     14  C   UNL d   1      57.132  49.238  50.476  0.00  0.00     0.025 A 
ATOM     15  C   UNL d   1      56.531  49.696  49.008  0.00  0.00     0.002 A 
ATOM     16  C   UNL d   1      56.040  49.707  49.678  0.00  0.00     0.000 A 
ATOM     17  C   UNL d   1      56.341  49.479  50.406  0.00  0.00     0.002 A 
ATOM     18  C   UNL d   1      57.574  48.986  51.118  0.00  0.00     0.030 A 
ENDBRANCH   8  10
ENDBRANCH   2   8
BRANCH   5  19
ATOM     19  C   UNL d   1      60.637  48.442  50.661  0.00  0.00     0.018 A 
ATOM     20  C   UNL d   1      61.085  48.757  51.269  0.00  0.00     0.026 A 
ATOM     21  C   UNL d   1      61.592  49.389  51.126  0.00  0.00     0.094 A 
ATOM     22  C   UNL d   1      61.647  49.707  50.360  0.00  0.00     0.024 A 
ATOM     23  C   UNL d   1      61.189  49.381  49.749  0.00  0.00     0.002 A 
ATOM     24  C   UNL d   1      60.687  48.753  49.898  0.00  0.00     0.002 A 
BRANCH  21  25
ATOM     25  O   UNL d   1      62.044  49.708  51.741  0.00  0.00    -0.328 OA
ATOM     26  C   UNL d   1      61.882  49.505  52.522  0.00  0.00     0.181 C 
ENDBRANCH  21  25
ENDBRANCH   5  19
BRANCH   1  27
ATOM     27  C   UNL d   1      61.018  46.702  50.380  0.00  0.00     0.179 A 
ATOM     28  N   UNL d   1      61.758  47.067  50.434  0.00  0.00    -0.108 NA
ATOM     29  O   UNL d   1      62.304  46.573  50.067  0.00  0.00    -0.210 OA
ATOM     30  C   UNL d   1      61.912  45.911  49.787  0.00  0.00     0.128 A 
ATOM     31  C   UNL d   1      61.111  45.984  49.978  0.00  0.00     0.067 A 
ATOM     32  C   UNL d   1      62.253  45.272  49.381  0.00  0.00     0.029 C 
ENDBRANCH   1  27
TORSDOF 5
ENDMDL
