MODEL 1
REMARK VINA RESULT:      -4.4      0.000      0.000
REMARK  4 active torsions:
REMARK  status: ('A' for Active; 'I' for Inactive)
REMARK    1  A    between atoms: C_3  and  C_1 
REMARK    2  A    between atoms: C_2  and  C_3 
REMARK    3  A    between atoms: C_6  and  C_2 
REMARK    4  A    between atoms: C_4  and  C_6 
ROOT
ATOM      1  C   UNL d   1      56.814  -0.159  31.963  0.00  0.00     0.043 C 
ENDROOT
BRANCH   1   2
ATOM      2  C   UNL d   1      57.126  -0.590  31.340  0.00  0.00     0.202 C 
ATOM      3  O   UNL d   1      57.003  -1.395  31.248  0.00  0.00    -0.286 OA
BRANCH   2   4
ATOM      4  C   UNL d   1      57.602  -0.222  30.749  0.00  0.00     0.068 A 
ATOM      5  S   UNL d   1      58.242  -0.544  30.347  0.00  0.00    -0.083 SA
ATOM      6  C   UNL d   1      58.544   0.000  29.821  0.00  0.00     0.035 A 
ATOM      7  C   UNL d   1      58.071   0.682  29.903  0.00  0.00     0.008 A 
ATOM      8  C   UNL d   1      57.498   0.566  30.457  0.00  0.00     0.010 A 
ENDBRANCH   2   4
ENDBRANCH   1   2
BRANCH   1   9
ATOM      9  C   UNL d   1      56.421  -0.565  32.566  0.00  0.00     0.010 C 
BRANCH   9  10
ATOM     10  C   UNL d   1      56.072  -0.125  33.176  0.00  0.00     0.030 A 
ATOM     11  S   UNL d   1      56.376   0.396  33.727  0.00  0.00    -0.086 SA
ATOM     12  C   UNL d   1      55.745   0.662  34.195  0.00  0.00     0.035 A 
ATOM     13  C   UNL d   1      55.106   0.315  33.932  0.00  0.00     0.007 A 
ATOM     14  C   UNL d   1      55.260  -0.163  33.323  0.00  0.00     0.007 A 
ENDBRANCH   9  10
ENDBRANCH   1   9
TORSDOF 4
ENDMDL
MODEL 2
REMARK VINA RESULT:      -4.4      0.847      3.704
REMARK  4 active torsions:
REMARK  status: ('A' for Active; 'I' for Inactive)
REMARK    1  A    between atoms: C_3  and  C_1 
REMARK    2  A    between atoms: C_2  and  C_3 
REMARK    3  A    between atoms: C_6  and  C_2 
REMARK    4  A    between atoms: C_4  and  C_6 
ROOT
ATOM      1  C   UNL d   1      56.513  -0.074  32.400  0.00  0.00     0.043 C 
ENDROOT
BRANCH   1   2
ATOM      2  C   UNL d   1      56.030  -0.439  32.951  0.00  0.00     0.202 C 
ATOM      3  O   UNL d   1      55.904  -1.249  32.968  0.00  0.00    -0.286 OA
BRANCH   2   4
ATOM      4  C   UNL d   1      55.627   0.007  33.543  0.00  0.00     0.068 A 
ATOM      5  S   UNL d   1      55.918   0.253  34.272  0.00  0.00    -0.083 SA
ATOM      6  C   UNL d   1      55.346   0.671  34.674  0.00  0.00     0.035 A 
ATOM      7  C   UNL d   1      54.679   0.682  34.175  0.00  0.00     0.008 A 
ATOM      8  C   UNL d   1      54.830   0.287  33.489  0.00  0.00     0.010 A 
ENDBRANCH   2   4
ENDBRANCH   1   2
BRANCH   1   9
ATOM      9  C   UNL d   1      56.815  -0.527  31.778  0.00  0.00     0.010 C 
BRANCH   9  10
ATOM     10  C   UNL d   1      57.304  -0.156  31.221  0.00  0.00     0.030 A 
ATOM     11  S   UNL d   1      57.468   0.628  31.063  0.00  0.00    -0.086 SA
ATOM     12  C   UNL d   1      58.007   0.650  30.433  0.00  0.00     0.035 A 
ATOM     13  C   UNL d   1      58.151  -0.083  30.233  0.00  0.00     0.007 A 
ATOM     14  C   UNL d   1      57.749  -0.595  30.681  0.00  0.00     0.007 A 
ENDBRANCH   9  10
ENDBRANCH   1   9
TORSDOF 4
ENDMDL
MODEL 3
REMARK VINA RESULT:      -4.1      0.967      3.838
REMARK  4 active torsions:
REMARK  status: ('A' for Active; 'I' for Inactive)
REMARK    1  A    between atoms: C_3  and  C_1 
REMARK    2  A    between atoms: C_2  and  C_3 
REMARK    3  A    between atoms: C_6  and  C_2 
REMARK    4  A    between atoms: C_4  and  C_6 
ROOT
ATOM      1  C   UNL d   1      57.365   0.015  31.332  0.00  0.00     0.043 C 
ENDROOT
BRANCH   1   2
ATOM      2  C   UNL d   1      57.220   0.171  32.123  0.00  0.00     0.202 C 
ATOM      3  O   UNL d   1      57.716   0.630  32.586  0.00  0.00    -0.286 OA
BRANCH   2   4
ATOM      4  C   UNL d   1      56.538  -0.139  32.511  0.00  0.00     0.068 A 
ATOM      5  S   UNL d   1      55.977   0.275  32.947  0.00  0.00    -0.083 SA
ATOM      6  C   UNL d   1      55.408  -0.237  33.227  0.00  0.00     0.035 A 
ATOM      7  C   UNL d   1      55.628  -0.993  32.953  0.00  0.00     0.008 A 
ATOM      8  C   UNL d   1      56.306  -0.953  32.519  0.00  0.00     0.010 A 
ENDBRANCH   2   4
ENDBRANCH   1   2
BRANCH   1   9
ATOM      9  C   UNL d   1      58.024   0.364  30.976  0.00  0.00     0.010 C 
BRANCH   9  10
ATOM     10  C   UNL d   1      58.209   0.154  30.195  0.00  0.00     0.030 A 
ATOM     11  S   UNL d   1      58.569  -0.502  29.869  0.00  0.00    -0.086 SA
ATOM     12  C   UNL d   1      58.597  -0.390  29.047  0.00  0.00     0.035 A 
ATOM     13  C   UNL d   1      58.271   0.295  28.901  0.00  0.00     0.007 A 
ATOM     14  C   UNL d   1      58.026   0.652  29.562  0.00  0.00     0.007 A 
ENDBRANCH   9  10
ENDBRANCH   1   9
TORSDOF 4
ENDMDL
MODEL 4
REMARK VINA RESULT:      -3.9      1.111      1.618
REMARK  4 active torsions:
REMARK  status: ('A' for Active; 'I' for Inactive)
REMARK    1  A    between atoms: C_3  and  C_1 
REMARK    2  A    between atoms: C_2  and  C_3 
REMARK    3  A    between atoms: C_6  and  C_2 
REMARK    4  A    between atoms: C_4  and  C_6 
ROOT
ATOM      1  C   UNL d   1      57.628  -0.066  31.052  0.00  0.00     0.043 C 
ENDROOT
BRANCH   1   2
ATOM      2  C   UNL d   1      57.823   0.190  30.298  0.00  0.00     0.202 C 
ATOM      3  O   UNL d   1      57.340   0.681  29.855  0.00  0.00    -0.286 OA
BRANCH   2   4
ATOM      4  C   UNL d   1      58.545  -0.044  29.930  0.00  0.00     0.068 A 
ATOM      5  S   UNL d   1      59.261   0.358  29.930  0.00  0.00    -0.083 SA
ATOM      6  C   UNL d   1      59.817  -0.063  29.508  0.00  0.00     0.035 A 
ATOM      7  C   UNL d   1      59.427  -0.749  29.240  0.00  0.00     0.008 A 
ATOM      8  C   UNL d   1      58.660  -0.755  29.485  0.00  0.00     0.010 A 
ENDBRANCH   2   4
ENDBRANCH   1   2
BRANCH   1   9
ATOM      9  C   UNL d   1      56.970   0.269  31.424  0.00  0.00     0.010 C 
BRANCH   9  10
ATOM     10  C   UNL d   1      56.736  -0.035  32.159  0.00  0.00     0.030 A 
ATOM     11  S   UNL d   1      56.825   0.237  32.925  0.00  0.00    -0.086 SA
ATOM     12  C   UNL d   1      56.469  -0.316  33.430  0.00  0.00     0.035 A 
ATOM     13  C   UNL d   1      56.187  -0.881  32.985  0.00  0.00     0.007 A 
ATOM     14  C   UNL d   1      56.326  -0.749  32.218  0.00  0.00     0.007 A 
ENDBRANCH   9  10
ENDBRANCH   1   9
TORSDOF 4
ENDMDL
MODEL 5
REMARK VINA RESULT:      -3.6      9.105      9.914
REMARK  4 active torsions:
REMARK  status: ('A' for Active; 'I' for Inactive)
REMARK    1  A    between atoms: C_3  and  C_1 
REMARK    2  A    between atoms: C_2  and  C_3 
REMARK    3  A    between atoms: C_6  and  C_2 
REMARK    4  A    between atoms: C_4  and  C_6 
ROOT
ATOM      1  C   UNL d   1      60.086  -8.569  34.938  0.00  0.00     0.043 C 
ENDROOT
BRANCH   1   2
ATOM      2  C   UNL d   1      60.060  -8.350  35.727  0.00  0.00     0.202 C 
ATOM      3  O   UNL d   1      59.880  -8.875  36.330  0.00  0.00    -0.286 OA
BRANCH   2   4
ATOM      4  C   UNL d   1      60.219  -7.557  35.966  0.00  0.00     0.068 A 
ATOM      5  S   UNL d   1      60.952  -7.209  36.095  0.00  0.00    -0.083 SA
ATOM      6  C   UNL d   1      60.857  -6.432  36.320  0.00  0.00     0.035 A 
ATOM      7  C   UNL d   1      60.034  -6.298  36.330  0.00  0.00     0.008 A 
ATOM      8  C   UNL d   1      59.634  -6.964  36.119  0.00  0.00     0.010 A 
ENDBRANCH   2   4
ENDBRANCH   1   2
BRANCH   1   9
ATOM      9  C   UNL d   1      59.782  -9.307  34.723  0.00  0.00     0.010 C 
BRANCH   9  10
ATOM     10  C   UNL d   1      59.715  -9.487  33.916  0.00  0.00     0.030 A 
ATOM     11  S   UNL d   1      60.267  -9.573  33.320  0.00  0.00    -0.086 SA
ATOM     12  C   UNL d   1      59.857  -9.755  32.623  0.00  0.00     0.035 A 
ATOM     13  C   UNL d   1      59.105  -9.775  32.801  0.00  0.00     0.007 A 
ATOM     14  C   UNL d   1      58.979  -9.619  33.566  0.00  0.00     0.007 A 
ENDBRANCH   9  10
ENDBRANCH   1   9
TORSDOF 4
ENDMDL
MODEL 6
REMARK VINA RESULT:      -2.7      1.506      4.302
REMARK  4 active torsions:
REMARK  status: ('A' for Active; 'I' for Inactive)
REMARK    1  A    between atoms: C_3  and  C_1 
REMARK    2  A    between atoms: C_2  and  C_3 
REMARK    3  A    between atoms: C_6  and  C_2 
REMARK    4  A    between atoms: C_4  and  C_6 
ROOT
ATOM      1  C   UNL d   1      58.349  -0.232  30.219  0.00  0.00     0.043 C 
ENDROOT
BRANCH   1   2
ATOM      2  C   UNL d   1      57.645   0.113  30.455  0.00  0.00     0.202 C 
ATOM      3  O   UNL d   1      57.137   0.492  29.935  0.00  0.00    -0.286 OA
BRANCH   2   4
ATOM      4  C   UNL d   1      57.399   0.098  31.261  0.00  0.00     0.068 A 
ATOM      5  S   UNL d   1      56.921  -0.460  31.631  0.00  0.00    -0.083 SA
ATOM      6  C   UNL d   1      56.821  -0.266  32.415  0.00  0.00     0.035 A 
ATOM      7  C   UNL d   1      57.253   0.438  32.533  0.00  0.00     0.008 A 
ATOM      8  C   UNL d   1      57.608   0.672  31.848  0.00  0.00     0.010 A 
ENDBRANCH   2   4
ENDBRANCH   1   2
BRANCH   1   9
ATOM      9  C   UNL d   1      58.494  -0.320  29.410  0.00  0.00     0.010 C 
BRANCH   9  10
ATOM     10  C   UNL d   1      59.185  -0.711  29.172  0.00  0.00     0.030 A 
ATOM     11  S   UNL d   1      59.336  -1.484  28.954  0.00  0.00    -0.086 SA
ATOM     12  C   UNL d   1      60.144  -1.540  28.774  0.00  0.00     0.035 A 
ATOM     13  C   UNL d   1      60.449  -0.838  28.882  0.00  0.00     0.007 A 
ATOM     14  C   UNL d   1      59.907  -0.315  29.120  0.00  0.00     0.007 A 
ENDBRANCH   9  10
ENDBRANCH   1   9
TORSDOF 4
ENDMDL
MODEL 7
REMARK VINA RESULT:      -1.8      9.872     10.687
REMARK  4 active torsions:
REMARK  status: ('A' for Active; 'I' for Inactive)
REMARK    1  A    between atoms: C_3  and  C_1 
REMARK    2  A    between atoms: C_2  and  C_3 
REMARK    3  A    between atoms: C_6  and  C_2 
REMARK    4  A    between atoms: C_4  and  C_6 
ROOT
ATOM      1  C   UNL d   1      59.956  -9.692  33.672  0.00  0.00     0.043 C 
ENDROOT
BRANCH   1   2
ATOM      2  C   UNL d   1      59.500  -9.459  34.312  0.00  0.00     0.202 C 
ATOM      3  O   UNL d   1      58.683  -9.403  34.282  0.00  0.00    -0.286 OA
BRANCH   2   4
ATOM      4  C   UNL d   1      59.854  -9.261  35.052  0.00  0.00     0.068 A 
ATOM      5  S   UNL d   1      60.166  -9.774  35.613  0.00  0.00    -0.083 SA
ATOM      6  C   UNL d   1      60.453  -9.353  36.248  0.00  0.00     0.035 A 
ATOM      7  C   UNL d   1      60.313  -8.550  36.070  0.00  0.00     0.008 A 
ATOM      8  C   UNL d   1      59.953  -8.476  35.353  0.00  0.00     0.010 A 
ENDBRANCH   2   4
ENDBRANCH   1   2
BRANCH   1   9
ATOM      9  C   UNL d   1      59.608  -9.701  32.922  0.00  0.00     0.010 C 
BRANCH   9  10
ATOM     10  C   UNL d   1      60.102  -9.745  32.258  0.00  0.00     0.030 A 
ATOM     11  S   UNL d   1      60.915  -9.764  32.173  0.00  0.00    -0.086 SA
ATOM     12  C   UNL d   1      61.080  -9.810  31.362  0.00  0.00     0.035 A 
ATOM     13  C   UNL d   1      60.402  -9.818  30.992  0.00  0.00     0.007 A 
ATOM     14  C   UNL d   1      59.793  -9.780  31.494  0.00  0.00     0.007 A 
ENDBRANCH   9  10
ENDBRANCH   1   9
TORSDOF 4
ENDMDL
