MODEL 1
REMARK VINA RESULT:      77.5      0.000      0.000
REMARK  4 active torsions:
REMARK  status: ('A' for Active; 'I' for Inactive)
REMARK    1  A    between atoms: N_7  and  C_1 
REMARK    2  A    between atoms: C_11  and  C_2 
REMARK    3  A    between atoms: N_6  and  C_12 
REMARK       I    between atoms: C_8  and  N_7 
REMARK    4  A    between atoms: C_14  and  C_8 
REMARK       I    between atoms: N_26  and  C_11 
ROOT
ATOM      1  N   UNL d   1     -49.774  27.348  33.698  0.00  0.00    -0.201 NA
ATOM      2  C   UNL d   1     -49.396  27.389  34.632  0.00  0.00     0.280 C 
ATOM      3  O   UNL d   1     -49.398  26.951  35.200  0.00  0.00    -0.265 OA
ENDROOT
BRANCH   1   4
ATOM      4  C   UNL d   1     -50.146  26.674  33.604  0.00  0.00     0.119 A 
ATOM      5  C   UNL d   1     -50.862  26.307  33.503  0.00  0.00     0.082 A 
ATOM      6  C   UNL d   1     -50.731  25.495  33.447  0.00  0.00     0.013 A 
ATOM      7  C   UNL d   1     -51.242  24.859  33.343  0.00  0.00     0.001 A 
ATOM      8  C   UNL d   1     -49.914  25.371  33.516  0.00  0.00     0.031 A 
ATOM      9  C   UNL d   1     -50.942  24.087  33.307  0.00  0.00     0.000 A 
ATOM     10  C   UNL d   1     -50.128  23.968  33.376  0.00  0.00     0.001 A 
ATOM     11  C   UNL d   1     -49.618  24.601  33.479  0.00  0.00     0.006 A 
ATOM     12  C   UNL d   1     -49.820  23.202  33.341  0.00  0.00     0.000 C 
ATOM     13  S   UNL d   1     -49.554  26.097  33.613  0.00  0.00    -0.068 SA
BRANCH   5  14
ATOM     14  C   UNL d   1     -51.593  26.689  33.465  0.00  0.00     0.281 C 
ATOM     15  O   UNL d   1     -52.293  26.260  33.544  0.00  0.00    -0.265 OA
ATOM     16  N   UNL d   1     -51.622  27.506  33.346  0.00  0.00    -0.205 NA
ATOM     17  C   UNL d   1     -52.349  27.895  33.306  0.00  0.00     0.123 C 
ENDBRANCH   5  14
ENDBRANCH   1   4
BRANCH   2  18
ATOM     18  C   UNL d   1     -48.990  28.091  34.777  0.00  0.00     0.058 A 
ATOM     19  C   UNL d   1     -48.547  28.180  35.463  0.00  0.00     0.006 A 
ATOM     20  C   UNL d   1     -48.144  28.877  35.606  0.00  0.00     0.018 A 
ATOM     21  C   UNL d   1     -48.171  29.498  35.076  0.00  0.00     0.070 A 
ATOM     22  C   UNL d   1     -48.620  29.414  34.374  0.00  0.00     0.018 A 
ATOM     23  C   UNL d   1     -49.026  28.723  34.221  0.00  0.00     0.006 A 
BRANCH  21  24
ATOM     24  N   UNL d   1     -47.763  30.198  35.224  0.00  0.00    -0.242 N 
ATOM     25  C   UNL d   1     -47.892  30.908  34.811  0.00  0.00     0.267 A 
ATOM     26  C   UNL d   1     -47.378  31.487  35.117  0.00  0.00     0.066 A 
ATOM     27  O   UNL d   1     -48.451  31.026  34.184  0.00  0.00    -0.267 OA
ATOM     28  C   UNL d   1     -46.941  31.128  35.713  0.00  0.00     0.066 A 
ATOM     29  C   UNL d   1     -47.172  30.347  35.780  0.00  0.00     0.267 A 
ATOM     30  O   UNL d   1     -46.866  29.794  36.315  0.00  0.00    -0.267 OA
ENDBRANCH  21  24
ENDBRANCH   2  18
TORSDOF 4
ENDMDL
