MODEL 1
REMARK VINA RESULT:      -9.2      0.000      0.000
REMARK  2 active torsions:
REMARK  status: ('A' for Active; 'I' for Inactive)
REMARK    1  A    between atoms: C_18  and  N_5 
REMARK    2  A    between atoms: C_21  and  C_18 
ROOT
ATOM      1  C   UNL d   1     -48.610  13.374  23.065  0.00  0.00     0.155 A 
ATOM      2  C   UNL d   1     -48.437  12.577  23.189  0.00  0.00     0.092 A 
ATOM      3  N   UNL d   1     -47.994  13.905  22.905  0.00  0.00    -0.210 NA
ATOM      4  N   UNL d   1     -47.054  12.842  22.996  0.00  0.00    -0.258 N 
ATOM      5  N   UNL d   1     -49.389  13.638  23.099  0.00  0.00    -0.275 N 
ATOM      6  C   UNL d   1     -47.223  13.640  22.872  0.00  0.00     0.152 A 
ATOM      7  C   UNL d   1     -47.657  12.309  23.155  0.00  0.00     0.269 A 
ATOM      8  C   UNL d   1     -49.827  12.306  23.383  0.00  0.00     0.105 A 
ATOM      9  C   UNL d   1     -50.002  13.115  23.257  0.00  0.00     0.180 A 
ATOM     10  C   UNL d   1     -49.048  12.043  23.348  0.00  0.00     0.021 A 
ATOM     11  C   UNL d   1     -46.619  14.165  22.715  0.00  0.00     0.035 A 
ATOM     12  C   UNL d   1     -50.435  11.780  23.540  0.00  0.00     0.104 C 
ATOM     13  N   UNL d   1     -51.042  11.251  23.698  0.00  0.00    -0.191 NA
ATOM     14  C   UNL d   1     -46.274  12.571  22.963  0.00  0.00     0.084 A 
ATOM     15  N   UNL d   1     -50.821  13.207  23.326  0.00  0.00    -0.128 N 
ATOM     16  O   UNL d   1     -47.488  11.511  23.279  0.00  0.00    -0.266 OA
ATOM     17  C   UNL d   1     -45.669  13.113  22.803  0.00  0.00     0.019 A 
ATOM     18  C   UNL d   1     -45.841  13.910  22.679  0.00  0.00     0.005 A 
ATOM     19  C   UNL d   1     -46.792  14.962  22.591  0.00  0.00     0.003 C 
ENDROOT
BRANCH   5  20
ATOM     20  C   UNL d   1     -49.554  14.436  22.974  0.00  0.00     0.067 C 
ATOM     21  C   UNL d   1     -49.670  14.685  22.194  0.00  0.00     0.019 C 
BRANCH  20  22
ATOM     22  C   UNL d   1     -49.614  15.021  23.565  0.00  0.00     0.018 C 
ATOM     23  C   UNL d   1     -49.958  15.772  23.477  0.00  0.00     0.002 C 
ENDBRANCH  20  22
ENDBRANCH   5  20
TORSDOF 2
ENDMDL
MODEL 2
REMARK VINA RESULT:      -9.2      1.184      2.400
REMARK  2 active torsions:
REMARK  status: ('A' for Active; 'I' for Inactive)
REMARK    1  A    between atoms: C_18  and  N_5 
REMARK    2  A    between atoms: C_21  and  C_18 
ROOT
ATOM      1  C   UNL d   1     -48.793  13.535  22.955  0.00  0.00     0.155 A 
ATOM      2  C   UNL d   1     -48.558  14.326  22.940  0.00  0.00     0.092 A 
ATOM      3  N   UNL d   1     -48.217  12.939  22.956  0.00  0.00    -0.210 NA
ATOM      4  N   UNL d   1     -47.195  13.926  22.926  0.00  0.00    -0.258 N 
ATOM      5  N   UNL d   1     -49.593  13.341  22.969  0.00  0.00    -0.275 N 
ATOM      6  C   UNL d   1     -47.425  13.134  22.941  0.00  0.00     0.152 A 
ATOM      7  C   UNL d   1     -47.757  14.523  22.926  0.00  0.00     0.269 A 
ATOM      8  C   UNL d   1     -49.929  14.732  22.953  0.00  0.00     0.105 A 
ATOM      9  C   UNL d   1     -50.166  13.928  22.969  0.00  0.00     0.180 A 
ATOM     10  C   UNL d   1     -49.129  14.924  22.939  0.00  0.00     0.021 A 
ATOM     11  C   UNL d   1     -46.861  12.545  22.942  0.00  0.00     0.035 A 
ATOM     12  C   UNL d   1     -50.497  15.321  22.953  0.00  0.00     0.104 C 
ATOM     13  N   UNL d   1     -51.064  15.915  22.952  0.00  0.00    -0.191 NA
ATOM     14  C   UNL d   1     -46.393  14.127  22.912  0.00  0.00     0.084 A 
ATOM     15  N   UNL d   1     -50.993  13.912  22.981  0.00  0.00    -0.128 N 
ATOM     16  O   UNL d   1     -47.527  15.315  22.911  0.00  0.00    -0.266 OA
ATOM     17  C   UNL d   1     -45.829  13.521  22.913  0.00  0.00     0.019 A 
ATOM     18  C   UNL d   1     -46.063  12.730  22.928  0.00  0.00     0.005 A 
ATOM     19  C   UNL d   1     -47.095  11.754  22.957  0.00  0.00     0.003 C 
ENDROOT
BRANCH   5  20
ATOM     20  C   UNL d   1     -49.819  12.548  22.984  0.00  0.00     0.067 C 
ATOM     21  C   UNL d   1     -49.931  12.169  22.258  0.00  0.00     0.019 C 
BRANCH  20  22
ATOM     22  C   UNL d   1     -49.947  12.089  23.669  0.00  0.00     0.018 C 
ATOM     23  C   UNL d   1     -50.321  11.348  23.698  0.00  0.00     0.002 C 
ENDBRANCH  20  22
ENDBRANCH   5  20
TORSDOF 2
ENDMDL
MODEL 3
REMARK VINA RESULT:      -9.1      1.050      3.311
REMARK  2 active torsions:
REMARK  status: ('A' for Active; 'I' for Inactive)
REMARK    1  A    between atoms: C_18  and  N_5 
REMARK    2  A    between atoms: C_21  and  C_18 
ROOT
ATOM      1  C   UNL d   1     -48.124  12.688  22.949  0.00  0.00     0.155 A 
ATOM      2  C   UNL d   1     -48.234  11.932  23.261  0.00  0.00     0.092 A 
ATOM      3  N   UNL d   1     -48.784  13.152  22.762  0.00  0.00    -0.210 NA
ATOM      4  N   UNL d   1     -49.643  12.107  23.197  0.00  0.00    -0.258 N 
ATOM      5  N   UNL d   1     -47.363  12.977  22.825  0.00  0.00    -0.275 N 
ATOM      6  C   UNL d   1     -49.536  12.863  22.885  0.00  0.00     0.152 A 
ATOM      7  C   UNL d   1     -48.995  11.640  23.386  0.00  0.00     0.269 A 
ATOM      8  C   UNL d   1     -46.818  11.753  23.326  0.00  0.00     0.105 A 
ATOM      9  C   UNL d   1     -46.706  12.520  23.009  0.00  0.00     0.180 A 
ATOM     10  C   UNL d   1     -47.578  11.465  23.449  0.00  0.00     0.021 A 
ATOM     11  C   UNL d   1     -50.184  13.322  22.700  0.00  0.00     0.035 A 
ATOM     12  C   UNL d   1     -46.165  11.293  23.511  0.00  0.00     0.104 C 
ATOM     13  N   UNL d   1     -45.514  10.830  23.698  0.00  0.00    -0.191 NA
ATOM     14  C   UNL d   1     -50.404  11.811  23.324  0.00  0.00     0.084 A 
ATOM     15  N   UNL d   1     -45.891  12.650  22.950  0.00  0.00    -0.128 N 
ATOM     16  O   UNL d   1     -49.101  10.883  23.698  0.00  0.00    -0.266 OA
ATOM     17  C   UNL d   1     -51.055  12.286  23.132  0.00  0.00     0.019 A 
ATOM     18  C   UNL d   1     -50.945  13.042  22.820  0.00  0.00     0.005 A 
ATOM     19  C   UNL d   1     -50.074  14.078  22.388  0.00  0.00     0.003 C 
ENDROOT
BRANCH   5  20
ATOM     20  C   UNL d   1     -47.261  13.734  22.513  0.00  0.00     0.067 C 
ATOM     21  C   UNL d   1     -47.302  13.817  21.691  0.00  0.00     0.019 C 
BRANCH  20  22
ATOM     22  C   UNL d   1     -47.118  14.428  22.952  0.00  0.00     0.018 C 
ATOM     23  C   UNL d   1     -46.902  15.167  22.641  0.00  0.00     0.002 C 
ENDBRANCH  20  22
ENDBRANCH   5  20
TORSDOF 2
ENDMDL
MODEL 4
REMARK VINA RESULT:      -7.1      9.103     10.347
REMARK  2 active torsions:
REMARK  status: ('A' for Active; 'I' for Inactive)
REMARK    1  A    between atoms: C_18  and  N_5 
REMARK    2  A    between atoms: C_21  and  C_18 
ROOT
ATOM      1  C   UNL d   1     -39.469  14.271  18.894  0.00  0.00     0.155 A 
ATOM      2  C   UNL d   1     -40.138  14.693  19.128  0.00  0.00     0.092 A 
ATOM      3  N   UNL d   1     -38.957  13.966  19.470  0.00  0.00    -0.210 NA
ATOM      4  N   UNL d   1     -39.785  14.506  20.492  0.00  0.00    -0.258 N 
ATOM      5  N   UNL d   1     -39.312  14.155  18.095  0.00  0.00    -0.275 N 
ATOM      6  C   UNL d   1     -39.115  14.083  20.262  0.00  0.00     0.152 A 
ATOM      7  C   UNL d   1     -40.298  14.811  19.929  0.00  0.00     0.269 A 
ATOM      8  C   UNL d   1     -40.497  14.883  17.758  0.00  0.00     0.105 A 
ATOM      9  C   UNL d   1     -39.817  14.455  17.521  0.00  0.00     0.180 A 
ATOM     10  C   UNL d   1     -40.652  14.999  18.557  0.00  0.00     0.021 A 
ATOM     11  C   UNL d   1     -38.609  13.782  20.826  0.00  0.00     0.035 A 
ATOM     12  C   UNL d   1     -41.003  15.185  17.189  0.00  0.00     0.104 C 
ATOM     13  N   UNL d   1     -41.513  15.488  16.622  0.00  0.00    -0.191 NA
ATOM     14  C   UNL d   1     -39.948  14.626  21.294  0.00  0.00     0.084 A 
ATOM     15  N   UNL d   1     -39.811  14.432  16.694  0.00  0.00    -0.128 N 
ATOM     16  O   UNL d   1     -40.968  15.233  20.159  0.00  0.00    -0.266 OA
ATOM     17  C   UNL d   1     -39.428  14.316  21.858  0.00  0.00     0.019 A 
ATOM     18  C   UNL d   1     -38.758  13.894  21.624  0.00  0.00     0.005 A 
ATOM     19  C   UNL d   1     -37.940  13.361  20.593  0.00  0.00     0.003 C 
ENDROOT
BRANCH   5  20
ATOM     20  C   UNL d   1     -38.641  13.732  17.869  0.00  0.00     0.067 C 
ATOM     21  C   UNL d   1     -37.940  14.157  17.761  0.00  0.00     0.019 C 
BRANCH  20  22
ATOM     22  C   UNL d   1     -38.603  12.909  17.738  0.00  0.00     0.018 C 
ATOM     23  C   UNL d   1     -37.988  12.503  17.355  0.00  0.00     0.002 C 
ENDBRANCH  20  22
ENDBRANCH   5  20
TORSDOF 2
ENDMDL
MODEL 5
REMARK VINA RESULT:      -6.4      8.304      9.874
REMARK  2 active torsions:
REMARK  status: ('A' for Active; 'I' for Inactive)
REMARK    1  A    between atoms: C_18  and  N_5 
REMARK    2  A    between atoms: C_21  and  C_18 
ROOT
ATOM      1  C   UNL d   1     -39.665  14.200  19.790  0.00  0.00     0.155 A 
ATOM      2  C   UNL d   1     -38.948  13.808  19.679  0.00  0.00     0.092 A 
ATOM      3  N   UNL d   1     -40.094  14.460  19.131  0.00  0.00    -0.210 NA
ATOM      4  N   UNL d   1     -39.089  13.939  18.272  0.00  0.00    -0.258 N 
ATOM      5  N   UNL d   1     -39.952  14.329  20.551  0.00  0.00    -0.275 N 
ATOM      6  C   UNL d   1     -39.807  14.331  18.378  0.00  0.00     0.152 A 
ATOM      7  C   UNL d   1     -38.658  13.676  18.918  0.00  0.00     0.269 A 
ATOM      8  C   UNL d   1     -38.802  13.675  21.095  0.00  0.00     0.105 A 
ATOM      9  C   UNL d   1     -39.531  14.072  21.207  0.00  0.00     0.180 A 
ATOM     10  C   UNL d   1     -38.516  13.545  20.334  0.00  0.00     0.021 A 
ATOM     11  C   UNL d   1     -40.231  14.588  17.731  0.00  0.00     0.035 A 
ATOM     12  C   UNL d   1     -38.378  13.416  21.747  0.00  0.00     0.104 C 
ATOM     13  N   UNL d   1     -37.951  13.156  22.397  0.00  0.00    -0.191 NA
ATOM     14  C   UNL d   1     -38.795  13.805  17.510  0.00  0.00     0.084 A 
ATOM     15  N   UNL d   1     -39.668  14.118  22.021  0.00  0.00    -0.128 N 
ATOM     16  O   UNL d   1     -37.940  13.284  18.812  0.00  0.00    -0.266 OA
ATOM     17  C   UNL d   1     -39.234  14.071  16.860  0.00  0.00     0.019 A 
ATOM     18  C   UNL d   1     -39.952  14.463  16.971  0.00  0.00     0.005 A 
ATOM     19  C   UNL d   1     -40.948  14.980  17.842  0.00  0.00     0.003 C 
ENDROOT
BRANCH   5  20
ATOM     20  C   UNL d   1     -40.670  14.722  20.654  0.00  0.00     0.067 C 
ATOM     21  C   UNL d   1     -41.359  14.264  20.657  0.00  0.00     0.019 C 
BRANCH  20  22
ATOM     22  C   UNL d   1     -40.768  15.543  20.755  0.00  0.00     0.018 C 
ATOM     23  C   UNL d   1     -41.441  15.922  21.060  0.00  0.00     0.002 C 
ENDBRANCH  20  22
ENDBRANCH   5  20
TORSDOF 2
ENDMDL
MODEL 6
REMARK VINA RESULT:      -6.3      9.160     10.356
REMARK  2 active torsions:
REMARK  status: ('A' for Active; 'I' for Inactive)
REMARK    1  A    between atoms: C_18  and  N_5 
REMARK    2  A    between atoms: C_21  and  C_18 
ROOT
ATOM      1  C   UNL d   1     -39.501  14.469  18.717  0.00  0.00     0.155 A 
ATOM      2  C   UNL d   1     -38.995  13.877  18.990  0.00  0.00     0.092 A 
ATOM      3  N   UNL d   1     -39.892  14.955  19.262  0.00  0.00    -0.210 NA
ATOM      4  N   UNL d   1     -39.269  14.256  20.332  0.00  0.00    -0.258 N 
ATOM      5  N   UNL d   1     -39.616  14.573  17.908  0.00  0.00    -0.275 N 
ATOM      6  C   UNL d   1     -39.776  14.849  20.062  0.00  0.00     0.152 A 
ATOM      7  C   UNL d   1     -38.878  13.770  19.799  0.00  0.00     0.269 A 
ATOM      8  C   UNL d   1     -38.717  13.493  17.642  0.00  0.00     0.105 A 
ATOM      9  C   UNL d   1     -39.231  14.094  17.364  0.00  0.00     0.180 A 
ATOM     10  C   UNL d   1     -38.603  13.389  18.450  0.00  0.00     0.021 A 
ATOM     11  C   UNL d   1     -40.162  15.329  20.597  0.00  0.00     0.035 A 
ATOM     12  C   UNL d   1     -38.330  13.012  17.103  0.00  0.00     0.104 C 
ATOM     13  N   UNL d   1     -37.941  12.528  16.566  0.00  0.00    -0.191 NA
ATOM     14  C   UNL d   1     -39.149  14.146  21.143  0.00  0.00     0.084 A 
ATOM     15  N   UNL d   1     -39.231  14.061  16.538  0.00  0.00    -0.128 N 
ATOM     16  O   UNL d   1     -38.371  13.177  20.069  0.00  0.00    -0.266 OA
ATOM     17  C   UNL d   1     -39.546  14.640  21.676  0.00  0.00     0.019 A 
ATOM     18  C   UNL d   1     -40.052  15.231  21.403  0.00  0.00     0.005 A 
ATOM     19  C   UNL d   1     -40.668  15.921  20.323  0.00  0.00     0.003 C 
ENDROOT
BRANCH   5  20
ATOM     20  C   UNL d   1     -40.124  15.167  17.643  0.00  0.00     0.067 C 
ATOM     21  C   UNL d   1     -39.805  15.922  17.533  0.00  0.00     0.019 C 
BRANCH  20  22
ATOM     22  C   UNL d   1     -40.935  15.076  17.474  0.00  0.00     0.018 C 
ATOM     23  C   UNL d   1     -41.402  15.597  17.026  0.00  0.00     0.002 C 
ENDBRANCH  20  22
ENDBRANCH   5  20
TORSDOF 2
ENDMDL
