MODEL 1
REMARK VINA RESULT:      41.8      0.000      0.000
REMARK  6 active torsions:
REMARK  status: ('A' for Active; 'I' for Inactive)
REMARK    1  A    between atoms: C_6  and  N_2 
REMARK    2  A    between atoms: C_7  and  C_6 
REMARK    3  A    between atoms: C_8  and  C_7 
REMARK       I    between atoms: N_13  and  C_8 
REMARK    4  A    between atoms: C_10  and  C_17 
REMARK    5  A    between atoms: C_14  and  N_13 
REMARK    6  A    between atoms: C_17  and  C_14 
ROOT
ATOM      1  C   UNL d   1     -50.317  26.757  33.971  0.00  0.00     0.082 C 
ENDROOT
BRANCH   1   2
ATOM      2  C   UNL d   1     -50.399  26.215  33.359  0.00  0.00     0.088 C 
BRANCH   2   3
ATOM      3  N   UNL d   1     -51.044  25.703  33.340  0.00  0.00    -0.268 N 
ATOM      4  C   UNL d   1     -51.836  25.920  33.319  0.00  0.00     0.296 A 
ATOM      5  S   UNL d   1     -52.289  25.192  33.306  0.00  0.00    -0.025 SA
ATOM      6  O   UNL d   1     -52.125  26.693  33.313  0.00  0.00    -0.259 OA
ATOM      7  C   UNL d   1     -51.775  24.588  33.318  0.00  0.00     0.050 A 
ATOM      8  C   UNL d   1     -51.911  23.770  33.313  0.00  0.00     0.008 A 
ATOM      9  C   UNL d   1     -51.003  24.878  33.340  0.00  0.00     0.073 A 
ATOM     10  C   UNL d   1     -51.271  23.242  33.329  0.00  0.00     0.001 A 
ATOM     11  C   UNL d   1     -50.502  23.543  33.350  0.00  0.00     0.002 A 
ATOM     12  C   UNL d   1     -50.371  24.360  33.356  0.00  0.00     0.018 A 
ENDBRANCH   2   3
ENDBRANCH   1   2
BRANCH   1  13
ATOM     13  C   UNL d   1     -49.635  27.215  34.036  0.00  0.00     0.281 C 
ATOM     14  O   UNL d   1     -49.144  27.316  33.380  0.00  0.00    -0.265 OA
ATOM     15  N   UNL d   1     -49.439  27.572  34.750  0.00  0.00    -0.206 NA
BRANCH  15  16
ATOM     16  C   UNL d   1     -48.761  28.027  34.813  0.00  0.00     0.102 C 
BRANCH  16  17
ATOM     17  C   UNL d   1     -48.629  28.487  35.482  0.00  0.00     0.021 C 
BRANCH  17  18
ATOM     18  C   UNL d   1     -48.070  29.092  35.471  0.00  0.00     0.002 A 
ATOM     19  C   UNL d   1     -48.324  29.887  35.438  0.00  0.00     0.000 A 
ATOM     20  C   UNL d   1     -47.759  30.494  35.428  0.00  0.00     0.000 A 
ATOM     21  C   UNL d   1     -46.958  30.317  35.449  0.00  0.00     0.000 A 
ATOM     22  C   UNL d   1     -46.710  29.527  35.481  0.00  0.00     0.000 A 
ATOM     23  C   UNL d   1     -47.253  28.909  35.492  0.00  0.00     0.000 A 
ENDBRANCH  17  18
ENDBRANCH  16  17
ENDBRANCH  15  16
ENDBRANCH   1  13
TORSDOF 6
ENDMDL
MODEL 2
REMARK VINA RESULT:      44.3      0.954      1.367
REMARK  6 active torsions:
REMARK  status: ('A' for Active; 'I' for Inactive)
REMARK    1  A    between atoms: C_6  and  N_2 
REMARK    2  A    between atoms: C_7  and  C_6 
REMARK    3  A    between atoms: C_8  and  C_7 
REMARK       I    between atoms: N_13  and  C_8 
REMARK    4  A    between atoms: C_10  and  C_17 
REMARK    5  A    between atoms: C_14  and  N_13 
REMARK    6  A    between atoms: C_17  and  C_14 
ROOT
ATOM      1  C   UNL d   1     -50.170  26.191  34.087  0.00  0.00     0.082 C 
ENDROOT
BRANCH   1   2
ATOM      2  C   UNL d   1     -50.613  25.938  33.443  0.00  0.00     0.088 C 
BRANCH   2   3
ATOM      3  N   UNL d   1     -50.866  25.156  33.394  0.00  0.00    -0.268 N 
ATOM      4  C   UNL d   1     -50.383  24.492  33.347  0.00  0.00     0.296 A 
ATOM      5  S   UNL d   1     -50.905  23.813  33.306  0.00  0.00    -0.025 SA
ATOM      6  O   UNL d   1     -49.558  24.494  33.341  0.00  0.00    -0.259 OA
ATOM      7  C   UNL d   1     -51.651  24.080  33.329  0.00  0.00     0.050 A 
ATOM      8  C   UNL d   1     -52.369  23.666  33.307  0.00  0.00     0.008 A 
ATOM      9  C   UNL d   1     -51.652  24.904  33.383  0.00  0.00     0.073 A 
ATOM     10  C   UNL d   1     -53.088  24.078  33.339  0.00  0.00     0.001 A 
ATOM     11  C   UNL d   1     -53.077  24.902  33.393  0.00  0.00     0.002 A 
ATOM     12  C   UNL d   1     -52.360  25.312  33.414  0.00  0.00     0.018 A 
ENDBRANCH   2   3
ENDBRANCH   1   2
BRANCH   1  13
ATOM     13  C   UNL d   1     -49.738  26.892  34.048  0.00  0.00     0.281 C 
ATOM     14  O   UNL d   1     -49.506  27.192  33.315  0.00  0.00    -0.265 OA
ATOM     15  N   UNL d   1     -49.537  27.297  34.735  0.00  0.00    -0.206 NA
BRANCH  15  16
ATOM     16  C   UNL d   1     -49.109  27.994  34.695  0.00  0.00     0.102 C 
BRANCH  16  17
ATOM     17  C   UNL d   1     -48.567  28.183  35.284  0.00  0.00     0.021 C 
BRANCH  17  18
ATOM     18  C   UNL d   1     -48.171  28.906  35.273  0.00  0.00     0.002 A 
ATOM     19  C   UNL d   1     -48.127  29.340  34.560  0.00  0.00     0.000 A 
ATOM     20  C   UNL d   1     -47.728  30.067  34.551  0.00  0.00     0.000 A 
ATOM     21  C   UNL d   1     -47.380  30.358  35.235  0.00  0.00     0.000 A 
ATOM     22  C   UNL d   1     -47.426  29.924  35.939  0.00  0.00     0.000 A 
ATOM     23  C   UNL d   1     -47.816  29.201  35.971  0.00  0.00     0.000 A 
ENDBRANCH  17  18
ENDBRANCH  16  17
ENDBRANCH  15  16
ENDBRANCH   1  13
TORSDOF 6
ENDMDL
