MODEL 1
REMARK VINA RESULT:      -7.9      0.000      0.000
REMARK  5 active torsions:
REMARK  status: ('A' for Active; 'I' for Inactive)
REMARK    1  A    between atoms: N_2  and  S_1 
REMARK    2  A    between atoms: C_4  and  S_1 
REMARK    3  A    between atoms: C_3  and  C_6 
REMARK    4  A    between atoms: C_12  and  N_5 
REMARK    5  A    between atoms: O_24  and  C_20 
ROOT
ATOM      1  N   UNL d   1     -49.166  14.638  22.899  0.00  0.00    -0.226 N 
ATOM      2  N   UNL d   1     -47.622  14.111  22.675  0.00  0.00    -0.301 N 
ATOM      3  C   UNL d   1     -48.787  14.760  22.174  0.00  0.00     0.111 A 
ATOM      4  C   UNL d   1     -48.764  14.247  23.516  0.00  0.00     0.111 A 
ATOM      5  C   UNL d   1     -47.990  13.985  23.398  0.00  0.00     0.100 A 
ATOM      6  C   UNL d   1     -48.021  14.497  22.068  0.00  0.00     0.100 A 
ENDROOT
BRANCH   1   7
ATOM      7  S   UNL d   1     -49.928  14.895  23.015  0.00  0.00     0.271 S 
ATOM      8  O   UNL d   1     -50.701  15.157  23.134  0.00  0.00    -0.200 OA
ATOM      9  O   UNL d   1     -49.648  15.567  23.388  0.00  0.00    -0.200 OA
BRANCH   7  10
ATOM     10  C   UNL d   1     -50.214  14.219  22.640  0.00  0.00     0.104 A 
ATOM     11  C   UNL d   1     -50.234  13.494  23.038  0.00  0.00     0.017 A 
ATOM     12  C   UNL d   1     -50.520  12.818  22.663  0.00  0.00     0.072 A 
ATOM     13  C   UNL d   1     -50.789  12.859  21.886  0.00  0.00     0.004 A 
ATOM     14  C   UNL d   1     -50.774  13.582  21.478  0.00  0.00     0.001 A 
ATOM     15  C   UNL d   1     -50.485  14.265  21.856  0.00  0.00     0.013 A 
BRANCH  12  16
ATOM     16  C   UNL d   1     -50.537  12.098  23.065  0.00  0.00     0.419 C 
ATOM     17  F   UNL d   1     -51.064  11.844  23.690  0.00  0.00    -0.166 F 
ATOM     18  F   UNL d   1     -50.032  11.408  22.967  0.00  0.00    -0.166 F 
ATOM     19  F   UNL d   1     -50.555  11.442  23.434  0.00  0.00    -0.166 F 
ENDBRANCH  12  16
ENDBRANCH   7  10
ENDBRANCH   1   7
BRANCH   2  20
ATOM     20  C   UNL d   1     -46.850  13.850  22.557  0.00  0.00     0.064 A 
ATOM     21  C   UNL d   1     -46.707  13.070  22.334  0.00  0.00     0.020 A 
ATOM     22  C   UNL d   1     -45.934  12.808  22.216  0.00  0.00     0.026 A 
ATOM     23  C   UNL d   1     -45.303  13.327  22.320  0.00  0.00     0.094 A 
ATOM     24  C   UNL d   1     -45.451  14.113  22.545  0.00  0.00     0.026 A 
ATOM     25  C   UNL d   1     -46.226  14.370  22.662  0.00  0.00     0.020 A 
BRANCH  23  26
ATOM     26  O   UNL d   1     -44.528  13.069  22.203  0.00  0.00    -0.328 OA
ATOM     27  C   UNL d   1     -44.257  12.901  21.436  0.00  0.00     0.181 C 
ENDBRANCH  23  26
ENDBRANCH   2  20
TORSDOF 5
ENDMDL
MODEL 2
REMARK VINA RESULT:      -7.9      1.645      2.121
REMARK  5 active torsions:
REMARK  status: ('A' for Active; 'I' for Inactive)
REMARK    1  A    between atoms: N_2  and  S_1 
REMARK    2  A    between atoms: C_4  and  S_1 
REMARK    3  A    between atoms: C_3  and  C_6 
REMARK    4  A    between atoms: C_12  and  N_5 
REMARK    5  A    between atoms: O_24  and  C_20 
ROOT
ATOM      1  N   UNL d   1     -48.010  14.243  22.597  0.00  0.00    -0.226 N 
ATOM      2  N   UNL d   1     -47.085  12.927  22.948  0.00  0.00    -0.301 N 
ATOM      3  C   UNL d   1     -47.811  14.073  23.382  0.00  0.00     0.111 A 
ATOM      4  C   UNL d   1     -47.741  13.746  21.984  0.00  0.00     0.111 A 
ATOM      5  C   UNL d   1     -47.277  13.088  22.166  0.00  0.00     0.100 A 
ATOM      6  C   UNL d   1     -47.352  13.419  23.550  0.00  0.00     0.100 A 
ENDROOT
BRANCH   1   7
ATOM      7  S   UNL d   1     -48.466  14.891  22.418  0.00  0.00     0.271 S 
ATOM      8  O   UNL d   1     -48.930  15.549  22.236  0.00  0.00    -0.200 OA
ATOM      9  O   UNL d   1     -47.798  15.307  22.200  0.00  0.00    -0.200 OA
BRANCH   7  10
ATOM     10  C   UNL d   1     -49.144  14.475  22.637  0.00  0.00     0.104 A 
ATOM     11  C   UNL d   1     -49.544  14.005  22.087  0.00  0.00     0.017 A 
ATOM     12  C   UNL d   1     -50.222  13.588  22.307  0.00  0.00     0.072 A 
ATOM     13  C   UNL d   1     -50.506  13.638  23.078  0.00  0.00     0.004 A 
ATOM     14  C   UNL d   1     -50.110  14.108  23.638  0.00  0.00     0.001 A 
ATOM     15  C   UNL d   1     -49.426  14.528  23.416  0.00  0.00     0.013 A 
BRANCH  12  16
ATOM     16  C   UNL d   1     -50.617  13.121  21.754  0.00  0.00     0.419 C 
ATOM     17  F   UNL d   1     -51.064  13.365  21.065  0.00  0.00    -0.166 F 
ATOM     18  F   UNL d   1     -50.688  12.264  21.718  0.00  0.00    -0.166 F 
ATOM     19  F   UNL d   1     -50.979  12.697  21.247  0.00  0.00    -0.166 F 
ENDBRANCH  12  16
ENDBRANCH   7  10
ENDBRANCH   1   7
BRANCH   2  20
ATOM     20  C   UNL d   1     -46.622  12.270  23.130  0.00  0.00     0.064 A 
ATOM     21  C   UNL d   1     -45.823  12.260  22.930  0.00  0.00     0.020 A 
ATOM     22  C   UNL d   1     -45.360  11.602  23.112  0.00  0.00     0.026 A 
ATOM     23  C   UNL d   1     -45.696  10.954  23.495  0.00  0.00     0.094 A 
ATOM     24  C   UNL d   1     -46.501  10.969  23.695  0.00  0.00     0.026 A 
ATOM     25  C   UNL d   1     -46.961  11.629  23.511  0.00  0.00     0.020 A 
BRANCH  23  26
ATOM     26  O   UNL d   1     -45.235  10.295  23.678  0.00  0.00    -0.328 OA
ATOM     27  C   UNL d   1     -44.407  10.357  23.698  0.00  0.00     0.181 C 
ENDBRANCH  23  26
ENDBRANCH   2  20
TORSDOF 5
ENDMDL
MODEL 3
REMARK VINA RESULT:      -7.1      9.531     10.673
REMARK  5 active torsions:
REMARK  status: ('A' for Active; 'I' for Inactive)
REMARK    1  A    between atoms: N_2  and  S_1 
REMARK    2  A    between atoms: C_4  and  S_1 
REMARK    3  A    between atoms: C_3  and  C_6 
REMARK    4  A    between atoms: C_12  and  N_5 
REMARK    5  A    between atoms: O_24  and  C_20 
ROOT
ATOM      1  N   UNL d   1     -40.426  15.061  17.857  0.00  0.00    -0.226 N 
ATOM      2  N   UNL d   1     -39.996  14.630  19.386  0.00  0.00    -0.301 N 
ATOM      3  C   UNL d   1     -40.176  15.637  18.394  0.00  0.00     0.111 A 
ATOM      4  C   UNL d   1     -40.461  14.261  18.091  0.00  0.00     0.111 A 
ATOM      5  C   UNL d   1     -40.244  14.052  18.859  0.00  0.00     0.100 A 
ATOM      6  C   UNL d   1     -39.963  15.418  19.152  0.00  0.00     0.100 A 
ENDROOT
BRANCH   1   7
ATOM      7  S   UNL d   1     -40.640  15.267  17.100  0.00  0.00     0.271 S 
ATOM      8  O   UNL d   1     -40.857  15.476  16.332  0.00  0.00    -0.200 OA
ATOM      9  O   UNL d   1     -41.426  15.285  17.323  0.00  0.00    -0.200 OA
BRANCH   7  10
ATOM     10  C   UNL d   1     -39.848  15.250  16.871  0.00  0.00     0.104 A 
ATOM     11  C   UNL d   1     -39.523  14.570  16.531  0.00  0.00     0.017 A 
ATOM     12  C   UNL d   1     -38.731  14.553  16.303  0.00  0.00     0.072 A 
ATOM     13  C   UNL d   1     -38.255  15.216  16.412  0.00  0.00     0.004 A 
ATOM     14  C   UNL d   1     -38.572  15.905  16.753  0.00  0.00     0.001 A 
ATOM     15  C   UNL d   1     -39.372  15.922  16.984  0.00  0.00     0.013 A 
BRANCH  12  16
ATOM     16  C   UNL d   1     -38.413  13.873  15.964  0.00  0.00     0.419 C 
ATOM     17  F   UNL d   1     -38.422  13.625  15.143  0.00  0.00    -0.166 F 
ATOM     18  F   UNL d   1     -37.986  13.226  16.340  0.00  0.00    -0.166 F 
ATOM     19  F   UNL d   1     -38.123  13.251  15.652  0.00  0.00    -0.166 F 
ENDBRANCH  12  16
ENDBRANCH   7  10
ENDBRANCH   1   7
BRANCH   2  20
ATOM     20  C   UNL d   1     -39.779  14.421  20.153  0.00  0.00     0.064 A 
ATOM     21  C   UNL d   1     -39.015  14.155  20.308  0.00  0.00     0.020 A 
ATOM     22  C   UNL d   1     -38.798  13.945  21.076  0.00  0.00     0.026 A 
ATOM     23  C   UNL d   1     -39.345  14.003  21.689  0.00  0.00     0.094 A 
ATOM     24  C   UNL d   1     -40.113  14.272  21.528  0.00  0.00     0.026 A 
ATOM     25  C   UNL d   1     -40.327  14.480  20.759  0.00  0.00     0.020 A 
BRANCH  23  26
ATOM     26  O   UNL d   1     -39.131  13.794  22.458  0.00  0.00    -0.328 OA
ATOM     27  C   UNL d   1     -38.425  13.379  22.596  0.00  0.00     0.181 C 
ENDBRANCH  23  26
ENDBRANCH   2  20
TORSDOF 5
ENDMDL
MODEL 4
REMARK VINA RESULT:      -6.4      8.955     10.126
REMARK  5 active torsions:
REMARK  status: ('A' for Active; 'I' for Inactive)
REMARK    1  A    between atoms: N_2  and  S_1 
REMARK    2  A    between atoms: C_4  and  S_1 
REMARK    3  A    between atoms: C_3  and  C_6 
REMARK    4  A    between atoms: C_12  and  N_5 
REMARK    5  A    between atoms: O_24  and  C_20 
ROOT
ATOM      1  N   UNL d   1     -40.270  15.273  19.774  0.00  0.00    -0.226 N 
ATOM      2  N   UNL d   1     -39.534  14.667  18.432  0.00  0.00    -0.301 N 
ATOM      3  C   UNL d   1     -40.424  14.498  19.532  0.00  0.00     0.111 A 
ATOM      4  C   UNL d   1     -39.742  15.748  19.337  0.00  0.00     0.111 A 
ATOM      5  C   UNL d   1     -39.376  15.438  18.666  0.00  0.00     0.100 A 
ATOM      6  C   UNL d   1     -40.056  14.202  18.865  0.00  0.00     0.100 A 
ENDROOT
BRANCH   1   7
ATOM      7  S   UNL d   1     -40.631  15.578  20.436  0.00  0.00     0.271 S 
ATOM      8  O   UNL d   1     -40.997  15.887  21.108  0.00  0.00    -0.200 OA
ATOM      9  O   UNL d   1     -41.289  15.772  19.993  0.00  0.00    -0.200 OA
BRANCH   7  10
ATOM     10  C   UNL d   1     -39.968  15.383  20.887  0.00  0.00     0.104 A 
ATOM     11  C   UNL d   1     -39.925  14.657  21.280  0.00  0.00     0.017 A 
ATOM     12  C   UNL d   1     -39.262  14.463  21.730  0.00  0.00     0.072 A 
ATOM     13  C   UNL d   1     -38.635  14.992  21.793  0.00  0.00     0.004 A 
ATOM     14  C   UNL d   1     -38.668  15.725  21.402  0.00  0.00     0.001 A 
ATOM     15  C   UNL d   1     -39.338  15.921  20.946  0.00  0.00     0.013 A 
BRANCH  12  16
ATOM     16  C   UNL d   1     -39.226  13.737  22.119  0.00  0.00     0.419 C 
ATOM     17  F   UNL d   1     -38.800  13.028  21.896  0.00  0.00    -0.166 F 
ATOM     18  F   UNL d   1     -39.604  13.494  22.854  0.00  0.00    -0.166 F 
ATOM     19  F   UNL d   1     -39.190  13.072  22.473  0.00  0.00    -0.166 F 
ENDBRANCH  12  16
ENDBRANCH   7  10
ENDBRANCH   1   7
BRANCH   2  20
ATOM     20  C   UNL d   1     -39.169  14.358  17.761  0.00  0.00     0.064 A 
ATOM     21  C   UNL d   1     -38.868  13.591  17.771  0.00  0.00     0.020 A 
ATOM     22  C   UNL d   1     -38.503  13.282  17.100  0.00  0.00     0.026 A 
ATOM     23  C   UNL d   1     -38.438  13.739  16.418  0.00  0.00     0.094 A 
ATOM     24  C   UNL d   1     -38.742  14.512  16.413  0.00  0.00     0.026 A 
ATOM     25  C   UNL d   1     -39.107  14.818  17.086  0.00  0.00     0.020 A 
BRANCH  23  26
ATOM     26  O   UNL d   1     -38.072  13.434  15.745  0.00  0.00    -0.328 OA
ATOM     27  C   UNL d   1     -38.066  13.872  15.039  0.00  0.00     0.181 C 
ENDBRANCH  23  26
ENDBRANCH   2  20
TORSDOF 5
ENDMDL
MODEL 5
REMARK VINA RESULT:      -5.9      8.016      9.876
REMARK  5 active torsions:
REMARK  status: ('A' for Active; 'I' for Inactive)
REMARK    1  A    between atoms: N_2  and  S_1 
REMARK    2  A    between atoms: C_4  and  S_1 
REMARK    3  A    between atoms: C_3  and  C_6 
REMARK    4  A    between atoms: C_12  and  N_5 
REMARK    5  A    between atoms: O_24  and  C_20 
ROOT
ATOM      1  N   UNL d   1     -38.942  14.852  20.359  0.00  0.00    -0.226 N 
ATOM      2  N   UNL d   1     -38.753  14.694  18.731  0.00  0.00    -0.301 N 
ATOM      3  C   UNL d   1     -38.930  15.523  19.876  0.00  0.00     0.111 A 
ATOM      4  C   UNL d   1     -38.857  14.095  20.020  0.00  0.00     0.111 A 
ATOM      5  C   UNL d   1     -38.763  14.023  19.203  0.00  0.00     0.100 A 
ATOM      6  C   UNL d   1     -38.836  15.439  19.069  0.00  0.00     0.100 A 
ENDROOT
BRANCH   1   7
ATOM      7  S   UNL d   1     -39.035  14.924  21.163  0.00  0.00     0.271 S 
ATOM      8  O   UNL d   1     -39.129  14.996  21.980  0.00  0.00    -0.200 OA
ATOM      9  O   UNL d   1     -38.233  14.811  21.270  0.00  0.00    -0.200 OA
BRANCH   7  10
ATOM     10  C   UNL d   1     -39.845  15.038  21.060  0.00  0.00     0.104 A 
ATOM     11  C   UNL d   1     -40.362  14.393  21.050  0.00  0.00     0.017 A 
ATOM     12  C   UNL d   1     -41.173  14.507  20.946  0.00  0.00     0.072 A 
ATOM     13  C   UNL d   1     -41.474  15.267  20.851  0.00  0.00     0.004 A 
ATOM     14  C   UNL d   1     -40.962  15.922  20.859  0.00  0.00     0.001 A 
ATOM     15  C   UNL d   1     -40.144  15.807  20.964  0.00  0.00     0.013 A 
BRANCH  12  16
ATOM     16  C   UNL d   1     -41.683  13.860  20.937  0.00  0.00     0.419 C 
ATOM     17  F   UNL d   1     -42.191  13.567  21.563  0.00  0.00    -0.166 F 
ATOM     18  F   UNL d   1     -41.846  13.304  20.301  0.00  0.00    -0.166 F 
ATOM     19  F   UNL d   1     -42.151  13.269  20.932  0.00  0.00    -0.166 F 
ENDBRANCH  12  16
ENDBRANCH   7  10
ENDBRANCH   1   7
BRANCH   2  20
ATOM     20  C   UNL d   1     -38.659  14.622  17.916  0.00  0.00     0.064 A 
ATOM     21  C   UNL d   1     -39.188  14.167  17.478  0.00  0.00     0.020 A 
ATOM     22  C   UNL d   1     -39.093  14.094  16.662  0.00  0.00     0.026 A 
ATOM     23  C   UNL d   1     -38.470  14.477  16.283  0.00  0.00     0.094 A 
ATOM     24  C   UNL d   1     -37.940  14.935  16.728  0.00  0.00     0.026 A 
ATOM     25  C   UNL d   1     -38.037  15.005  17.544  0.00  0.00     0.020 A 
BRANCH  23  26
ATOM     26  O   UNL d   1     -38.372  14.407  15.467  0.00  0.00    -0.328 OA
ATOM     27  C   UNL d   1     -38.030  13.721  15.146  0.00  0.00     0.181 C 
ENDBRANCH  23  26
ENDBRANCH   2  20
TORSDOF 5
ENDMDL
