MODEL 1
REMARK VINA RESULT:      51.4      0.000      0.000
REMARK  3 active torsions:
REMARK  status: ('A' for Active; 'I' for Inactive)
REMARK    1  A    between atoms: C_6  and  N_1 
REMARK    2  A    between atoms: C_2  and  C_8 
REMARK    3  A    between atoms: N_3  and  C_2 
REMARK       I    between atoms: C_5  and  N_4 
ROOT
ATOM      1  C   UNL d   1     -51.496  26.769  33.495  0.00  0.00     0.120 C 
ATOM      2  S   UNL d   1     -51.920  27.452  33.306  0.00  0.00    -0.059 SA
ENDROOT
BRANCH   1   3
ATOM      3  C   UNL d   1     -51.874  26.038  33.497  0.00  0.00     0.027 A 
ATOM      4  C   UNL d   1     -51.449  25.354  33.676  0.00  0.00     0.004 A 
ATOM      5  C   UNL d   1     -51.829  24.619  33.677  0.00  0.00     0.024 A 
ATOM      6  C   UNL d   1     -52.633  24.572  33.500  0.00  0.00     0.127 A 
ATOM      7  C   UNL d   1     -53.058  25.256  33.320  0.00  0.00     0.024 A 
ATOM      8  C   UNL d   1     -52.680  25.987  33.318  0.00  0.00     0.004 A 
BRANCH   6   9
ATOM      9  N   UNL d   1     -53.010  23.839  33.502  0.00  0.00    -0.114 N 
ATOM     10  O   UNL d   1     -52.546  23.189  33.714  0.00  0.00    -0.532 OA
ATOM     11  O   UNL d   1     -53.808  23.730  33.306  0.00  0.00    -0.532 OA
ENDBRANCH   6   9
ENDBRANCH   1   3
BRANCH   1  12
ATOM     12  N   UNL d   1     -50.696  26.818  33.681  0.00  0.00    -0.293 N 
ATOM     13  C   UNL d   1     -50.147  26.320  33.306  0.00  0.00     0.100 A 
ATOM     14  C   UNL d   1     -49.348  26.370  33.492  0.00  0.00     0.102 A 
ATOM     15  N   UNL d   1     -49.087  26.916  34.053  0.00  0.00    -0.269 N 
ATOM     16  C   UNL d   1     -49.634  27.414  34.429  0.00  0.00     0.102 A 
ATOM     17  C   UNL d   1     -48.287  26.966  34.240  0.00  0.00     0.265 C 
ATOM     18  C   UNL d   1     -50.435  27.364  34.242  0.00  0.00     0.100 A 
ATOM     19  O   UNL d   1     -48.026  27.512  34.801  0.00  0.00    -0.267 OA
ATOM     20  C   UNL d   1     -47.741  26.471  33.867  0.00  0.00     0.066 C 
ENDBRANCH   1  12
TORSDOF 3
ENDMDL
