MODEL 1
REMARK VINA RESULT:      16.3      0.000      0.000
REMARK  7 active torsions:
REMARK  status: ('A' for Active; 'I' for Inactive)
REMARK    1  A    between atoms: C_6  and  C_1 
REMARK    2  A    between atoms: C_7  and  C_3 
REMARK    3  A    between atoms: O_14  and  C_6 
REMARK    4  A    between atoms: C_8  and  C_7 
REMARK    5  A    between atoms: S_10  and  C_8 
REMARK    6  A    between atoms: C_13  and  S_10 
REMARK    7  A    between atoms: C_22  and  O_14 
ROOT
ATOM      1  C   UNL d   1      45.039 -14.117  44.328  0.00  0.00     0.083 A 
ATOM      2  C   UNL d   1      45.691 -14.619  44.336  0.00  0.00     0.028 A 
ATOM      3  C   UNL d   1      45.424 -15.352  44.466  0.00  0.00     0.121 A 
ATOM      4  N   UNL d   1      44.599 -15.324  44.542  0.00  0.00    -0.242 NA
ATOM      5  C   UNL d   1      44.399 -14.566  44.453  0.00  0.00     0.087 A 
ATOM      6  C   UNL d   1      46.455 -14.363  44.226  0.00  0.00     0.002 C 
ATOM      7  C   UNL d   1      43.607 -14.238  44.483  0.00  0.00     0.021 C 
ENDROOT
BRANCH   3   8
ATOM      8  C   UNL d   1      45.969 -15.983  44.504  0.00  0.00     0.220 C 
ATOM      9  O   UNL d   1      46.644 -15.921  44.943  0.00  0.00    -0.284 OA
BRANCH   8  10
ATOM     10  C   UNL d   1      45.811 -16.681  44.084  0.00  0.00     0.079 C 
BRANCH  10  11
ATOM     11  S   UNL d   1      46.416 -17.177  43.870  0.00  0.00    -0.083 SA
BRANCH  11  12
ATOM     12  C   UNL d   1      46.229 -17.947  43.591  0.00  0.00     0.030 A 
ATOM     13  C   UNL d   1      46.138 -18.573  44.128  0.00  0.00     0.007 A 
ATOM     14  C   UNL d   1      45.960 -19.301  43.841  0.00  0.00     0.012 A 
ATOM     15  C   UNL d   1      45.863 -19.454  43.035  0.00  0.00     0.058 A 
ATOM     16  C   UNL d   1      45.955 -18.842  42.535  0.00  0.00     0.012 A 
ATOM     17 CL   UNL d   1      45.678 -20.204  42.718  0.00  0.00    -0.082 Cl
ATOM     18  C   UNL d   1      46.135 -18.089  42.784  0.00  0.00     0.007 A 
ENDBRANCH  11  12
ENDBRANCH  10  11
ENDBRANCH   8  10
ENDBRANCH   3   8
BRANCH   1  19
ATOM     19  C   UNL d   1      45.062 -13.282  44.206  0.00  0.00     0.302 C 
ATOM     20  O   UNL d   1      44.871 -12.766  44.841  0.00  0.00    -0.259 OA
BRANCH  19  21
ATOM     21  O   UNL d   1      45.269 -12.949  43.469  0.00  0.00    -0.271 OA
BRANCH  21  22
ATOM     22  C   UNL d   1      44.960 -12.204  43.281  0.00  0.00     0.126 C 
ATOM     23  C   UNL d   1      44.411 -12.121  42.647  0.00  0.00     0.029 C 
ENDBRANCH  21  22
ENDBRANCH  19  21
ENDBRANCH   1  19
TORSDOF 7
ENDMDL
