MODEL 1
REMARK VINA RESULT:       2.6      0.000      0.000
REMARK  2 active torsions:
REMARK  status: ('A' for Active; 'I' for Inactive)
REMARK    1  A    between atoms: C_11  and  C_1 
REMARK    2  A    between atoms: C_13  and  C_11 
ROOT
ATOM      1  C   UNL d   1     -54.753-102.279 -36.979  0.00  0.00     0.058 A 
ATOM      2  C   UNL d   1     -54.729-101.112 -36.291  0.00  0.00    -0.008 A 
ATOM      3  C   UNL d   1     -54.728-101.336 -35.862  0.00  0.00    -0.008 A 
ATOM      4  C   UNL d   1     -54.743-102.587 -35.666  0.00  0.00     0.045 A 
ATOM      5  C   UNL d   1     -54.740-101.637 -36.555  0.00  0.00    -0.019 A 
ATOM      6  C   UNL d   1     -54.742-101.410 -37.045  0.00  0.00    -0.019 A 
ATOM      7  C   UNL d   1     -54.755-102.879 -36.413  0.00  0.00     0.021 A 
ATOM      8  C   UNL d   1     -54.715-100.395 -35.866  0.00  0.00    -0.001 A 
ATOM      9  C   UNL d   1     -54.729-101.906 -35.319  0.00  0.00    -0.022 A 
ATOM     10  C   UNL d   1     -54.731-101.725 -35.712  0.00  0.00    -0.022 A 
ENDROOT
BRANCH   1  11
ATOM     11  C   UNL d   1     -54.768-102.873 -37.553  0.00  0.00     0.004 C 
BRANCH  11  12
ATOM     12  C   UNL d   1     -55.209-102.757 -38.240  0.00  0.00     0.118 C 
ATOM     13  N   UNL d   1     -54.852-102.866 -38.982  0.00  0.00    -0.147 N 
ENDBRANCH  11  12
ENDBRANCH   1  11
TORSDOF 2
ENDMDL
