MODEL 1
REMARK VINA RESULT:      25.0      0.000      0.000
REMARK  6 active torsions:
REMARK  status: ('A' for Active; 'I' for Inactive)
REMARK    1  A    between atoms: C_6  and  N_1 
REMARK    2  A    between atoms: S_7  and  C_2 
REMARK    3  A    between atoms: C_12  and  S_7 
REMARK    4  A    between atoms: C_8  and  O_9 
REMARK    5  A    between atoms: O_9  and  C_13 
REMARK    6  A    between atoms: C_13  and  C_12 
ROOT
ATOM      1  N   UNL d   1      15.400  12.904  -0.914  0.00  0.00    -0.186 N 
ATOM      2  C   UNL d   1      15.021  12.412  -1.436  0.00  0.00     0.219 A 
ATOM      3  N   UNL d   1      15.551  11.784  -1.626  0.00  0.00    -0.101 NA
ATOM      4  N   UNL d   1      16.241  11.895  -1.224  0.00  0.00    -0.022 NA
ATOM      5  N   UNL d   1      16.168  12.584  -0.777  0.00  0.00    -0.038 NA
ENDROOT
BRANCH   2   6
ATOM      6  S   UNL d   1      14.229  12.509  -1.740  0.00  0.00    -0.044 SA
BRANCH   6   7
ATOM      7  C   UNL d   1      13.912  11.933  -2.237  0.00  0.00     0.065 C 
BRANCH   7   8
ATOM      8  C   UNL d   1      13.194  12.081  -2.644  0.00  0.00     0.130 C 
BRANCH   8   9
ATOM      9  O   UNL d   1      13.089  11.788  -3.403  0.00  0.00    -0.305 OA
BRANCH   9  10
ATOM     10  C   UNL d   1      13.097  12.292  -4.067  0.00  0.00     0.100 A 
ATOM     11  C   UNL d   1      13.217  11.960  -4.825  0.00  0.00     0.025 A 
ATOM     12  C   UNL d   1      13.228  12.443  -5.494  0.00  0.00     0.002 A 
ATOM     13  C   UNL d   1      13.120  13.253  -5.417  0.00  0.00     0.000 A 
ATOM     14  C   UNL d   1      13.000  13.588  -4.676  0.00  0.00     0.002 A 
ATOM     15  C   UNL d   1      12.988  13.108  -3.991  0.00  0.00     0.025 A 
ENDBRANCH   9  10
ENDBRANCH   8   9
ENDBRANCH   7   8
ENDBRANCH   6   7
ENDBRANCH   2   6
BRANCH   1  16
ATOM     16  C   UNL d   1      15.005  13.586  -0.623  0.00  0.00     0.087 A 
ATOM     17  C   UNL d   1      15.436  14.325  -0.563  0.00  0.00     0.019 A 
ATOM     18  C   UNL d   1      15.031  14.984  -0.276  0.00  0.00     0.002 A 
ATOM     19  C   UNL d   1      14.223  14.934  -0.049  0.00  0.00     0.000 A 
ATOM     20  C   UNL d   1      13.829  14.219  -0.114  0.00  0.00     0.002 A 
ATOM     21  C   UNL d   1      14.217  13.549  -0.399  0.00  0.00     0.019 A 
ENDBRANCH   1  16
TORSDOF 6
ENDMDL
