MODEL 1
REMARK VINA RESULT:      14.0      0.000      0.000
REMARK  4 active torsions:
REMARK  status: ('A' for Active; 'I' for Inactive)
REMARK    1  A    between atoms: C_11  and  N_2 
REMARK    2  A    between atoms: C_12  and  C_6 
REMARK    3  A    between atoms: C_15  and  C_11 
REMARK    4  A    between atoms: O_29  and  C_24 
ROOT
ATOM      1  C   UNL d   1     -41.680-122.383 -50.784  0.00  0.00     0.137 A 
ATOM      2  N   UNL d   1     -41.418-121.671 -51.992  0.00  0.00    -0.256 N 
ATOM      3  C   UNL d   1     -41.757-121.667 -50.375  0.00  0.00     0.192 A 
ATOM      4  C   UNL d   1     -41.511-122.385 -51.592  0.00  0.00     0.272 A 
ATOM      5  N   UNL d   1     -41.665-120.956 -50.772  0.00  0.00    -0.204 NA
ATOM      6  C   UNL d   1     -41.494-120.954 -51.587  0.00  0.00     0.152 A 
ATOM      7  C   UNL d   1     -41.774-123.098 -50.380  0.00  0.00     0.205 A 
ATOM      8  C   UNL d   1     -41.941-123.099 -49.583  0.00  0.00     0.062 A 
ATOM      9  O   UNL d   1     -41.926-121.672 -49.571  0.00  0.00    -0.289 OA
ATOM     10  C   UNL d   1     -42.018-122.388 -49.173  0.00  0.00     0.107 A 
ATOM     11  C   UNL d   1     -42.189-122.391 -48.359  0.00  0.00     0.049 A 
ATOM     12  C   UNL d   1     -42.034-123.817 -49.182  0.00  0.00     0.007 A 
ATOM     13  O   UNL d   1     -41.435-123.099 -51.994  0.00  0.00    -0.266 OA
ATOM     14  O   UNL d   1     -41.697-123.807 -50.790  0.00  0.00    -0.286 OA
ATOM     15  C   UNL d   1     -42.281-123.105 -47.964  0.00  0.00     0.096 A 
ATOM     16  C   UNL d   1     -42.204-123.815 -48.374  0.00  0.00     0.024 A 
ENDROOT
BRANCH   6  17
ATOM     17  C   UNL d   1     -41.401-120.237 -51.984  0.00  0.00     0.035 A 
ATOM     18  C   UNL d   1     -41.469-120.210 -52.804  0.00  0.00     0.003 A 
ATOM     19  C   UNL d   1     -41.375-119.489 -53.189  0.00  0.00     0.000 A 
ATOM     20  C   UNL d   1     -41.216-118.803 -52.766  0.00  0.00     0.000 A 
ATOM     21  C   UNL d   1     -41.149-118.838 -51.942  0.00  0.00     0.000 A 
ATOM     22  C   UNL d   1     -41.123-118.086 -53.159  0.00  0.00     0.000 C 
ATOM     23  C   UNL d   1     -41.242-119.555 -51.549  0.00  0.00     0.003 A 
ENDBRANCH   6  17
BRANCH   2  24
ATOM     24  C   UNL d   1     -41.249-121.674 -52.799  0.00  0.00     0.109 C 
BRANCH  24  25
ATOM     25  C   UNL d   1     -41.750-122.076 -53.334  0.00  0.00     0.118 A 
ATOM     26  O   UNL d   1     -42.566-122.158 -53.262  0.00  0.00    -0.304 OA
ATOM     27  C   UNL d   1     -42.837-122.595 -53.916  0.00  0.00     0.123 A 
ATOM     28  C   UNL d   1     -42.178-122.783 -54.393  0.00  0.00     0.029 A 
ATOM     29  C   UNL d   1     -41.500-122.457 -54.027  0.00  0.00     0.028 A 
ENDBRANCH  24  25
ENDBRANCH   2  24
BRANCH  15  30
ATOM     30  O   UNL d   1     -42.449-123.118 -47.164  0.00  0.00    -0.328 OA
ATOM     31  C   UNL d   1     -43.070-123.580 -46.887  0.00  0.00     0.181 C 
ENDBRANCH  15  30
TORSDOF 4
ENDMDL
MODEL 2
REMARK VINA RESULT:      16.3      1.399      4.939
REMARK  4 active torsions:
REMARK  status: ('A' for Active; 'I' for Inactive)
REMARK    1  A    between atoms: C_11  and  N_2 
REMARK    2  A    between atoms: C_12  and  C_6 
REMARK    3  A    between atoms: C_15  and  C_11 
REMARK    4  A    between atoms: O_29  and  C_24 
ROOT
ATOM      1  C   UNL d   1     -41.829-121.871 -53.007  0.00  0.00     0.137 A 
ATOM      2  N   UNL d   1     -41.545-121.674 -51.623  0.00  0.00    -0.256 N 
ATOM      3  C   UNL d   1     -42.114-122.630 -52.844  0.00  0.00     0.192 A 
ATOM      4  C   UNL d   1     -41.544-121.392 -52.397  0.00  0.00     0.272 A 
ATOM      5  N   UNL d   1     -42.116-122.911 -52.074  0.00  0.00    -0.204 NA
ATOM      6  C   UNL d   1     -41.830-122.432 -51.456  0.00  0.00     0.152 A 
ATOM      7  C   UNL d   1     -41.828-121.591 -53.784  0.00  0.00     0.205 A 
ATOM      8  C   UNL d   1     -42.108-122.060 -54.388  0.00  0.00     0.062 A 
ATOM      9  O   UNL d   1     -42.396-123.100 -53.455  0.00  0.00    -0.289 OA
ATOM     10  C   UNL d   1     -42.393-122.816 -54.230  0.00  0.00     0.107 A 
ATOM     11  C   UNL d   1     -42.679-123.295 -54.848  0.00  0.00     0.049 A 
ATOM     12  C   UNL d   1     -42.107-121.776 -55.167  0.00  0.00     0.007 A 
ATOM     13  O   UNL d   1     -41.261-120.638 -52.564  0.00  0.00    -0.266 OA
ATOM     14  O   UNL d   1     -41.544-120.835 -53.943  0.00  0.00    -0.286 OA
ATOM     15  C   UNL d   1     -42.676-123.010 -55.618  0.00  0.00     0.096 A 
ATOM     16  C   UNL d   1     -42.391-122.254 -55.777  0.00  0.00     0.024 A 
ENDROOT
BRANCH   6  17
ATOM     17  C   UNL d   1     -41.833-122.717 -50.682  0.00  0.00     0.035 A 
ATOM     18  C   UNL d   1     -41.162-123.083 -50.376  0.00  0.00     0.003 A 
ATOM     19  C   UNL d   1     -41.177-123.363 -49.603  0.00  0.00     0.000 A 
ATOM     20  C   UNL d   1     -41.849-123.281 -49.138  0.00  0.00     0.000 A 
ATOM     21  C   UNL d   1     -42.520-122.912 -49.452  0.00  0.00     0.000 A 
ATOM     22  C   UNL d   1     -41.855-123.564 -48.365  0.00  0.00     0.000 C 
ATOM     23  C   UNL d   1     -42.513-122.629 -50.224  0.00  0.00     0.003 A 
ENDBRANCH   6  17
BRANCH   2  24
ATOM     24  C   UNL d   1     -41.261-121.196 -51.014  0.00  0.00     0.109 C 
BRANCH  24  25
ATOM     25  C   UNL d   1     -41.244-120.364 -51.103  0.00  0.00     0.118 A 
ATOM     26  O   UNL d   1     -41.186-119.815 -50.492  0.00  0.00    -0.304 OA
ATOM     27  C   UNL d   1     -41.188-119.055 -50.832  0.00  0.00     0.123 A 
ATOM     28  C   UNL d   1     -41.247-119.142 -51.661  0.00  0.00     0.029 A 
ATOM     29  C   UNL d   1     -41.282-119.962 -51.827  0.00  0.00     0.028 A 
ENDBRANCH  24  25
ENDBRANCH   2  24
BRANCH  15  30
ATOM     30  O   UNL d   1     -42.955-123.473 -56.231  0.00  0.00    -0.328 OA
ATOM     31  C   UNL d   1     -43.711-123.793 -56.186  0.00  0.00     0.181 C 
ENDBRANCH  15  30
TORSDOF 4
ENDMDL
