MODEL 1
REMARK VINA RESULT:      -4.5      0.000      0.000
REMARK  9 active torsions:
REMARK  status: ('A' for Active; 'I' for Inactive)
REMARK    1  A    between atoms: N_4  and  C_1 
REMARK       I    between atoms: C_8  and  N_4 
REMARK    2  A    between atoms: C_19  and  N_4 
REMARK    3  A    between atoms: S_6  and  C_11 
REMARK    4  A    between atoms: C_14  and  S_6 
REMARK    5  A    between atoms: C_10  and  C_8 
REMARK    6  A    between atoms: C_11  and  C_10 
REMARK    7  A    between atoms: C_20  and  C_19 
REMARK    8  A    between atoms: C_23  and  C_20 
REMARK    9  A    between atoms: N_21  and  C_23 
ROOT
ATOM      1  N   UNL d   1     -46.506  13.116  22.947  0.00  0.00    -0.253 N 
ATOM      2  C   UNL d   1     -46.782  13.871  22.746  0.00  0.00     0.267 C 
ATOM      3  O   UNL d   1     -46.313  14.384  22.318  0.00  0.00    -0.267 OA
ENDROOT
BRANCH   1   4
ATOM      4  C   UNL d   1     -45.741  12.886  22.706  0.00  0.00     0.182 A 
ATOM      5  N   UNL d   1     -45.263  13.298  22.179  0.00  0.00    -0.222 NA
ATOM      6  C   UNL d   1     -44.549  12.881  22.091  0.00  0.00     0.089 A 
ATOM      7  C   UNL d   1     -43.885  13.027  21.647  0.00  0.00     0.018 A 
ATOM      8  C   UNL d   1     -44.596  12.211  22.568  0.00  0.00     0.050 A 
ATOM      9  C   UNL d   1     -43.245  12.505  21.668  0.00  0.00     0.002 A 
ATOM     10  C   UNL d   1     -43.839  13.700  21.168  0.00  0.00     0.002 C 
ATOM     11  C   UNL d   1     -42.573  12.645  21.225  0.00  0.00     0.000 C 
ATOM     12  C   UNL d   1     -43.293  11.839  22.144  0.00  0.00     0.001 A 
ATOM     13  C   UNL d   1     -43.971  11.697  22.592  0.00  0.00     0.008 A 
ATOM     14  S   UNL d   1     -45.331  12.208  22.951  0.00  0.00    -0.048 SA
ENDBRANCH   1   4
BRANCH   1  15
ATOM     15  C   UNL d   1     -46.980  12.598  23.378  0.00  0.00     0.086 C 
BRANCH  15  16
ATOM     16  C   UNL d   1     -47.587  12.179  22.998  0.00  0.00     0.038 C 
BRANCH  16  17
ATOM     17  C   UNL d   1     -47.976  11.570  23.395  0.00  0.00     0.082 C 
BRANCH  17  18
ATOM     18  N   UNL d   1     -48.734  11.344  23.163  0.00  0.00    -0.300 N 
ATOM     19  C   UNL d   1     -49.361  11.389  23.696  0.00  0.00     0.100 C 
ATOM     20  C   UNL d   1     -48.863  11.072  22.396  0.00  0.00     0.100 C 
ENDBRANCH  17  18
ENDBRANCH  16  17
ENDBRANCH  15  16
ENDBRANCH   1  15
BRANCH   2  21
ATOM     21  C   UNL d   1     -47.541  14.096  22.987  0.00  0.00     0.073 C 
BRANCH  21  22
ATOM     22  C   UNL d   1     -47.867  14.798  22.687  0.00  0.00     0.104 C 
BRANCH  22  23
ATOM     23  S   UNL d   1     -48.671  14.970  22.797  0.00  0.00     0.211 S 
ATOM     24  O   UNL d   1     -48.790  14.919  21.979  0.00  0.00    -0.217 OA
ATOM     25  O   UNL d   1     -48.546  15.020  23.625  0.00  0.00    -0.217 OA
BRANCH  23  26
ATOM     26  C   UNL d   1     -49.471  15.140  22.907  0.00  0.00     0.088 A 
ATOM     27  C   UNL d   1     -49.703  15.595  23.549  0.00  0.00     0.011 A 
ATOM     28  C   UNL d   1     -50.511  15.767  23.660  0.00  0.00     0.001 A 
ATOM     29  C   UNL d   1     -51.062  15.479  23.126  0.00  0.00     0.000 A 
ATOM     30  C   UNL d   1     -50.834  15.026  22.486  0.00  0.00     0.001 A 
ATOM     31  C   UNL d   1     -50.034  14.856  22.376  0.00  0.00     0.011 A 
ENDBRANCH  23  26
ENDBRANCH  22  23
ENDBRANCH  21  22
ENDBRANCH   2  21
TORSDOF 9
ENDMDL
MODEL 2
REMARK VINA RESULT:      -3.4      1.295      5.337
REMARK  9 active torsions:
REMARK  status: ('A' for Active; 'I' for Inactive)
REMARK    1  A    between atoms: N_4  and  C_1 
REMARK       I    between atoms: C_8  and  N_4 
REMARK    2  A    between atoms: C_19  and  N_4 
REMARK    3  A    between atoms: S_6  and  C_11 
REMARK    4  A    between atoms: C_14  and  S_6 
REMARK    5  A    between atoms: C_10  and  C_8 
REMARK    6  A    between atoms: C_11  and  C_10 
REMARK    7  A    between atoms: C_20  and  C_19 
REMARK    8  A    between atoms: C_23  and  C_20 
REMARK    9  A    between atoms: N_21  and  C_23 
ROOT
ATOM      1  N   UNL d   1     -46.885  13.480  22.648  0.00  0.00    -0.253 N 
ATOM      2  C   UNL d   1     -46.310  13.674  22.085  0.00  0.00     0.267 C 
ATOM      3  O   UNL d   1     -46.488  14.175  21.465  0.00  0.00    -0.267 OA
ENDROOT
BRANCH   1   4
ATOM      4  C   UNL d   1     -47.650  13.804  22.575  0.00  0.00     0.182 A 
ATOM      5  N   UNL d   1     -48.273  13.467  22.157  0.00  0.00    -0.222 NA
ATOM      6  C   UNL d   1     -48.935  13.965  22.225  0.00  0.00     0.089 A 
ATOM      7  C   UNL d   1     -49.690  13.911  21.930  0.00  0.00     0.018 A 
ATOM      8  C   UNL d   1     -48.711  14.609  22.687  0.00  0.00     0.050 A 
ATOM      9  C   UNL d   1     -50.245  14.501  22.089  0.00  0.00     0.002 A 
ATOM     10  C   UNL d   1     -49.913  13.263  21.465  0.00  0.00     0.002 C 
ATOM     11  C   UNL d   1     -51.006  14.453  21.796  0.00  0.00     0.000 C 
ATOM     12  C   UNL d   1     -50.020  15.141  22.549  0.00  0.00     0.001 A 
ATOM     13  C   UNL d   1     -49.252  15.190  22.845  0.00  0.00     0.008 A 
ATOM     14  S   UNL d   1     -47.918  14.516  22.907  0.00  0.00    -0.048 SA
ENDBRANCH   1   4
BRANCH   1  15
ATOM     15  C   UNL d   1     -46.705  12.975  23.273  0.00  0.00     0.086 C 
BRANCH  15  16
ATOM     16  C   UNL d   1     -46.971  12.189  23.258  0.00  0.00     0.038 C 
BRANCH  16  17
ATOM     17  C   UNL d   1     -46.574  11.612  23.696  0.00  0.00     0.082 C 
BRANCH  17  18
ATOM     18  N   UNL d   1     -46.804  10.823  23.643  0.00  0.00    -0.300 N 
ATOM     19  C   UNL d   1     -47.605  10.626  23.618  0.00  0.00     0.100 C 
ATOM     20  C   UNL d   1     -46.232  10.231  23.616  0.00  0.00     0.100 C 
ENDBRANCH  17  18
ENDBRANCH  16  17
ENDBRANCH  15  16
ENDBRANCH   1  15
BRANCH   2  21
ATOM     21  C   UNL d   1     -45.551  13.351  22.160  0.00  0.00     0.073 C 
BRANCH  21  22
ATOM     22  C   UNL d   1     -45.144  13.116  21.475  0.00  0.00     0.104 C 
BRANCH  22  23
ATOM     23  S   UNL d   1     -44.315  13.117  21.458  0.00  0.00     0.211 S 
ATOM     24  O   UNL d   1     -44.307  13.636  22.105  0.00  0.00    -0.217 OA
ATOM     25  O   UNL d   1     -44.328  12.593  20.805  0.00  0.00    -0.217 OA
BRANCH  23  26
ATOM     26  C   UNL d   1     -43.489  13.118  21.441  0.00  0.00     0.088 A 
ATOM     27  C   UNL d   1     -43.091  13.795  21.205  0.00  0.00     0.011 A 
ATOM     28  C   UNL d   1     -42.258  13.796  21.188  0.00  0.00     0.001 A 
ATOM     29  C   UNL d   1     -41.849  13.121  21.407  0.00  0.00     0.000 A 
ATOM     30  C   UNL d   1     -42.243  12.446  21.643  0.00  0.00     0.001 A 
ATOM     31  C   UNL d   1     -43.068  12.445  21.660  0.00  0.00     0.011 A 
ENDBRANCH  23  26
ENDBRANCH  22  23
ENDBRANCH  21  22
ENDBRANCH   2  21
TORSDOF 9
ENDMDL
MODEL 3
REMARK VINA RESULT:      -3.1      4.642      8.438
REMARK  9 active torsions:
REMARK  status: ('A' for Active; 'I' for Inactive)
REMARK    1  A    between atoms: N_4  and  C_1 
REMARK       I    between atoms: C_8  and  N_4 
REMARK    2  A    between atoms: C_19  and  N_4 
REMARK    3  A    between atoms: S_6  and  C_11 
REMARK    4  A    between atoms: C_14  and  S_6 
REMARK    5  A    between atoms: C_10  and  C_8 
REMARK    6  A    between atoms: C_11  and  C_10 
REMARK    7  A    between atoms: C_20  and  C_19 
REMARK    8  A    between atoms: C_23  and  C_20 
REMARK    9  A    between atoms: N_21  and  C_23 
ROOT
ATOM      1  N   UNL d   1     -41.287  14.248  20.349  0.00  0.00    -0.253 N 
ATOM      2  C   UNL d   1     -41.164  14.128  19.539  0.00  0.00     0.267 C 
ATOM      3  O   UNL d   1     -41.594  13.565  19.131  0.00  0.00    -0.267 OA
ENDROOT
BRANCH   1   4
ATOM      4  C   UNL d   1     -41.858  13.786  20.745  0.00  0.00     0.182 A 
ATOM      5  N   UNL d   1     -42.641  14.000  20.872  0.00  0.00    -0.222 NA
ATOM      6  C   UNL d   1     -43.018  13.385  21.285  0.00  0.00     0.089 A 
ATOM      7  C   UNL d   1     -43.779  13.297  21.554  0.00  0.00     0.018 A 
ATOM      8  C   UNL d   1     -42.458  12.794  21.410  0.00  0.00     0.050 A 
ATOM      9  C   UNL d   1     -44.004  12.612  21.957  0.00  0.00     0.002 A 
ATOM     10  C   UNL d   1     -44.341  13.892  21.429  0.00  0.00     0.002 C 
ATOM     11  C   UNL d   1     -44.768  12.516  22.231  0.00  0.00     0.000 C 
ATOM     12  C   UNL d   1     -43.445  12.024  22.081  0.00  0.00     0.001 A 
ATOM     13  C   UNL d   1     -42.674  12.121  21.804  0.00  0.00     0.008 A 
ATOM     14  S   UNL d   1     -41.738  13.035  21.078  0.00  0.00    -0.048 SA
ENDBRANCH   1   4
BRANCH   1  15
ATOM     15  C   UNL d   1     -40.854  14.815  20.759  0.00  0.00     0.086 C 
BRANCH  15  16
ATOM     16  C   UNL d   1     -40.176  14.591  21.183  0.00  0.00     0.038 C 
BRANCH  16  17
ATOM     17  C   UNL d   1     -39.743  15.159  21.596  0.00  0.00     0.082 C 
BRANCH  17  18
ATOM     18  N   UNL d   1     -39.061  14.942  22.005  0.00  0.00    -0.300 N 
ATOM     19  C   UNL d   1     -38.342  14.880  21.606  0.00  0.00     0.100 C 
ATOM     20  C   UNL d   1     -39.101  14.786  22.812  0.00  0.00     0.100 C 
ENDBRANCH  17  18
ENDBRANCH  16  17
ENDBRANCH  15  16
ENDBRANCH   1  15
BRANCH   2  21
ATOM     21  C   UNL d   1     -40.597  14.589  19.148  0.00  0.00     0.073 C 
BRANCH  21  22
ATOM     22  C   UNL d   1     -40.540  14.542  18.321  0.00  0.00     0.104 C 
BRANCH  22  23
ATOM     23  S   UNL d   1     -39.894  14.877  17.924  0.00  0.00     0.211 S 
ATOM     24  O   UNL d   1     -39.515  14.139  17.927  0.00  0.00    -0.217 OA
ATOM     25  O   UNL d   1     -40.280  15.621  17.924  0.00  0.00    -0.217 OA
BRANCH  23  26
ATOM     26  C   UNL d   1     -39.250  15.210  17.529  0.00  0.00     0.088 A 
ATOM     27  C   UNL d   1     -39.209  15.163  16.712  0.00  0.00     0.011 A 
ATOM     28  C   UNL d   1     -38.559  15.499  16.313  0.00  0.00     0.001 A 
ATOM     29  C   UNL d   1     -37.971  15.873  16.744  0.00  0.00     0.000 A 
ATOM     30  C   UNL d   1     -38.009  15.922  17.558  0.00  0.00     0.001 A 
ATOM     31  C   UNL d   1     -38.652  15.589  17.953  0.00  0.00     0.011 A 
ENDBRANCH  23  26
ENDBRANCH  22  23
ENDBRANCH  21  22
ENDBRANCH   2  21
TORSDOF 9
ENDMDL
MODEL 4
REMARK VINA RESULT:      -2.7      2.137      3.726
REMARK  9 active torsions:
REMARK  status: ('A' for Active; 'I' for Inactive)
REMARK    1  A    between atoms: N_4  and  C_1 
REMARK       I    between atoms: C_8  and  N_4 
REMARK    2  A    between atoms: C_19  and  N_4 
REMARK    3  A    between atoms: S_6  and  C_11 
REMARK    4  A    between atoms: C_14  and  S_6 
REMARK    5  A    between atoms: C_10  and  C_8 
REMARK    6  A    between atoms: C_11  and  C_10 
REMARK    7  A    between atoms: C_20  and  C_19 
REMARK    8  A    between atoms: C_23  and  C_20 
REMARK    9  A    between atoms: N_21  and  C_23 
ROOT
ATOM      1  N   UNL d   1     -43.534  12.867  21.684  0.00  0.00    -0.253 N 
ATOM      2  C   UNL d   1     -44.164  13.378  21.851  0.00  0.00     0.267 C 
ATOM      3  O   UNL d   1     -44.073  14.187  21.784  0.00  0.00    -0.267 OA
ENDROOT
BRANCH   1   4
ATOM      4  C   UNL d   1     -42.803  13.190  21.445  0.00  0.00     0.182 A 
ATOM      5  N   UNL d   1     -42.600  13.395  20.675  0.00  0.00    -0.222 NA
ATOM      6  C   UNL d   1     -41.825  13.696  20.679  0.00  0.00     0.089 A 
ATOM      7  C   UNL d   1     -41.349  13.978  20.085  0.00  0.00     0.018 A 
ATOM      8  C   UNL d   1     -41.556  13.672  21.457  0.00  0.00     0.050 A 
ATOM      9  C   UNL d   1     -40.586  14.246  20.253  0.00  0.00     0.002 A 
ATOM     10  C   UNL d   1     -41.620  14.001  19.303  0.00  0.00     0.002 C 
ATOM     11  C   UNL d   1     -40.101  14.532  19.660  0.00  0.00     0.000 C 
ATOM     12  C   UNL d   1     -40.320  14.222  21.028  0.00  0.00     0.001 A 
ATOM     13  C   UNL d   1     -40.809  13.934  21.626  0.00  0.00     0.008 A 
ATOM     14  S   UNL d   1     -42.156  13.361  21.936  0.00  0.00    -0.048 SA
ENDBRANCH   1   4
BRANCH   1  15
ATOM     15  C   UNL d   1     -43.626  12.051  21.753  0.00  0.00     0.086 C 
BRANCH  15  16
ATOM     16  C   UNL d   1     -43.442  11.674  22.468  0.00  0.00     0.038 C 
BRANCH  16  17
ATOM     17  C   UNL d   1     -43.663  10.887  22.586  0.00  0.00     0.082 C 
BRANCH  17  18
ATOM     18  N   UNL d   1     -43.541  10.530  23.318  0.00  0.00    -0.300 N 
ATOM     19  C   UNL d   1     -42.806  10.585  23.689  0.00  0.00     0.100 C 
ATOM     20  C   UNL d   1     -44.155  10.117  23.679  0.00  0.00     0.100 C 
ENDBRANCH  17  18
ENDBRANCH  16  17
ENDBRANCH  15  16
ENDBRANCH   1  15
BRANCH   2  21
ATOM     21  C   UNL d   1     -44.889  13.054  22.088  0.00  0.00     0.073 C 
BRANCH  21  22
ATOM     22  C   UNL d   1     -45.531  13.562  22.227  0.00  0.00     0.104 C 
BRANCH  22  23
ATOM     23  S   UNL d   1     -46.251  13.263  22.509  0.00  0.00     0.211 S 
ATOM     24  O   UNL d   1     -46.454  13.038  21.737  0.00  0.00    -0.217 OA
ATOM     25  O   UNL d   1     -46.042  13.492  23.287  0.00  0.00    -0.217 OA
BRANCH  23  26
ATOM     26  C   UNL d   1     -46.968  12.964  22.789  0.00  0.00     0.088 A 
ATOM     27  C   UNL d   1     -47.667  13.350  22.602  0.00  0.00     0.011 A 
ATOM     28  C   UNL d   1     -48.390  13.049  22.885  0.00  0.00     0.001 A 
ATOM     29  C   UNL d   1     -48.393  12.372  23.346  0.00  0.00     0.000 A 
ATOM     30  C   UNL d   1     -47.699  11.986  23.534  0.00  0.00     0.001 A 
ATOM     31  C   UNL d   1     -46.982  12.284  23.254  0.00  0.00     0.011 A 
ENDBRANCH  23  26
ENDBRANCH  22  23
ENDBRANCH  21  22
ENDBRANCH   2  21
TORSDOF 9
ENDMDL
