MODEL 1
REMARK VINA RESULT:      60.7      0.000      0.000
REMARK  4 active torsions:
REMARK  status: ('A' for Active; 'I' for Inactive)
REMARK    1  A    between atoms: N_3  and  S_1 
REMARK    2  A    between atoms: C_13  and  S_1 
REMARK    3  A    between atoms: C_2  and  N_3 
REMARK    4  A    between atoms: N_8  and  C_4 
REMARK       I    between atoms: C_10  and  N_9 
ROOT
ATOM      1  C   UNL d   1      46.380 -17.633  43.165  0.00  0.00     0.110 A 
ATOM      2  C   UNL d   1      46.009 -18.151  42.312  0.00  0.00     0.083 A 
ATOM      3  C   UNL d   1      46.407 -18.234  43.724  0.00  0.00     0.020 A 
ATOM      4  C   UNL d   1      45.913 -18.924  42.587  0.00  0.00     0.018 A 
ATOM      5  C   UNL d   1      46.147 -18.922  43.378  0.00  0.00     0.003 A 
ATOM      6  C   UNL d   1      46.117 -19.619  43.818  0.00  0.00     0.000 A 
ATOM      7  C   UNL d   1      46.647 -18.217  44.521  0.00  0.00     0.002 A 
ATOM      8  C   UNL d   1      45.652 -19.612  42.240  0.00  0.00     0.002 A 
ATOM      9  C   UNL d   1      45.616 -20.328  42.673  0.00  0.00     0.000 A 
ATOM     10  C   UNL d   1      46.612 -18.929  44.955  0.00  0.00     0.000 A 
ATOM     11  C   UNL d   1      45.854 -20.315  43.469  0.00  0.00     0.000 A 
ATOM     12  C   UNL d   1      46.349 -19.625  44.606  0.00  0.00     0.000 A 
ENDROOT
BRANCH   1  13
ATOM     13  N   UNL d   1      46.607 -16.870  43.344  0.00  0.00    -0.157 NA
BRANCH  13  14
ATOM     14  S   UNL d   1      46.105 -16.352  43.744  0.00  0.00     0.285 S 
ATOM     15  O   UNL d   1      46.610 -16.382  44.397  0.00  0.00    -0.198 OA
ATOM     16  O   UNL d   1      45.609 -16.326  43.093  0.00  0.00    -0.198 OA
BRANCH  14  17
ATOM     17  C   UNL d   1      45.612 -15.838  44.145  0.00  0.00     0.105 A 
ATOM     18  C   UNL d   1      45.928 -15.188  44.535  0.00  0.00     0.013 A 
ATOM     19  C   UNL d   1      45.446 -14.657  44.947  0.00  0.00     0.001 A 
ATOM     20  C   UNL d   1      44.616 -14.803  44.955  0.00  0.00     0.000 A 
ATOM     21  C   UNL d   1      44.302 -15.450  44.566  0.00  0.00     0.001 A 
ATOM     22  C   UNL d   1      44.794 -15.967  44.163  0.00  0.00     0.013 A 
ENDBRANCH  14  17
ENDBRANCH  13  14
ENDBRANCH   1  13
BRANCH   2  23
ATOM     23  N   UNL d   1      45.821 -17.969  41.536  0.00  0.00    -0.300 N 
ATOM     24  C   UNL d   1      46.427 -17.874  40.984  0.00  0.00     0.100 A 
ATOM     25  C   UNL d   1      46.236 -17.697  40.232  0.00  0.00     0.102 A 
ATOM     26  N   UNL d   1      45.437 -17.600  39.963  0.00  0.00    -0.269 N 
ATOM     27  C   UNL d   1      44.839 -17.694  40.511  0.00  0.00     0.102 A 
ATOM     28  C   UNL d   1      45.234 -17.416  39.184  0.00  0.00     0.265 C 
ATOM     29  C   UNL d   1      45.040 -17.888  41.338  0.00  0.00     0.100 A 
ATOM     30  O   UNL d   1      45.799 -17.310  38.586  0.00  0.00    -0.267 OA
ATOM     31  C   UNL d   1      44.461 -17.321  38.919  0.00  0.00     0.066 C 
ENDBRANCH   2  23
TORSDOF 4
ENDMDL
