MODEL 1
REMARK VINA RESULT:      11.7      0.000      0.000
REMARK  2 active torsions:
REMARK  status: ('A' for Active; 'I' for Inactive)
REMARK    1  A    between atoms: S_2  and  N_1 
REMARK    2  A    between atoms: C_8  and  S_2 
ROOT
ATOM      1  S   UNL d   1     -54.741-101.989 -37.964  0.00  0.00     0.273 S 
ATOM      2  O   UNL d   1     -54.757-102.805 -37.885  0.00  0.00    -0.200 OA
ATOM      3  O   UNL d   1     -54.725-101.167 -38.035  0.00  0.00    -0.200 OA
ENDROOT
BRANCH   1   4
ATOM      4  N   UNL d   1     -54.744-101.927 -37.141  0.00  0.00    -0.207 N 
ATOM      5  C   UNL d   1     -54.774-102.653 -36.742  0.00  0.00     0.148 A 
ATOM      6  N   UNL d   1     -54.784-102.785 -35.921  0.00  0.00    -0.198 NA
ATOM      7  C   UNL d   1     -54.766-102.246 -35.317  0.00  0.00     0.066 A 
ATOM      8  C   UNL d   1     -54.748-101.921 -36.403  0.00  0.00     0.169 A 
ATOM      9  C   UNL d   1     -54.735-101.428 -35.361  0.00  0.00     0.066 A 
ATOM     10  N   UNL d   1     -54.712-100.948 -36.034  0.00  0.00    -0.198 NA
ATOM     11  C   UNL d   1     -54.716-101.173 -36.823  0.00  0.00     0.148 A 
ENDBRANCH   1   4
BRANCH   1  12
ATOM     12  C   UNL d   1     -54.739-102.059 -38.785  0.00  0.00     0.104 A 
ATOM     13  C   UNL d   1     -54.715-101.384 -39.258  0.00  0.00     0.014 A 
ATOM     14  C   UNL d   1     -54.713-101.454 -40.079  0.00  0.00     0.012 A 
ATOM     15  C   UNL d   1     -54.735-102.201 -40.428  0.00  0.00     0.058 A 
ATOM     16  C   UNL d   1     -54.759-102.877 -39.956  0.00  0.00     0.012 A 
ATOM     17 CL   UNL d   1     -54.732-102.262 -41.251  0.00  0.00    -0.082 Cl
ATOM     18  C   UNL d   1     -54.761-102.807 -39.135  0.00  0.00     0.014 A 
ENDBRANCH   1  12
TORSDOF 2
ENDMDL
