MODEL 1
REMARK VINA RESULT:      63.6      0.000      0.000
REMARK  4 active torsions:
REMARK  status: ('A' for Active; 'I' for Inactive)
REMARK    1  A    between atoms: C_2  and  S_1 
REMARK    2  A    between atoms: C_5  and  S_1 
REMARK    3  A    between atoms: C_7  and  C_5 
REMARK       I    between atoms: N_9  and  C_7 
REMARK    4  A    between atoms: C_8  and  N_9 
ROOT
ATOM      1  S   UNL d   1     -50.591  25.739  33.420  0.00  0.00     0.217 S 
ATOM      2  O   UNL d   1     -49.778  25.613  33.307  0.00  0.00    -0.217 OA
ATOM      3  O   UNL d   1     -51.408  25.865  33.533  0.00  0.00    -0.217 OA
ENDROOT
BRANCH   1   4
ATOM      4  C   UNL d   1     -50.723  24.923  33.405  0.00  0.00     0.109 A 
ATOM      5  C   UNL d   1     -50.142  24.338  33.421  0.00  0.00     0.110 A 
ATOM      6  N   UNL d   1     -50.515  23.607  33.398  0.00  0.00    -0.243 NA
ATOM      7  C   UNL d   1     -51.331  23.740  33.366  0.00  0.00     0.082 A 
ATOM      8  C   UNL d   1     -51.452  24.552  33.371  0.00  0.00     0.030 A 
ATOM      9  C   UNL d   1     -51.973  23.222  33.334  0.00  0.00     0.019 A 
ATOM     10  C   UNL d   1     -52.220  24.856  33.344  0.00  0.00     0.002 A 
ATOM     11  C   UNL d   1     -52.862  24.340  33.312  0.00  0.00     0.000 A 
ATOM     12  C   UNL d   1     -52.737  23.529  33.307  0.00  0.00     0.002 A 
ENDBRANCH   1   4
BRANCH   1  13
ATOM     13  C   UNL d   1     -50.465  26.568  33.436  0.00  0.00     0.161 C 
BRANCH  13  14
ATOM     14  C   UNL d   1     -50.072  26.905  34.083  0.00  0.00     0.291 C 
ATOM     15  N   UNL d   1     -49.736  27.655  34.001  0.00  0.00    -0.207 NA
ATOM     16  O   UNL d   1     -50.016  26.505  34.795  0.00  0.00    -0.264 OA
BRANCH  15  17
ATOM     17  C   UNL d   1     -49.342  27.995  34.645  0.00  0.00     0.085 A 
ATOM     18  C   UNL d   1     -48.863  28.655  34.530  0.00  0.00     0.018 A 
ATOM     19  C   UNL d   1     -48.467  29.002  35.166  0.00  0.00     0.002 A 
ATOM     20  C   UNL d   1     -48.778  28.976  33.765  0.00  0.00     0.002 C 
ATOM     21  C   UNL d   1     -48.551  28.685  35.922  0.00  0.00     0.000 A 
ATOM     22  C   UNL d   1     -49.029  28.025  36.043  0.00  0.00     0.002 A 
ATOM     23  C   UNL d   1     -49.424  27.681  35.403  0.00  0.00     0.019 A 
ATOM     24  C   UNL d   1     -49.120  27.696  36.811  0.00  0.00     0.000 C 
ENDBRANCH  15  17
ENDBRANCH  13  14
ENDBRANCH   1  13
TORSDOF 4
ENDMDL
MODEL 2
REMARK VINA RESULT:      63.7      1.354      2.271
REMARK  4 active torsions:
REMARK  status: ('A' for Active; 'I' for Inactive)
REMARK    1  A    between atoms: C_2  and  S_1 
REMARK    2  A    between atoms: C_5  and  S_1 
REMARK    3  A    between atoms: C_7  and  C_5 
REMARK       I    between atoms: N_9  and  C_7 
REMARK    4  A    between atoms: C_8  and  N_9 
ROOT
ATOM      1  S   UNL d   1     -50.046  27.240  33.432  0.00  0.00     0.217 S 
ATOM      2  O   UNL d   1     -50.344  28.010  33.525  0.00  0.00    -0.217 OA
ATOM      3  O   UNL d   1     -49.748  26.467  33.339  0.00  0.00    -0.217 OA
ENDROOT
BRANCH   1   4
ATOM      4  C   UNL d   1     -50.817  26.944  33.388  0.00  0.00     0.109 A 
ATOM      5  C   UNL d   1     -51.507  27.393  33.350  0.00  0.00     0.110 A 
ATOM      6  N   UNL d   1     -52.146  26.878  33.313  0.00  0.00    -0.243 NA
ATOM      7  C   UNL d   1     -51.849  26.106  33.328  0.00  0.00     0.082 A 
ATOM      8  C   UNL d   1     -51.030  26.154  33.375  0.00  0.00     0.030 A 
ATOM      9  C   UNL d   1     -52.224  25.370  33.306  0.00  0.00     0.019 A 
ATOM     10  C   UNL d   1     -50.576  25.464  33.400  0.00  0.00     0.002 A 
ATOM     11  C   UNL d   1     -50.950  24.729  33.378  0.00  0.00     0.000 A 
ATOM     12  C   UNL d   1     -51.768  24.685  33.331  0.00  0.00     0.002 A 
ENDBRANCH   1   4
BRANCH   1  13
ATOM     13  C   UNL d   1     -49.262  27.533  33.476  0.00  0.00     0.161 C 
BRANCH  13  14
ATOM     14  C   UNL d   1     -49.106  28.204  33.936  0.00  0.00     0.291 C 
ATOM     15  N   UNL d   1     -48.335  28.339  34.201  0.00  0.00    -0.207 NA
ATOM     16  O   UNL d   1     -49.703  28.729  34.128  0.00  0.00    -0.264 OA
BRANCH  15  17
ATOM     17  C   UNL d   1     -48.175  29.008  34.661  0.00  0.00     0.085 A 
ATOM     18  C   UNL d   1     -47.913  28.920  35.436  0.00  0.00     0.018 A 
ATOM     19  C   UNL d   1     -47.750  29.582  35.903  0.00  0.00     0.002 A 
ATOM     20  C   UNL d   1     -47.812  28.155  35.754  0.00  0.00     0.002 C 
ATOM     21  C   UNL d   1     -47.851  30.336  35.589  0.00  0.00     0.000 A 
ATOM     22  C   UNL d   1     -48.112  30.431  34.813  0.00  0.00     0.002 A 
ATOM     23  C   UNL d   1     -48.274  29.766  34.350  0.00  0.00     0.019 A 
ATOM     24  C   UNL d   1     -48.217  31.199  34.486  0.00  0.00     0.000 C 
ENDBRANCH  15  17
ENDBRANCH  13  14
ENDBRANCH   1  13
TORSDOF 4
ENDMDL
MODEL 3
REMARK VINA RESULT:      65.4      1.868      5.374
REMARK  4 active torsions:
REMARK  status: ('A' for Active; 'I' for Inactive)
REMARK    1  A    between atoms: C_2  and  S_1 
REMARK    2  A    between atoms: C_5  and  S_1 
REMARK    3  A    between atoms: C_7  and  C_5 
REMARK       I    between atoms: N_9  and  C_7 
REMARK    4  A    between atoms: C_8  and  N_9 
ROOT
ATOM      1  S   UNL d   1     -48.765  28.972  34.410  0.00  0.00     0.217 S 
ATOM      2  O   UNL d   1     -48.483  29.458  33.798  0.00  0.00    -0.217 OA
ATOM      3  O   UNL d   1     -49.047  28.484  35.025  0.00  0.00    -0.217 OA
ENDROOT
BRANCH   1   4
ATOM      4  C   UNL d   1     -48.147  29.223  34.898  0.00  0.00     0.109 A 
ATOM      5  C   UNL d   1     -47.616  28.735  35.299  0.00  0.00     0.110 A 
ATOM      6  N   UNL d   1     -47.095  29.213  35.717  0.00  0.00    -0.243 NA
ATOM      7  C   UNL d   1     -47.304  30.000  35.575  0.00  0.00     0.082 A 
ATOM      8  C   UNL d   1     -47.952  30.000  35.070  0.00  0.00     0.030 A 
ATOM      9  C   UNL d   1     -46.985  30.713  35.843  0.00  0.00     0.019 A 
ATOM     10  C   UNL d   1     -48.288  30.714  34.828  0.00  0.00     0.002 A 
ATOM     11  C   UNL d   1     -47.970  31.426  35.095  0.00  0.00     0.000 A 
ATOM     12  C   UNL d   1     -47.322  31.423  35.599  0.00  0.00     0.002 A 
ENDBRANCH   1   4
BRANCH   1  13
ATOM     13  C   UNL d   1     -49.394  28.713  33.920  0.00  0.00     0.161 C 
BRANCH  13  14
ATOM     14  C   UNL d   1     -49.581  27.906  33.894  0.00  0.00     0.291 C 
ATOM     15  N   UNL d   1     -50.194  27.653  33.403  0.00  0.00    -0.207 NA
ATOM     16  O   UNL d   1     -49.166  27.365  34.346  0.00  0.00    -0.264 OA
BRANCH  15  17
ATOM     17  C   UNL d   1     -50.384  26.848  33.373  0.00  0.00     0.085 A 
ATOM     18  C   UNL d   1     -51.173  26.613  33.339  0.00  0.00     0.018 A 
ATOM     19  C   UNL d   1     -51.372  25.812  33.309  0.00  0.00     0.002 A 
ATOM     20  C   UNL d   1     -51.776  27.190  33.336  0.00  0.00     0.002 C 
ATOM     21  C   UNL d   1     -50.778  25.243  33.313  0.00  0.00     0.000 A 
ATOM     22  C   UNL d   1     -49.986  25.472  33.347  0.00  0.00     0.002 A 
ATOM     23  C   UNL d   1     -49.791  26.275  33.377  0.00  0.00     0.019 A 
ATOM     24  C   UNL d   1     -49.373  24.896  33.351  0.00  0.00     0.000 C 
ENDBRANCH  15  17
ENDBRANCH  13  14
ENDBRANCH   1  13
TORSDOF 4
ENDMDL
