MODEL 1
REMARK VINA RESULT:      -4.0      0.000      0.000
REMARK  1 active torsions:
REMARK  status: ('A' for Active; 'I' for Inactive)
REMARK    1  A    between atoms: C_3  and  C_1 
REMARK       I    between atoms: N_2  and  C_3 
ROOT
ATOM      1  N   UNL d   1      30.755  17.100 -24.419  0.00  0.00    -0.303 N 
ATOM      2  C   UNL d   1      29.960  17.206 -24.680  0.00  0.00     0.244 C 
ATOM      3  C   UNL d   1      30.903  16.401 -23.975  0.00  0.00     0.088 A 
ATOM      4  C   UNL d   1      32.115  17.750 -24.458  0.00  0.00     0.037 A 
ATOM      5  C   UNL d   1      31.303  17.704 -24.634  0.00  0.00     0.051 A 
ATOM      6  C   UNL d   1      31.756  16.893 -24.048  0.00  0.00     0.028 A 
ATOM      7  C   UNL d   1      32.372  16.495 -23.662  0.00  0.00     0.002 A 
ATOM      8  C   UNL d   1      31.627  16.140 -23.641  0.00  0.00     0.023 A 
ATOM      9  O   UNL d   1      29.782  17.845 -25.097  0.00  0.00    -0.271 OA
ATOM     10  C   UNL d   1      32.574  17.214 -24.030  0.00  0.00     0.006 A 
ATOM     11  C   UNL d   1      32.460  18.457 -24.783  0.00  0.00     0.006 C 
ATOM     12  C   UNL d   1      33.180  16.714 -23.587  0.00  0.00     0.000 C 
ATOM     13  C   UNL d   1      32.519  15.796 -23.218  0.00  0.00     0.000 C 
ENDROOT
BRANCH   2  14
ATOM     14  C   UNL d   1      29.415  16.663 -24.500  0.00  0.00     0.111 A 
ATOM     15  C   UNL d   1      28.261  16.103 -23.782  0.00  0.00     0.025 A 
ATOM     16  C   UNL d   1      28.857  16.129 -24.303  0.00  0.00     0.074 A 
ATOM     17  C   UNL d   1      27.951  16.586 -23.228  0.00  0.00     0.002 C 
ATOM     18  C   UNL d   1      27.808  15.453 -23.745  0.00  0.00     0.002 C 
ATOM     19  C   UNL d   1      28.405  15.493 -24.259  0.00  0.00     0.012 C 
ATOM     20  C   UNL d   1      29.156  15.643 -24.849  0.00  0.00    -0.023 A 
ATOM     21  C   UNL d   1      28.877  16.824 -23.925  0.00  0.00     0.172 A 
ATOM     22  C   UNL d   1      29.704  16.177 -25.038  0.00  0.00    -0.018 A 
ATOM     23  C   UNL d   1      29.431  17.363 -24.116  0.00  0.00     0.024 A 
ATOM     24  O   UNL d   1      28.449  17.160 -23.348  0.00  0.00    -0.291 OA
ENDBRANCH   2  14
TORSDOF 1
ENDMDL
MODEL 2
REMARK VINA RESULT:      -4.0      1.336      3.853
REMARK  1 active torsions:
REMARK  status: ('A' for Active; 'I' for Inactive)
REMARK    1  A    between atoms: C_3  and  C_1 
REMARK       I    between atoms: N_2  and  C_3 
ROOT
ATOM      1  N   UNL d   1      30.937  16.945 -23.827  0.00  0.00    -0.303 N 
ATOM      2  C   UNL d   1      31.762  17.043 -23.681  0.00  0.00     0.244 C 
ATOM      3  C   UNL d   1      30.598  17.475 -24.386  0.00  0.00     0.088 A 
ATOM      4  C   UNL d   1      29.751  16.104 -23.425  0.00  0.00     0.037 A 
ATOM      5  C   UNL d   1      30.552  16.329 -23.397  0.00  0.00     0.051 A 
ATOM      6  C   UNL d   1      29.877  16.880 -24.068  0.00  0.00     0.028 A 
ATOM      7  C   UNL d   1      29.153  17.059 -24.428  0.00  0.00     0.002 A 
ATOM      8  C   UNL d   1      29.802  17.519 -24.647  0.00  0.00     0.023 A 
ATOM      9  O   UNL d   1      32.113  16.568 -23.167  0.00  0.00    -0.271 OA
ATOM     10  C   UNL d   1      29.145  16.431 -23.881  0.00  0.00     0.006 A 
ATOM     11  C   UNL d   1      29.597  15.453 -22.899  0.00  0.00     0.006 C 
ATOM     12  C   UNL d   1      28.403  16.695 -24.320  0.00  0.00     0.000 C 
ATOM     13  C   UNL d   1      28.816  17.590 -24.986  0.00  0.00     0.000 C 
ENDROOT
BRANCH   2  14
ATOM     14  C   UNL d   1      32.160  17.608 -24.064  0.00  0.00     0.111 A 
ATOM     15  C   UNL d   1      32.862  18.890 -24.215  0.00  0.00     0.025 A 
ATOM     16  C   UNL d   1      32.562  18.190 -24.431  0.00  0.00     0.074 A 
ATOM     17  C   UNL d   1      32.899  19.327 -23.547  0.00  0.00     0.002 C 
ATOM     18  C   UNL d   1      33.241  19.332 -24.754  0.00  0.00     0.002 C 
ATOM     19  C   UNL d   1      32.937  18.632 -24.955  0.00  0.00     0.012 C 
ATOM     20  C   UNL d   1      32.531  17.766 -25.097  0.00  0.00    -0.023 A 
ATOM     21  C   UNL d   1      32.386  18.268 -23.663  0.00  0.00     0.172 A 
ATOM     22  C   UNL d   1      32.134  17.196 -24.726  0.00  0.00    -0.018 A 
ATOM     23  C   UNL d   1      31.984  17.690 -23.289  0.00  0.00     0.024 A 
ATOM     24  O   UNL d   1      32.516  18.821 -23.111  0.00  0.00    -0.291 OA
ENDBRANCH   2  14
TORSDOF 1
ENDMDL
MODEL 3
REMARK VINA RESULT:      -3.9      1.048      3.375
REMARK  1 active torsions:
REMARK  status: ('A' for Active; 'I' for Inactive)
REMARK    1  A    between atoms: C_3  and  C_1 
REMARK       I    between atoms: N_2  and  C_3 
ROOT
ATOM      1  N   UNL d   1      30.193  16.886 -24.328  0.00  0.00    -0.303 N 
ATOM      2  C   UNL d   1      30.982  17.050 -24.580  0.00  0.00     0.244 C 
ATOM      3  C   UNL d   1      30.090  16.178 -23.885  0.00  0.00     0.088 A 
ATOM      4  C   UNL d   1      28.790  17.437 -24.382  0.00  0.00     0.037 A 
ATOM      5  C   UNL d   1      29.606  17.450 -24.550  0.00  0.00     0.051 A 
ATOM      6  C   UNL d   1      29.205  16.608 -23.968  0.00  0.00     0.028 A 
ATOM      7  C   UNL d   1      28.615  16.166 -23.590  0.00  0.00     0.002 A 
ATOM      8  C   UNL d   1      29.383  15.865 -23.561  0.00  0.00     0.023 A 
ATOM      9  O   UNL d   1      31.118  17.700 -24.995  0.00  0.00    -0.271 OA
ATOM     10  C   UNL d   1      28.366  16.869 -23.960  0.00  0.00     0.006 A 
ATOM     11  C   UNL d   1      28.399  18.118 -24.712  0.00  0.00     0.006 C 
ATOM     12  C   UNL d   1      27.793  16.327 -23.524  0.00  0.00     0.000 C 
ATOM     13  C   UNL d   1      28.513  15.458 -23.147  0.00  0.00     0.000 C 
ENDROOT
BRANCH   2  14
ATOM     14  C   UNL d   1      31.562  16.547 -24.394  0.00  0.00     0.111 A 
ATOM     15  C   UNL d   1      32.741  16.068 -23.660  0.00  0.00     0.025 A 
ATOM     16  C   UNL d   1      32.154  16.054 -24.190  0.00  0.00     0.074 A 
ATOM     17  C   UNL d   1      33.006  16.569 -23.096  0.00  0.00     0.002 C 
ATOM     18  C   UNL d   1      33.241  15.453 -23.619  0.00  0.00     0.002 C 
ATOM     19  C   UNL d   1      32.651  15.453 -24.143  0.00  0.00     0.012 C 
ATOM     20  C   UNL d   1      31.901  15.551 -24.745  0.00  0.00    -0.023 A 
ATOM     21  C   UNL d   1      32.077  16.742 -23.808  0.00  0.00     0.172 A 
ATOM     22  C   UNL d   1      31.318  16.044 -24.940  0.00  0.00    -0.018 A 
ATOM     23  C   UNL d   1      31.487  17.241 -24.006  0.00  0.00     0.024 A 
ATOM     24  O   UNL d   1      32.468  17.105 -23.223  0.00  0.00    -0.291 OA
ENDBRANCH   2  14
TORSDOF 1
ENDMDL
MODEL 4
REMARK VINA RESULT:      -3.3      1.817      3.081
REMARK  1 active torsions:
REMARK  status: ('A' for Active; 'I' for Inactive)
REMARK    1  A    between atoms: C_3  and  C_1 
REMARK       I    between atoms: N_2  and  C_3 
ROOT
ATOM      1  N   UNL d   1      32.623  18.607 -23.811  0.00  0.00    -0.303 N 
ATOM      2  C   UNL d   1      32.419  17.964 -24.317  0.00  0.00     0.244 C 
ATOM      3  C   UNL d   1      32.585  18.449 -22.985  0.00  0.00     0.088 A 
ATOM      4  C   UNL d   1      33.067  20.048 -23.841  0.00  0.00     0.037 A 
ATOM      5  C   UNL d   1      32.841  19.328 -24.192  0.00  0.00     0.051 A 
ATOM      6  C   UNL d   1      32.873  19.387 -23.095  0.00  0.00     0.028 A 
ATOM      7  C   UNL d   1      32.996  19.756 -22.364  0.00  0.00     0.002 A 
ATOM      8  C   UNL d   1      32.753  18.968 -22.348  0.00  0.00     0.023 A 
ATOM      9  O   UNL d   1      32.442  18.073 -25.093  0.00  0.00    -0.271 OA
ATOM     10  C   UNL d   1      33.132  20.225 -23.037  0.00  0.00     0.006 A 
ATOM     11  C   UNL d   1      33.241  20.636 -24.432  0.00  0.00     0.006 C 
ATOM     12  C   UNL d   1      33.241  20.544 -22.201  0.00  0.00     0.000 C 
ATOM     13  C   UNL d   1      32.957  19.597 -21.538  0.00  0.00     0.000 C 
ENDROOT
BRANCH   2  14
ATOM     14  C   UNL d   1      32.209  17.272 -24.001  0.00  0.00     0.111 A 
ATOM     15  C   UNL d   1      31.286  16.198 -23.606  0.00  0.00     0.025 A 
ATOM     16  C   UNL d   1      31.977  16.576 -23.687  0.00  0.00     0.074 A 
ATOM     17  C   UNL d   1      30.522  16.334 -23.796  0.00  0.00     0.002 C 
ATOM     18  C   UNL d   1      31.272  15.489 -23.250  0.00  0.00     0.002 C 
ATOM     19  C   UNL d   1      31.953  15.878 -23.339  0.00  0.00     0.012 C 
ATOM     20  C   UNL d   1      32.729  16.433 -23.495  0.00  0.00    -0.023 A 
ATOM     21  C   UNL d   1      31.435  17.053 -24.013  0.00  0.00     0.172 A 
ATOM     22  C   UNL d   1      32.950  17.121 -23.808  0.00  0.00    -0.018 A 
ATOM     23  C   UNL d   1      31.660  17.749 -24.329  0.00  0.00     0.024 A 
ATOM     24  O   UNL d   1      30.651  17.019 -24.121  0.00  0.00    -0.291 OA
ENDBRANCH   2  14
TORSDOF 1
ENDMDL
