MODEL 1
REMARK VINA RESULT:      51.9      0.000      0.000
REMARK  8 active torsions:
REMARK  status: ('A' for Active; 'I' for Inactive)
REMARK    1  A    between atoms: C_6  and  C_1 
REMARK    2  A    between atoms: C_7  and  C_3 
REMARK       I    between atoms: N_10  and  C_6 
REMARK    3  A    between atoms: O_12  and  C_7 
REMARK    4  A    between atoms: C_20  and  N_10 
REMARK    5  A    between atoms: C_23  and  O_12 
REMARK    6  A    between atoms: O_21  and  C_14 
REMARK    7  A    between atoms: C_15  and  C_22 
REMARK    8  A    between atoms: C_22  and  C_20 
ROOT
ATOM      1  C   UNL d   1     -56.861 -99.107 -44.559  0.00  0.00     0.075 A 
ATOM      2  C   UNL d   1     -57.191 -99.062 -45.314  0.00  0.00     0.027 A 
ATOM      3  C   UNL d   1     -57.994 -98.904 -45.237  0.00  0.00     0.121 A 
ATOM      4  N   UNL d   1     -58.167 -98.850 -44.422  0.00  0.00    -0.349 N 
ATOM      5  C   UNL d   1     -57.465 -98.976 -44.010  0.00  0.00     0.061 A 
ATOM      6  C   UNL d   1     -56.785 -99.159 -46.025  0.00  0.00     0.002 C 
ATOM      7  C   UNL d   1     -57.377 -98.971 -43.186  0.00  0.00     0.019 C 
ATOM      8  H   UNL d   1     -58.908 -98.698 -44.093  0.00  0.00     0.166 HD
ENDROOT
BRANCH   1   9
ATOM      9  C   UNL d   1     -56.072 -99.255 -44.385  0.00  0.00     0.281 C 
ATOM     10  O   UNL d   1     -55.500 -99.198 -44.975  0.00  0.00    -0.265 OA
ATOM     11  N   UNL d   1     -55.847 -99.463 -43.618  0.00  0.00    -0.206 NA
BRANCH  11  12
ATOM     12  C   UNL d   1     -55.058 -99.612 -43.443  0.00  0.00     0.102 C 
BRANCH  12  13
ATOM     13  C   UNL d   1     -54.729-100.346 -43.607  0.00  0.00     0.021 C 
BRANCH  13  14
ATOM     14  C   UNL d   1     -54.725-100.936 -43.039  0.00  0.00     0.002 A 
ATOM     15  C   UNL d   1     -54.720-100.748 -42.231  0.00  0.00     0.002 A 
ATOM     16  C   UNL d   1     -54.716-101.338 -41.664  0.00  0.00     0.024 A 
ATOM     17  C   UNL d   1     -54.717-102.137 -41.892  0.00  0.00     0.094 A 
ATOM     18  C   UNL d   1     -54.722-102.338 -42.694  0.00  0.00     0.024 A 
ATOM     19  C   UNL d   1     -54.726-101.735 -43.267  0.00  0.00     0.002 A 
BRANCH  17  20
ATOM     20  O   UNL d   1     -54.714-102.730 -41.319  0.00  0.00    -0.328 OA
ATOM     21  C   UNL d   1     -54.787-102.533 -40.520  0.00  0.00     0.181 C 
ENDBRANCH  17  20
ENDBRANCH  13  14
ENDBRANCH  12  13
ENDBRANCH  11  12
ENDBRANCH   1   9
BRANCH   3  22
ATOM     22  C   UNL d   1     -58.544 -98.814 -45.850  0.00  0.00     0.316 C 
ATOM     23  O   UNL d   1     -58.291 -98.760 -46.632  0.00  0.00    -0.257 OA
BRANCH  22  24
ATOM     24  O   UNL d   1     -59.345 -98.778 -45.667  0.00  0.00    -0.270 OA
BRANCH  24  25
ATOM     25  C   UNL d   1     -59.894 -99.149 -46.162  0.00  0.00     0.126 C 
ATOM     26  C   UNL d   1     -59.692 -99.340 -46.933  0.00  0.00     0.029 C 
ENDBRANCH  24  25
ENDBRANCH  22  24
ENDBRANCH   3  22
TORSDOF 8
ENDMDL
MODEL 2
REMARK VINA RESULT:      54.1      1.290      2.021
REMARK  8 active torsions:
REMARK  status: ('A' for Active; 'I' for Inactive)
REMARK    1  A    between atoms: C_6  and  C_1 
REMARK    2  A    between atoms: C_7  and  C_3 
REMARK       I    between atoms: N_10  and  C_6 
REMARK    3  A    between atoms: O_12  and  C_7 
REMARK    4  A    between atoms: C_20  and  N_10 
REMARK    5  A    between atoms: C_23  and  O_12 
REMARK    6  A    between atoms: O_21  and  C_14 
REMARK    7  A    between atoms: C_15  and  C_22 
REMARK    8  A    between atoms: C_22  and  C_20 
ROOT
ATOM      1  C   UNL d   1     -55.751 -99.928 -43.819  0.00  0.00     0.075 A 
ATOM      2  C   UNL d   1     -56.517-100.135 -44.043  0.00  0.00     0.027 A 
ATOM      3  C   UNL d   1     -56.811 -99.547 -44.537  0.00  0.00     0.121 A 
ATOM      4  N   UNL d   1     -56.219 -98.965 -44.621  0.00  0.00    -0.349 N 
ATOM      5  C   UNL d   1     -55.568 -99.205 -44.177  0.00  0.00     0.061 A 
ATOM      6  C   UNL d   1     -56.919-100.817 -43.812  0.00  0.00     0.002 C 
ATOM      7  C   UNL d   1     -54.854 -98.794 -44.100  0.00  0.00     0.019 C 
ATOM      8  H   UNL d   1     -56.279 -98.276 -45.070  0.00  0.00     0.166 HD
ENDROOT
BRANCH   1   9
ATOM      9  C   UNL d   1     -55.256-100.362 -43.327  0.00  0.00     0.281 C 
ATOM     10  O   UNL d   1     -54.713 -99.977 -42.842  0.00  0.00    -0.265 OA
ATOM     11  N   UNL d   1     -55.300-101.186 -43.315  0.00  0.00    -0.206 NA
BRANCH  11  12
ATOM     12  C   UNL d   1     -54.806-101.621 -42.822  0.00  0.00     0.102 C 
BRANCH  12  13
ATOM     13  C   UNL d   1     -55.028-102.370 -42.569  0.00  0.00     0.021 C 
BRANCH  13  14
ATOM     14  C   UNL d   1     -55.259-102.494 -41.792  0.00  0.00     0.002 A 
ATOM     15  C   UNL d   1     -54.715-102.418 -41.171  0.00  0.00     0.002 A 
ATOM     16  C   UNL d   1     -54.946-102.543 -40.395  0.00  0.00     0.024 A 
ATOM     17  C   UNL d   1     -55.732-102.747 -40.221  0.00  0.00     0.094 A 
ATOM     18  C   UNL d   1     -56.284-102.826 -40.832  0.00  0.00     0.024 A 
ATOM     19  C   UNL d   1     -56.045-102.699 -41.619  0.00  0.00     0.002 A 
BRANCH  17  20
ATOM     20  O   UNL d   1     -55.964-102.872 -39.440  0.00  0.00    -0.328 OA
ATOM     21  C   UNL d   1     -55.433-102.724 -38.823  0.00  0.00     0.181 C 
ENDBRANCH  17  20
ENDBRANCH  13  14
ENDBRANCH  12  13
ENDBRANCH  11  12
ENDBRANCH   1   9
BRANCH   3  22
ATOM     22  C   UNL d   1     -57.558 -99.526 -44.893  0.00  0.00     0.316 C 
ATOM     23  O   UNL d   1     -57.838-100.176 -45.315  0.00  0.00    -0.257 OA
BRANCH  22  24
ATOM     24  O   UNL d   1     -58.017 -98.848 -44.819  0.00  0.00    -0.270 OA
BRANCH  24  25
ATOM     25  C   UNL d   1     -58.842 -98.910 -44.816  0.00  0.00     0.126 C 
ATOM     26  C   UNL d   1     -59.271 -98.755 -45.497  0.00  0.00     0.029 C 
ENDBRANCH  24  25
ENDBRANCH  22  24
ENDBRANCH   3  22
TORSDOF 8
ENDMDL
