MODEL 1
REMARK VINA RESULT:      -3.4      0.000      0.000
REMARK  1 active torsions:
REMARK  status: ('A' for Active; 'I' for Inactive)
REMARK    1  A    between atoms: C_12  and  N_2 
ROOT
ATOM      1  C   UNL d   1      30.644  17.402 -24.544  0.00  0.00     0.267 A 
ATOM      2  N   UNL d   1      29.879  17.175 -24.478  0.00  0.00    -0.271 N 
ATOM      3  C   UNL d   1      31.179  17.156 -24.185  0.00  0.00     0.081 A 
ATOM      4  C   UNL d   1      31.264  16.586 -23.597  0.00  0.00     0.105 A 
ATOM      5  O   UNL d   1      30.812  16.156 -23.262  0.00  0.00    -0.305 OA
ATOM      6  C   UNL d   1      29.589  16.591 -23.955  0.00  0.00     0.090 A 
ATOM      7  C   UNL d   1      30.016  16.119 -23.393  0.00  0.00     0.116 A 
ATOM      8  C   UNL d   1      31.835  17.572 -24.463  0.00  0.00     0.028 A 
ATOM      9  O   UNL d   1      30.807  17.989 -25.097  0.00  0.00    -0.267 OA
ATOM     10  C   UNL d   1      32.006  16.427 -23.282  0.00  0.00     0.026 A 
ATOM     11  C   UNL d   1      32.580  17.414 -24.148  0.00  0.00     0.103 A 
ATOM     12  N   UNL d   1      33.236  17.824 -24.420  0.00  0.00    -0.148 N 
ATOM     13  C   UNL d   1      32.666  16.838 -23.554  0.00  0.00     0.023 A 
ATOM     14  C   UNL d   1      28.748  16.493 -24.033  0.00  0.00     0.020 A 
ATOM     15  C   UNL d   1      29.610  15.553 -22.911  0.00  0.00     0.026 A 
ATOM     16  C   UNL d   1      28.341  15.924 -23.549  0.00  0.00     0.002 A 
ATOM     17  C   UNL d   1      28.777  15.453 -22.986  0.00  0.00     0.002 A 
ENDROOT
BRANCH   2  18
ATOM     18  C   UNL d   1      29.334  17.547 -24.964  0.00  0.00     0.083 C 
ATOM     19  C   UNL d   1      29.112  18.317 -24.814  0.00  0.00     0.021 C 
ENDBRANCH   2  18
TORSDOF 1
ENDMDL
MODEL 2
REMARK VINA RESULT:      -3.4      0.951      3.513
REMARK  1 active torsions:
REMARK  status: ('A' for Active; 'I' for Inactive)
REMARK    1  A    between atoms: C_12  and  N_2 
ROOT
ATOM      1  C   UNL d   1      30.890  16.302 -23.630  0.00  0.00     0.267 A 
ATOM      2  N   UNL d   1      31.631  16.585 -23.731  0.00  0.00    -0.271 N 
ATOM      3  C   UNL d   1      30.311  16.554 -23.909  0.00  0.00     0.081 A 
ATOM      4  C   UNL d   1      30.141  17.184 -24.411  0.00  0.00     0.105 A 
ATOM      5  O   UNL d   1      30.537  17.680 -24.725  0.00  0.00    -0.305 OA
ATOM      6  C   UNL d   1      31.839  17.245 -24.198  0.00  0.00     0.090 A 
ATOM      7  C   UNL d   1      31.338  17.752 -24.658  0.00  0.00     0.116 A 
ATOM      8  C   UNL d   1      29.706  16.065 -23.631  0.00  0.00     0.028 A 
ATOM      9  O   UNL d   1      30.809  15.642 -23.143  0.00  0.00    -0.267 OA
ATOM     10  C   UNL d   1      29.366  17.330 -24.639  0.00  0.00     0.026 A 
ATOM     11  C   UNL d   1      28.928  16.211 -23.860  0.00  0.00     0.103 A 
ATOM     12  N   UNL d   1      28.324  15.728 -23.587  0.00  0.00    -0.148 N 
ATOM     13  C   UNL d   1      28.757  16.846 -24.366  0.00  0.00     0.023 A 
ATOM     14  C   UNL d   1      32.678  17.388 -24.179  0.00  0.00     0.020 A 
ATOM     15  C   UNL d   1      31.667  18.398 -25.097  0.00  0.00     0.026 A 
ATOM     16  C   UNL d   1      33.006  18.038 -24.620  0.00  0.00     0.002 A 
ATOM     17  C   UNL d   1      32.496  18.543 -25.080  0.00  0.00     0.002 A 
ENDROOT
BRANCH   2  18
ATOM     18  C   UNL d   1      32.238  16.194 -23.342  0.00  0.00     0.083 C 
ATOM     19  C   UNL d   1      32.472  15.453 -23.592  0.00  0.00     0.021 C 
ENDBRANCH   2  18
TORSDOF 1
ENDMDL
MODEL 3
REMARK VINA RESULT:      -3.1      5.895      6.794
REMARK  1 active torsions:
REMARK  status: ('A' for Active; 'I' for Inactive)
REMARK    1  A    between atoms: C_12  and  N_2 
ROOT
ATOM      1  C   UNL d   1      32.887  22.167 -21.671  0.00  0.00     0.267 A 
ATOM      2  N   UNL d   1      32.874  22.809 -21.195  0.00  0.00    -0.271 N 
ATOM      3  C   UNL d   1      32.993  21.512 -21.478  0.00  0.00     0.081 A 
ATOM      4  C   UNL d   1      33.137  21.142 -20.758  0.00  0.00     0.105 A 
ATOM      5  O   UNL d   1      33.201  21.373 -20.092  0.00  0.00    -0.305 OA
ATOM      6  C   UNL d   1      32.989  22.803 -20.367  0.00  0.00     0.090 A 
ATOM      7  C   UNL d   1      33.140  22.143 -19.855  0.00  0.00     0.116 A 
ATOM      8  C   UNL d   1      32.950  21.072 -22.175  0.00  0.00     0.028 A 
ATOM      9  O   UNL d   1      32.760  22.300 -22.474  0.00  0.00    -0.267 OA
ATOM     10  C   UNL d   1      33.240  20.328 -20.728  0.00  0.00     0.026 A 
ATOM     11  C   UNL d   1      33.053  20.255 -22.146  0.00  0.00     0.103 A 
ATOM     12  N   UNL d   1      33.012  19.812 -22.835  0.00  0.00    -0.148 N 
ATOM     13  C   UNL d   1      33.199  19.881 -21.419  0.00  0.00     0.023 A 
ATOM     14  C   UNL d   1      32.939  23.587 -20.039  0.00  0.00     0.020 A 
ATOM     15  C   UNL d   1      33.241  22.260 -19.022  0.00  0.00     0.026 A 
ATOM     16  C   UNL d   1      33.041  23.702 -19.203  0.00  0.00     0.002 A 
ATOM     17  C   UNL d   1      33.192  23.034 -18.694  0.00  0.00     0.002 A 
ENDROOT
BRANCH   2  18
ATOM     18  C   UNL d   1      32.737  23.536 -21.549  0.00  0.00     0.083 C 
ATOM     19  C   UNL d   1      32.015  23.692 -21.895  0.00  0.00     0.021 C 
ENDBRANCH   2  18
TORSDOF 1
ENDMDL
MODEL 4
REMARK VINA RESULT:      -2.8      0.772      2.029
REMARK  1 active torsions:
REMARK  status: ('A' for Active; 'I' for Inactive)
REMARK    1  A    between atoms: C_12  and  N_2 
ROOT
ATOM      1  C   UNL d   1      30.655  16.102 -23.456  0.00  0.00     0.267 A 
ATOM      2  N   UNL d   1      29.890  16.189 -23.673  0.00  0.00    -0.271 N 
ATOM      3  C   UNL d   1      31.181  16.515 -23.625  0.00  0.00     0.081 A 
ATOM      4  C   UNL d   1      31.251  17.202 -24.072  0.00  0.00     0.105 A 
ATOM      5  O   UNL d   1      30.792  17.600 -24.436  0.00  0.00    -0.305 OA
ATOM      6  C   UNL d   1      29.588  16.805 -24.150  0.00  0.00     0.090 A 
ATOM      7  C   UNL d   1      30.000  17.457 -24.504  0.00  0.00     0.116 A 
ATOM      8  C   UNL d   1      31.843  16.182 -23.262  0.00  0.00     0.028 A 
ATOM      9  O   UNL d   1      30.832  15.453 -22.981  0.00  0.00    -0.267 OA
ATOM     10  C   UNL d   1      31.985  17.561 -24.162  0.00  0.00     0.026 A 
ATOM     11  C   UNL d   1      32.579  16.541 -23.351  0.00  0.00     0.103 A 
ATOM     12  N   UNL d   1      33.241  16.214 -22.993  0.00  0.00    -0.148 N 
ATOM     13  C   UNL d   1      32.650  17.234 -23.803  0.00  0.00     0.023 A 
ATOM     14  C   UNL d   1      28.749  16.723 -24.270  0.00  0.00     0.020 A 
ATOM     15  C   UNL d   1      29.583  18.025 -24.973  0.00  0.00     0.026 A 
ATOM     16  C   UNL d   1      28.331  17.295 -24.741  0.00  0.00     0.002 A 
ATOM     17  C   UNL d   1      28.753  17.948 -25.094  0.00  0.00     0.002 A 
ENDROOT
BRANCH   2  18
ATOM     18  C   UNL d   1      29.357  15.626 -23.405  0.00  0.00     0.083 C 
ATOM     19  C   UNL d   1      29.238  15.526 -22.604  0.00  0.00     0.021 C 
ENDBRANCH   2  18
TORSDOF 1
ENDMDL
MODEL 5
REMARK VINA RESULT:      -2.6      3.821      5.408
REMARK  1 active torsions:
REMARK  status: ('A' for Active; 'I' for Inactive)
REMARK    1  A    between atoms: C_12  and  N_2 
ROOT
ATOM      1  C   UNL d   1      33.215  20.058 -22.157  0.00  0.00     0.267 A 
ATOM      2  N   UNL d   1      33.219  20.854 -22.088  0.00  0.00    -0.271 N 
ATOM      3  C   UNL d   1      33.217  19.694 -22.744  0.00  0.00     0.081 A 
ATOM      4  C   UNL d   1      33.223  19.892 -23.542  0.00  0.00     0.105 A 
ATOM      5  O   UNL d   1      33.228  20.505 -23.895  0.00  0.00    -0.305 OA
ATOM      6  C   UNL d   1      33.226  21.396 -22.725  0.00  0.00     0.090 A 
ATOM      7  C   UNL d   1      33.230  21.239 -23.559  0.00  0.00     0.116 A 
ATOM      8  C   UNL d   1      33.211  18.903 -22.508  0.00  0.00     0.028 A 
ATOM      9  O   UNL d   1      33.208  19.627 -21.455  0.00  0.00    -0.267 OA
ATOM     10  C   UNL d   1      33.223  19.300 -24.112  0.00  0.00     0.026 A 
ATOM     11  C   UNL d   1      33.211  18.309 -23.078  0.00  0.00     0.103 A 
ATOM     12  N   UNL d   1      33.206  17.521 -22.850  0.00  0.00    -0.148 N 
ATOM     13  C   UNL d   1      33.217  18.508 -23.885  0.00  0.00     0.023 A 
ATOM     14  C   UNL d   1      33.228  22.201 -22.448  0.00  0.00     0.020 A 
ATOM     15  C   UNL d   1      33.237  21.878 -24.116  0.00  0.00     0.026 A 
ATOM     16  C   UNL d   1      33.235  22.841 -23.009  0.00  0.00     0.002 A 
ATOM     17  C   UNL d   1      33.240  22.675 -23.846  0.00  0.00     0.002 A 
ENDROOT
BRANCH   2  18
ATOM     18  C   UNL d   1      33.216  21.166 -21.330  0.00  0.00     0.083 C 
ATOM     19  C   UNL d   1      32.555  21.085 -20.858  0.00  0.00     0.021 C 
ENDBRANCH   2  18
TORSDOF 1
ENDMDL
MODEL 6
REMARK VINA RESULT:      -2.6      5.818      6.993
REMARK  1 active torsions:
REMARK  status: ('A' for Active; 'I' for Inactive)
REMARK    1  A    between atoms: C_12  and  N_2 
ROOT
ATOM      1  C   UNL d   1      33.239  21.737 -22.237  0.00  0.00     0.267 A 
ATOM      2  N   UNL d   1      33.238  21.659 -21.441  0.00  0.00    -0.271 N 
ATOM      3  C   UNL d   1      33.237  22.329 -22.593  0.00  0.00     0.081 A 
ATOM      4  C   UNL d   1      33.235  23.125 -22.384  0.00  0.00     0.105 A 
ATOM      5  O   UNL d   1      33.233  23.470 -21.766  0.00  0.00    -0.305 OA
ATOM      6  C   UNL d   1      33.235  22.288 -20.891  0.00  0.00     0.090 A 
ATOM      7  C   UNL d   1      33.233  23.124 -21.037  0.00  0.00     0.116 A 
ATOM      8  C   UNL d   1      33.239  22.103 -23.387  0.00  0.00     0.028 A 
ATOM      9  O   UNL d   1      33.241  21.041 -22.676  0.00  0.00    -0.267 OA
ATOM     10  C   UNL d   1      33.234  23.702 -22.968  0.00  0.00     0.026 A 
ATOM     11  C   UNL d   1      33.238  22.682 -23.973  0.00  0.00     0.103 A 
ATOM     12  N   UNL d   1      33.240  22.463 -24.764  0.00  0.00    -0.148 N 
ATOM     13  C   UNL d   1      33.236  23.485 -23.763  0.00  0.00     0.023 A 
ATOM     14  C   UNL d   1      33.235  22.001 -20.089  0.00  0.00     0.020 A 
ATOM     15  C   UNL d   1      33.231  23.673 -20.391  0.00  0.00     0.026 A 
ATOM     16  C   UNL d   1      33.233  22.553 -19.442  0.00  0.00     0.002 A 
ATOM     17  C   UNL d   1      33.231  23.393 -19.597  0.00  0.00     0.002 A 
ENDROOT
BRANCH   2  18
ATOM     18  C   UNL d   1      33.239  20.896 -21.139  0.00  0.00     0.083 C 
ATOM     19  C   UNL d   1      32.604  20.402 -21.274  0.00  0.00     0.021 C 
ENDBRANCH   2  18
TORSDOF 1
ENDMDL
MODEL 7
REMARK VINA RESULT:      -2.4      6.039      7.205
REMARK  1 active torsions:
REMARK  status: ('A' for Active; 'I' for Inactive)
REMARK    1  A    between atoms: C_12  and  N_2 
ROOT
ATOM      1  C   UNL d   1      33.120  21.730 -21.019  0.00  0.00     0.267 A 
ATOM      2  N   UNL d   1      33.169  21.643 -21.812  0.00  0.00    -0.271 N 
ATOM      3  C   UNL d   1      33.064  22.324 -20.671  0.00  0.00     0.081 A 
ATOM      4  C   UNL d   1      33.027  23.116 -20.889  0.00  0.00     0.105 A 
ATOM      5  O   UNL d   1      33.039  23.454 -21.511  0.00  0.00    -0.305 OA
ATOM      6  C   UNL d   1      33.161  22.266 -22.370  0.00  0.00     0.090 A 
ATOM      7  C   UNL d   1      33.101  23.102 -22.235  0.00  0.00     0.116 A 
ATOM      8  C   UNL d   1      33.035  22.106 -19.875  0.00  0.00     0.028 A 
ATOM      9  O   UNL d   1      33.139  21.039 -20.571  0.00  0.00    -0.267 OA
ATOM     10  C   UNL d   1      32.959  23.698 -20.314  0.00  0.00     0.026 A 
ATOM     11  C   UNL d   1      32.967  22.689 -19.297  0.00  0.00     0.103 A 
ATOM     12  N   UNL d   1      32.936  22.479 -18.505  0.00  0.00    -0.148 N 
ATOM     13  C   UNL d   1      32.928  23.489 -19.518  0.00  0.00     0.023 A 
ATOM     14  C   UNL d   1      33.222  21.972 -23.166  0.00  0.00     0.020 A 
ATOM     15  C   UNL d   1      33.103  23.643 -22.887  0.00  0.00     0.026 A 
ATOM     16  C   UNL d   1      33.224  22.517 -23.819  0.00  0.00     0.002 A 
ATOM     17  C   UNL d   1      33.164  23.356 -23.676  0.00  0.00     0.002 A 
ENDROOT
BRANCH   2  18
ATOM     18  C   UNL d   1      33.233  20.880 -22.104  0.00  0.00     0.083 C 
ATOM     19  C   UNL d   1      32.657  20.328 -21.931  0.00  0.00     0.021 C 
ENDBRANCH   2  18
TORSDOF 1
ENDMDL
MODEL 8
REMARK VINA RESULT:      -2.1      3.390      4.445
REMARK  1 active torsions:
REMARK  status: ('A' for Active; 'I' for Inactive)
REMARK    1  A    between atoms: C_12  and  N_2 
ROOT
ATOM      1  C   UNL d   1      33.239  20.382 -23.341  0.00  0.00     0.267 A 
ATOM      2  N   UNL d   1      33.238  19.751 -23.833  0.00  0.00    -0.271 N 
ATOM      3  C   UNL d   1      33.238  20.367 -22.651  0.00  0.00     0.081 A 
ATOM      4  C   UNL d   1      33.237  19.766 -22.089  0.00  0.00     0.105 A 
ATOM      5  O   UNL d   1      33.236  19.059 -22.128  0.00  0.00    -0.305 OA
ATOM      6  C   UNL d   1      33.237  18.950 -23.595  0.00  0.00     0.090 A 
ATOM      7  C   UNL d   1      33.236  18.627 -22.810  0.00  0.00     0.116 A 
ATOM      8  C   UNL d   1      33.239  21.159 -22.417  0.00  0.00     0.028 A 
ATOM      9  O   UNL d   1      33.240  21.126 -23.695  0.00  0.00    -0.267 OA
ATOM     10  C   UNL d   1      33.237  19.951 -21.289  0.00  0.00     0.026 A 
ATOM     11  C   UNL d   1      33.239  21.346 -21.615  0.00  0.00     0.103 A 
ATOM     12  N   UNL d   1      33.240  22.131 -21.377  0.00  0.00    -0.148 N 
ATOM     13  C   UNL d   1      33.238  20.739 -21.048  0.00  0.00     0.023 A 
ATOM     14  C   UNL d   1      33.237  18.426 -24.265  0.00  0.00     0.020 A 
ATOM     15  C   UNL d   1      33.234  17.788 -22.691  0.00  0.00     0.026 A 
ATOM     16  C   UNL d   1      33.235  17.584 -24.144  0.00  0.00     0.002 A 
ATOM     17  C   UNL d   1      33.234  17.267 -23.352  0.00  0.00     0.002 A 
ENDROOT
BRANCH   2  18
ATOM     18  C   UNL d   1      33.239  19.903 -24.638  0.00  0.00     0.083 C 
ATOM     19  C   UNL d   1      32.555  20.150 -25.008  0.00  0.00     0.021 C 
ENDBRANCH   2  18
TORSDOF 1
ENDMDL
MODEL 9
REMARK VINA RESULT:      -1.9      4.180      5.622
REMARK  1 active torsions:
REMARK  status: ('A' for Active; 'I' for Inactive)
REMARK    1  A    between atoms: C_12  and  N_2 
ROOT
ATOM      1  C   UNL d   1      33.210  20.198 -22.116  0.00  0.00     0.267 A 
ATOM      2  N   UNL d   1      33.219  19.916 -22.864  0.00  0.00    -0.271 N 
ATOM      3  C   UNL d   1      33.200  20.861 -21.924  0.00  0.00     0.081 A 
ATOM      4  C   UNL d   1      33.194  21.577 -22.331  0.00  0.00     0.105 A 
ATOM      5  O   UNL d   1      33.197  21.750 -23.017  0.00  0.00    -0.305 OA
ATOM      6  C   UNL d   1      33.219  20.382 -23.558  0.00  0.00     0.090 A 
ATOM      7  C   UNL d   1      33.209  21.228 -23.633  0.00  0.00     0.116 A 
ATOM      8  C   UNL d   1      33.194  20.848 -21.099  0.00  0.00     0.028 A 
ATOM      9  O   UNL d   1      33.212  19.639 -21.511  0.00  0.00    -0.267 OA
ATOM     10  C   UNL d   1      33.182  22.285 -21.916  0.00  0.00     0.026 A 
ATOM     11  C   UNL d   1      33.181  21.558 -20.682  0.00  0.00     0.103 A 
ATOM     12  N   UNL d   1      33.175  21.552 -19.861  0.00  0.00    -0.148 N 
ATOM     13  C   UNL d   1      33.175  22.281 -21.092  0.00  0.00     0.023 A 
ATOM     14  C   UNL d   1      33.231  19.898 -24.258  0.00  0.00     0.020 A 
ATOM     15  C   UNL d   1      33.210  21.591 -24.398  0.00  0.00     0.026 A 
ATOM     16  C   UNL d   1      33.232  20.265 -25.026  0.00  0.00     0.002 A 
ATOM     17  C   UNL d   1      33.222  21.115 -25.093  0.00  0.00     0.002 A 
ENDROOT
BRANCH   2  18
ATOM     18  C   UNL d   1      33.231  19.102 -22.959  0.00  0.00     0.083 C 
ATOM     19  C   UNL d   1      32.538  18.674 -22.898  0.00  0.00     0.021 C 
ENDBRANCH   2  18
TORSDOF 1
ENDMDL
