MODEL 1
REMARK VINA RESULT:      -5.4      0.000      0.000
REMARK  7 active torsions:
REMARK  status: ('A' for Active; 'I' for Inactive)
REMARK    1  A    between atoms: C_7  and  C_1 
REMARK    2  A    between atoms: N_5  and  C_2 
REMARK       I    between atoms: C_8  and  N_5 
REMARK    3  A    between atoms: N_9  and  C_7 
REMARK    4  A    between atoms: C_11  and  C_7 
REMARK    5  A    between atoms: C_15  and  C_8 
REMARK    6  A    between atoms: O_25  and  C_20 
REMARK    7  A    between atoms: C_29  and  O_25 
ROOT
ATOM      1  C   UNL d   1      52.061  33.270  53.108  0.00  0.00     0.066 C 
ENDROOT
BRANCH   1   2
ATOM      2  C   UNL d   1      52.535  33.744  53.581  0.00  0.00     0.041 A 
ATOM      3  C   UNL d   1      53.352  33.848  53.600  0.00  0.00     0.115 A 
ATOM      4  S   UNL d   1      53.518  34.398  54.195  0.00  0.00    -0.068 SA
ATOM      5  C   UNL d   1      52.802  34.622  54.530  0.00  0.00     0.031 A 
ATOM      6  C   UNL d   1      52.191  34.220  54.154  0.00  0.00     0.009 A 
ATOM      7  C   UNL d   1      52.747  35.190  55.171  0.00  0.00     0.007 C 
ATOM      8  C   UNL d   1      51.360  34.268  54.306  0.00  0.00     0.001 C 
BRANCH   3   9
ATOM      9  N   UNL d   1      53.922  33.487  53.128  0.00  0.00    -0.201 NA
ATOM     10  C   UNL d   1      54.656  33.269  53.439  0.00  0.00     0.280 C 
ATOM     11  O   UNL d   1      55.226  32.901  52.946  0.00  0.00    -0.265 OA
BRANCH  10  12
ATOM     12  C   UNL d   1      54.816  33.415  54.227  0.00  0.00     0.058 A 
ATOM     13  C   UNL d   1      54.574  32.883  54.795  0.00  0.00     0.005 A 
ATOM     14  C   UNL d   1      54.732  33.026  55.579  0.00  0.00     0.000 A 
ATOM     15  C   UNL d   1      55.130  33.696  55.802  0.00  0.00     0.000 A 
ATOM     16  C   UNL d   1      55.377  34.238  55.235  0.00  0.00     0.000 A 
ATOM     17  C   UNL d   1      55.221  34.100  54.442  0.00  0.00     0.005 A 
ENDBRANCH  10  12
ENDBRANCH   3   9
ENDBRANCH   1   2
BRANCH   1  18
ATOM     18  N   UNL d   1      52.128  32.444  53.145  0.00  0.00    -0.301 N 
ATOM     19  C   UNL d   1      51.763  32.010  53.771  0.00  0.00     0.100 A 
ATOM     20  C   UNL d   1      51.848  31.173  53.783  0.00  0.00     0.100 A 
ATOM     21  N   UNL d   1      52.274  30.763  53.207  0.00  0.00    -0.299 N 
ATOM     22  C   UNL d   1      52.639  31.197  52.580  0.00  0.00     0.100 A 
ATOM     23  C   UNL d   1      52.342  29.933  53.242  0.00  0.00     0.100 C 
ATOM     24  C   UNL d   1      52.562  32.019  52.559  0.00  0.00     0.100 A 
ENDBRANCH   1  18
BRANCH   1  25
ATOM     25  C   UNL d   1      51.510  33.604  52.587  0.00  0.00     0.016 A 
ATOM     26  C   UNL d   1      50.711  33.543  52.753  0.00  0.00     0.004 A 
ATOM     27  C   UNL d   1      50.151  33.864  52.255  0.00  0.00     0.025 A 
ATOM     28  C   UNL d   1      50.380  34.265  51.561  0.00  0.00     0.100 A 
ATOM     29  C   UNL d   1      51.208  34.338  51.372  0.00  0.00     0.025 A 
ATOM     30  C   UNL d   1      51.775  34.000  51.898  0.00  0.00     0.004 A 
BRANCH  28  31
ATOM     31  O   UNL d   1      49.816  34.589  51.059  0.00  0.00    -0.305 OA
BRANCH  31  32
ATOM     32  C   UNL d   1      49.005  34.468  51.201  0.00  0.00     0.123 C 
ATOM     33  C   UNL d   1      48.437  34.777  50.684  0.00  0.00     0.029 C 
ENDBRANCH  31  32
ENDBRANCH  28  31
ENDBRANCH   1  25
TORSDOF 7
ENDMDL
MODEL 2
REMARK VINA RESULT:      -5.3      1.217      3.026
REMARK  7 active torsions:
REMARK  status: ('A' for Active; 'I' for Inactive)
REMARK    1  A    between atoms: C_7  and  C_1 
REMARK    2  A    between atoms: N_5  and  C_2 
REMARK       I    between atoms: C_8  and  N_5 
REMARK    3  A    between atoms: N_9  and  C_7 
REMARK    4  A    between atoms: C_11  and  C_7 
REMARK    5  A    between atoms: C_15  and  C_8 
REMARK    6  A    between atoms: O_25  and  C_20 
REMARK    7  A    between atoms: C_29  and  O_25 
ROOT
ATOM      1  C   UNL d   1      52.081  33.289  53.061  0.00  0.00     0.066 C 
ENDROOT
BRANCH   1   2
ATOM      2  C   UNL d   1      52.542  33.770  53.542  0.00  0.00     0.041 A 
ATOM      3  C   UNL d   1      53.357  33.879  53.578  0.00  0.00     0.115 A 
ATOM      4  S   UNL d   1      53.507  34.433  54.173  0.00  0.00    -0.068 SA
ATOM      5  C   UNL d   1      52.783  34.655  54.491  0.00  0.00     0.031 A 
ATOM      6  C   UNL d   1      52.182  34.246  54.104  0.00  0.00     0.009 A 
ATOM      7  C   UNL d   1      52.710  35.226  55.127  0.00  0.00     0.007 C 
ATOM      8  C   UNL d   1      51.348  34.290  54.238  0.00  0.00     0.001 C 
BRANCH   3   9
ATOM      9  N   UNL d   1      53.940  33.517  53.121  0.00  0.00    -0.201 NA
ATOM     10  C   UNL d   1      54.659  33.285  53.456  0.00  0.00     0.280 C 
ATOM     11  O   UNL d   1      55.243  32.918  52.977  0.00  0.00    -0.265 OA
BRANCH  10  12
ATOM     12  C   UNL d   1      54.791  33.415  54.251  0.00  0.00     0.058 A 
ATOM     13  C   UNL d   1      54.539  32.868  54.800  0.00  0.00     0.005 A 
ATOM     14  C   UNL d   1      54.669  32.995  55.591  0.00  0.00     0.000 A 
ATOM     15  C   UNL d   1      55.051  33.665  55.841  0.00  0.00     0.000 A 
ATOM     16  C   UNL d   1      55.309  34.223  55.294  0.00  0.00     0.000 A 
ATOM     17  C   UNL d   1      55.180  34.101  54.494  0.00  0.00     0.005 A 
ENDBRANCH  10  12
ENDBRANCH   3   9
ENDBRANCH   1   2
BRANCH   1  18
ATOM     18  N   UNL d   1      51.578  33.626  52.494  0.00  0.00    -0.301 N 
ATOM     19  C   UNL d   1      51.895  33.998  51.805  0.00  0.00     0.100 A 
ATOM     20  C   UNL d   1      51.360  34.332  51.247  0.00  0.00     0.100 A 
ATOM     21  N   UNL d   1      50.542  34.308  51.350  0.00  0.00    -0.299 N 
ATOM     22  C   UNL d   1      50.225  33.936  52.039  0.00  0.00     0.100 A 
ATOM     23  C   UNL d   1      50.034  34.646  50.780  0.00  0.00     0.100 C 
ATOM     24  C   UNL d   1      50.741  33.605  52.593  0.00  0.00     0.100 A 
ENDBRANCH   1  18
BRANCH   1  25
ATOM     25  C   UNL d   1      52.109  32.464  53.132  0.00  0.00     0.016 A 
ATOM     26  C   UNL d   1      52.548  32.029  52.595  0.00  0.00     0.004 A 
ATOM     27  C   UNL d   1      52.589  31.216  52.646  0.00  0.00     0.025 A 
ATOM     28  C   UNL d   1      52.185  30.807  53.248  0.00  0.00     0.100 A 
ATOM     29  C   UNL d   1      51.723  31.244  53.816  0.00  0.00     0.025 A 
ATOM     30  C   UNL d   1      51.690  32.085  53.750  0.00  0.00     0.004 A 
BRANCH  28  31
ATOM     31  O   UNL d   1      52.227  29.988  53.299  0.00  0.00    -0.305 OA
BRANCH  31  32
ATOM     32  C   UNL d   1      52.939  29.613  53.515  0.00  0.00     0.123 C 
ATOM     33  C   UNL d   1      52.929  28.907  53.945  0.00  0.00     0.029 C 
ENDBRANCH  31  32
ENDBRANCH  28  31
ENDBRANCH   1  25
TORSDOF 7
ENDMDL
MODEL 3
REMARK VINA RESULT:      -4.6      1.494      3.203
REMARK  7 active torsions:
REMARK  status: ('A' for Active; 'I' for Inactive)
REMARK    1  A    between atoms: C_7  and  C_1 
REMARK    2  A    between atoms: N_5  and  C_2 
REMARK       I    between atoms: C_8  and  N_5 
REMARK    3  A    between atoms: N_9  and  C_7 
REMARK    4  A    between atoms: C_11  and  C_7 
REMARK    5  A    between atoms: C_15  and  C_8 
REMARK    6  A    between atoms: O_25  and  C_20 
REMARK    7  A    between atoms: C_29  and  O_25 
ROOT
ATOM      1  C   UNL d   1      52.464  33.625  53.306  0.00  0.00     0.066 C 
ENDROOT
BRANCH   1   2
ATOM      2  C   UNL d   1      52.882  32.926  53.194  0.00  0.00     0.041 A 
ATOM      3  C   UNL d   1      52.638  32.141  53.204  0.00  0.00     0.115 A 
ATOM      4  S   UNL d   1      53.303  31.672  53.057  0.00  0.00    -0.068 SA
ATOM      5  C   UNL d   1      53.944  32.178  52.959  0.00  0.00     0.031 A 
ATOM      6  C   UNL d   1      53.688  32.956  53.044  0.00  0.00     0.009 A 
ATOM      7  C   UNL d   1      54.737  31.896  52.796  0.00  0.00     0.007 C 
ATOM      8  C   UNL d   1      54.144  33.666  52.990  0.00  0.00     0.001 C 
BRANCH   3   9
ATOM      9  N   UNL d   1      51.880  31.844  53.334  0.00  0.00    -0.201 NA
ATOM     10  C   UNL d   1      51.760  31.046  53.511  0.00  0.00     0.280 C 
ATOM     11  O   UNL d   1      50.982  30.759  53.640  0.00  0.00    -0.265 OA
BRANCH  10  12
ATOM     12  C   UNL d   1      52.404  30.545  53.558  0.00  0.00     0.058 A 
ATOM     13  C   UNL d   1      52.782  30.436  54.271  0.00  0.00     0.005 A 
ATOM     14  C   UNL d   1      53.422  29.939  54.320  0.00  0.00     0.000 A 
ATOM     15  C   UNL d   1      53.690  29.548  53.663  0.00  0.00     0.000 A 
ATOM     16  C   UNL d   1      53.314  29.652  52.938  0.00  0.00     0.000 A 
ATOM     17  C   UNL d   1      52.667  30.153  52.881  0.00  0.00     0.005 A 
ENDBRANCH  10  12
ENDBRANCH   3   9
ENDBRANCH   1   2
BRANCH   1  18
ATOM     18  N   UNL d   1      52.661  34.134  53.930  0.00  0.00    -0.301 N 
ATOM     19  C   UNL d   1      52.655  33.858  54.728  0.00  0.00     0.100 A 
ATOM     20  C   UNL d   1      52.859  34.397  55.341  0.00  0.00     0.100 A 
ATOM     21  N   UNL d   1      53.063  35.182  55.190  0.00  0.00    -0.299 N 
ATOM     22  C   UNL d   1      53.069  35.459  54.391  0.00  0.00     0.100 A 
ATOM     23  C   UNL d   1      53.262  35.696  55.817  0.00  0.00     0.100 C 
ATOM     24  C   UNL d   1      52.870  34.937  53.782  0.00  0.00     0.100 A 
ENDBRANCH   1  18
BRANCH   1  25
ATOM     25  C   UNL d   1      51.841  33.832  52.800  0.00  0.00     0.016 A 
ATOM     26  C   UNL d   1      51.074  33.827  53.083  0.00  0.00     0.004 A 
ATOM     27  C   UNL d   1      50.446  34.028  52.603  0.00  0.00     0.025 A 
ATOM     28  C   UNL d   1      50.571  34.245  51.808  0.00  0.00     0.100 A 
ATOM     29  C   UNL d   1      51.364  34.256  51.496  0.00  0.00     0.025 A 
ATOM     30  C   UNL d   1      52.003  34.046  52.006  0.00  0.00     0.004 A 
BRANCH  28  31
ATOM     31  O   UNL d   1      49.938  34.447  51.325  0.00  0.00    -0.305 OA
BRANCH  31  32
ATOM     32  C   UNL d   1      49.181  34.568  51.648  0.00  0.00     0.123 C 
ATOM     33  C   UNL d   1      48.547  34.783  51.163  0.00  0.00     0.029 C 
ENDBRANCH  31  32
ENDBRANCH  28  31
ENDBRANCH   1  25
TORSDOF 7
ENDMDL
MODEL 4
REMARK VINA RESULT:      -4.3      1.673      3.639
REMARK  7 active torsions:
REMARK  status: ('A' for Active; 'I' for Inactive)
REMARK    1  A    between atoms: C_7  and  C_1 
REMARK    2  A    between atoms: N_5  and  C_2 
REMARK       I    between atoms: C_8  and  N_5 
REMARK    3  A    between atoms: N_9  and  C_7 
REMARK    4  A    between atoms: C_11  and  C_7 
REMARK    5  A    between atoms: C_15  and  C_8 
REMARK    6  A    between atoms: O_25  and  C_20 
REMARK    7  A    between atoms: C_29  and  O_25 
ROOT
ATOM      1  C   UNL d   1      53.218  32.538  53.614  0.00  0.00     0.066 C 
ENDROOT
BRANCH   1   2
ATOM      2  C   UNL d   1      53.407  31.790  53.331  0.00  0.00     0.041 A 
ATOM      3  C   UNL d   1      52.960  31.101  53.282  0.00  0.00     0.115 A 
ATOM      4  S   UNL d   1      53.441  30.517  52.948  0.00  0.00    -0.068 SA
ATOM      5  C   UNL d   1      54.174  30.857  52.799  0.00  0.00     0.031 A 
ATOM      6  C   UNL d   1      54.158  31.646  53.035  0.00  0.00     0.009 A 
ATOM      7  C   UNL d   1      54.826  30.422  52.452  0.00  0.00     0.007 C 
ATOM      8  C   UNL d   1      54.779  32.219  52.992  0.00  0.00     0.001 C 
BRANCH   3   9
ATOM      9  N   UNL d   1      52.178  30.983  53.512  0.00  0.00    -0.201 NA
ATOM     10  C   UNL d   1      51.949  30.290  53.899  0.00  0.00     0.280 C 
ATOM     11  O   UNL d   1      51.148  30.185  54.128  0.00  0.00    -0.265 OA
BRANCH  10  12
ATOM     12  C   UNL d   1      52.507  29.715  54.055  0.00  0.00     0.058 A 
ATOM     13  C   UNL d   1      52.873  29.690  54.783  0.00  0.00     0.005 A 
ATOM     14  C   UNL d   1      53.429  29.119  54.940  0.00  0.00     0.000 A 
ATOM     15  C   UNL d   1      53.623  28.570  54.376  0.00  0.00     0.000 A 
ATOM     16  C   UNL d   1      53.259  28.588  53.638  0.00  0.00     0.000 A 
ATOM     17  C   UNL d   1      52.697  29.162  53.473  0.00  0.00     0.005 A 
ENDBRANCH  10  12
ENDBRANCH   3   9
ENDBRANCH   1   2
BRANCH   1  18
ATOM     18  N   UNL d   1      53.642  32.864  54.248  0.00  0.00    -0.301 N 
ATOM     19  C   UNL d   1      53.513  32.590  55.037  0.00  0.00     0.100 A 
ATOM     20  C   UNL d   1      53.958  32.940  55.660  0.00  0.00     0.100 A 
ATOM     21  N   UNL d   1      54.511  33.537  55.528  0.00  0.00    -0.299 N 
ATOM     22  C   UNL d   1      54.639  33.811  54.739  0.00  0.00     0.100 A 
ATOM     23  C   UNL d   1      54.938  33.866  56.165  0.00  0.00     0.100 C 
ATOM     24  C   UNL d   1      54.208  33.475  54.120  0.00  0.00     0.100 A 
ENDBRANCH   1  18
BRANCH   1  25
ATOM     25  C   UNL d   1      52.605  32.979  53.273  0.00  0.00     0.016 A 
ATOM     26  C   UNL d   1      52.712  33.313  52.534  0.00  0.00     0.004 A 
ATOM     27  C   UNL d   1      52.122  33.751  52.179  0.00  0.00     0.025 A 
ATOM     28  C   UNL d   1      51.392  33.869  52.563  0.00  0.00     0.100 A 
ATOM     29  C   UNL d   1      51.263  33.528  53.333  0.00  0.00     0.025 A 
ATOM     30  C   UNL d   1      51.883  33.078  53.686  0.00  0.00     0.004 A 
BRANCH  28  31
ATOM     31  O   UNL d   1      50.798  34.310  52.206  0.00  0.00    -0.305 OA
BRANCH  31  32
ATOM     32  C   UNL d   1      50.063  34.412  52.582  0.00  0.00     0.123 C 
ATOM     33  C   UNL d   1      49.435  34.779  52.187  0.00  0.00     0.029 C 
ENDBRANCH  31  32
ENDBRANCH  28  31
ENDBRANCH   1  25
TORSDOF 7
ENDMDL
MODEL 5
REMARK VINA RESULT:      -4.2      1.270      1.910
REMARK  7 active torsions:
REMARK  status: ('A' for Active; 'I' for Inactive)
REMARK    1  A    between atoms: C_7  and  C_1 
REMARK    2  A    between atoms: N_5  and  C_2 
REMARK       I    between atoms: C_8  and  N_5 
REMARK    3  A    between atoms: N_9  and  C_7 
REMARK    4  A    between atoms: C_11  and  C_7 
REMARK    5  A    between atoms: C_15  and  C_8 
REMARK    6  A    between atoms: O_25  and  C_20 
REMARK    7  A    between atoms: C_29  and  O_25 
ROOT
ATOM      1  C   UNL d   1      52.868  32.201  53.251  0.00  0.00     0.066 C 
ENDROOT
BRANCH   1   2
ATOM      2  C   UNL d   1      53.623  32.483  53.410  0.00  0.00     0.041 A 
ATOM      3  C   UNL d   1      54.063  32.492  54.106  0.00  0.00     0.115 A 
ATOM      4  S   UNL d   1      54.790  32.847  53.935  0.00  0.00    -0.068 SA
ATOM      5  C   UNL d   1      54.785  33.048  53.139  0.00  0.00     0.031 A 
ATOM      6  C   UNL d   1      54.064  32.825  52.809  0.00  0.00     0.009 A 
ATOM      7  C   UNL d   1      55.448  33.431  52.752  0.00  0.00     0.007 C 
ATOM      8  C   UNL d   1      53.802  32.917  52.010  0.00  0.00     0.001 C 
BRANCH   3   9
ATOM      9  N   UNL d   1      53.847  32.210  54.849  0.00  0.00    -0.201 NA
ATOM     10  C   UNL d   1      53.975  32.661  55.529  0.00  0.00     0.280 C 
ATOM     11  O   UNL d   1      53.750  32.359  56.279  0.00  0.00    -0.265 OA
BRANCH  10  12
ATOM     12  C   UNL d   1      54.322  33.397  55.462  0.00  0.00     0.058 A 
ATOM     13  C   UNL d   1      55.134  33.465  55.460  0.00  0.00     0.005 A 
ATOM     14  C   UNL d   1      55.482  34.196  55.393  0.00  0.00     0.000 A 
ATOM     15  C   UNL d   1      55.025  34.862  55.328  0.00  0.00     0.000 A 
ATOM     16  C   UNL d   1      54.204  34.803  55.329  0.00  0.00     0.000 A 
ATOM     17  C   UNL d   1      53.847  34.068  55.397  0.00  0.00     0.005 A 
ENDBRANCH  10  12
ENDBRANCH   3   9
ENDBRANCH   1   2
BRANCH   1  18
ATOM     18  N   UNL d   1      52.734  31.386  53.178  0.00  0.00    -0.301 N 
ATOM     19  C   UNL d   1      52.316  30.963  53.778  0.00  0.00     0.100 A 
ATOM     20  C   UNL d   1      52.195  30.136  53.676  0.00  0.00     0.100 A 
ATOM     21  N   UNL d   1      52.469  29.727  53.014  0.00  0.00    -0.299 N 
ATOM     22  C   UNL d   1      52.887  30.150  52.414  0.00  0.00     0.100 A 
ATOM     23  C   UNL d   1      52.335  28.907  52.939  0.00  0.00     0.100 C 
ATOM     24  C   UNL d   1      53.011  30.962  52.504  0.00  0.00     0.100 A 
ENDBRANCH   1  18
BRANCH   1  25
ATOM     25  C   UNL d   1      52.230  32.722  53.161  0.00  0.00     0.016 A 
ATOM     26  C   UNL d   1      51.627  32.718  53.714  0.00  0.00     0.004 A 
ATOM     27  C   UNL d   1      50.989  33.222  53.645  0.00  0.00     0.025 A 
ATOM     28  C   UNL d   1      50.937  33.755  53.007  0.00  0.00     0.100 A 
ATOM     29  C   UNL d   1      51.556  33.773  52.422  0.00  0.00     0.025 A 
ATOM     30  C   UNL d   1      52.209  33.245  52.507  0.00  0.00     0.004 A 
BRANCH  28  31
ATOM     31  O   UNL d   1      50.294  34.263  52.938  0.00  0.00    -0.305 OA
BRANCH  31  32
ATOM     32  C   UNL d   1      49.901  34.351  52.210  0.00  0.00     0.123 C 
ATOM     33  C   UNL d   1      49.215  34.811  52.155  0.00  0.00     0.029 C 
ENDBRANCH  31  32
ENDBRANCH  28  31
ENDBRANCH   1  25
TORSDOF 7
ENDMDL
MODEL 6
REMARK VINA RESULT:      -4.1      1.506      4.509
REMARK  7 active torsions:
REMARK  status: ('A' for Active; 'I' for Inactive)
REMARK    1  A    between atoms: C_7  and  C_1 
REMARK    2  A    between atoms: N_5  and  C_2 
REMARK       I    between atoms: C_8  and  N_5 
REMARK    3  A    between atoms: N_9  and  C_7 
REMARK    4  A    between atoms: C_11  and  C_7 
REMARK    5  A    between atoms: C_15  and  C_8 
REMARK    6  A    between atoms: O_25  and  C_20 
REMARK    7  A    between atoms: C_29  and  O_25 
ROOT
ATOM      1  C   UNL d   1      53.428  32.907  53.806  0.00  0.00     0.066 C 
ENDROOT
BRANCH   1   2
ATOM      2  C   UNL d   1      52.965  33.410  53.350  0.00  0.00     0.041 A 
ATOM      3  C   UNL d   1      52.181  33.646  53.430  0.00  0.00     0.115 A 
ATOM      4  S   UNL d   1      52.012  34.161  52.805  0.00  0.00    -0.068 SA
ATOM      5  C   UNL d   1      52.695  34.231  52.353  0.00  0.00     0.031 A 
ATOM      6  C   UNL d   1      53.288  33.768  52.686  0.00  0.00     0.009 A 
ATOM      7  C   UNL d   1      52.738  34.722  51.651  0.00  0.00     0.007 C 
ATOM      8  C   UNL d   1      54.083  33.662  52.418  0.00  0.00     0.001 C 
BRANCH   3   9
ATOM      9  N   UNL d   1      51.640  33.429  54.012  0.00  0.00    -0.201 NA
ATOM     10  C   UNL d   1      50.827  33.488  53.880  0.00  0.00     0.280 C 
ATOM     11  O   UNL d   1      50.289  33.262  54.483  0.00  0.00    -0.265 OA
BRANCH  10  12
ATOM     12  C   UNL d   1      50.557  33.766  53.161  0.00  0.00     0.058 A 
ATOM     13  C   UNL d   1      50.376  34.555  53.074  0.00  0.00     0.005 A 
ATOM     14  C   UNL d   1      50.107  34.835  52.360  0.00  0.00     0.000 A 
ATOM     15  C   UNL d   1      50.017  34.332  51.730  0.00  0.00     0.000 A 
ATOM     16  C   UNL d   1      50.198  33.533  51.810  0.00  0.00     0.000 A 
ATOM     17  C   UNL d   1      50.469  33.245  52.528  0.00  0.00     0.005 A 
ENDBRANCH  10  12
ENDBRANCH   3   9
ENDBRANCH   1   2
BRANCH   1  18
ATOM     18  N   UNL d   1      53.967  33.218  54.354  0.00  0.00    -0.301 N 
ATOM     19  C   UNL d   1      54.792  33.248  54.177  0.00  0.00     0.100 A 
ATOM     20  C   UNL d   1      55.315  33.569  54.753  0.00  0.00     0.100 A 
ATOM     21  N   UNL d   1      55.051  33.854  55.480  0.00  0.00    -0.299 N 
ATOM     22  C   UNL d   1      54.225  33.824  55.658  0.00  0.00     0.100 A 
ATOM     23  C   UNL d   1      55.591  34.168  56.033  0.00  0.00     0.100 C 
ATOM     24  C   UNL d   1      53.703  33.511  55.099  0.00  0.00     0.100 A 
ENDBRANCH   1  18
BRANCH   1  25
ATOM     25  C   UNL d   1      53.366  32.084  53.727  0.00  0.00     0.016 A 
ATOM     26  C   UNL d   1      53.172  31.631  54.379  0.00  0.00     0.004 A 
ATOM     27  C   UNL d   1      53.106  30.820  54.325  0.00  0.00     0.025 A 
ATOM     28  C   UNL d   1      53.235  30.431  53.600  0.00  0.00     0.100 A 
ATOM     29  C   UNL d   1      53.439  30.887  52.909  0.00  0.00     0.025 A 
ATOM     30  C   UNL d   1      53.504  31.726  52.982  0.00  0.00     0.004 A 
BRANCH  28  31
ATOM     31  O   UNL d   1      53.169  29.614  53.545  0.00  0.00    -0.305 OA
BRANCH  31  32
ATOM     32  C   UNL d   1      53.111  29.147  54.232  0.00  0.00     0.123 C 
ATOM     33  C   UNL d   1      53.491  28.414  54.274  0.00  0.00     0.029 C 
ENDBRANCH  31  32
ENDBRANCH  28  31
ENDBRANCH   1  25
TORSDOF 7
ENDMDL
MODEL 7
REMARK VINA RESULT:      -3.7      1.572      3.629
REMARK  7 active torsions:
REMARK  status: ('A' for Active; 'I' for Inactive)
REMARK    1  A    between atoms: C_7  and  C_1 
REMARK    2  A    between atoms: N_5  and  C_2 
REMARK       I    between atoms: C_8  and  N_5 
REMARK    3  A    between atoms: N_9  and  C_7 
REMARK    4  A    between atoms: C_11  and  C_7 
REMARK    5  A    between atoms: C_15  and  C_8 
REMARK    6  A    between atoms: O_25  and  C_20 
REMARK    7  A    between atoms: C_29  and  O_25 
ROOT
ATOM      1  C   UNL d   1      52.881  32.481  53.315  0.00  0.00     0.066 C 
ENDROOT
BRANCH   1   2
ATOM      2  C   UNL d   1      53.574  32.913  53.406  0.00  0.00     0.041 A 
ATOM      3  C   UNL d   1      53.736  33.593  53.839  0.00  0.00     0.115 A 
ATOM      4  S   UNL d   1      54.534  33.778  53.722  0.00  0.00    -0.068 SA
ATOM      5  C   UNL d   1      54.847  33.208  53.219  0.00  0.00     0.031 A 
ATOM      6  C   UNL d   1      54.256  32.670  53.020  0.00  0.00     0.009 A 
ATOM      7  C   UNL d   1      55.666  33.212  52.966  0.00  0.00     0.007 C 
ATOM      8  C   UNL d   1      54.312  31.991  52.519  0.00  0.00     0.001 C 
BRANCH   3   9
ATOM      9  N   UNL d   1      53.222  34.031  54.312  0.00  0.00    -0.201 NA
ATOM     10  C   UNL d   1      53.463  34.320  55.047  0.00  0.00     0.280 C 
ATOM     11  O   UNL d   1      52.928  34.764  55.517  0.00  0.00    -0.265 OA
BRANCH  10  12
ATOM     12  C   UNL d   1      54.222  34.169  55.308  0.00  0.00     0.058 A 
ATOM     13  C   UNL d   1      54.364  33.532  55.797  0.00  0.00     0.005 A 
ATOM     14  C   UNL d   1      55.118  33.380  56.058  0.00  0.00     0.000 A 
ATOM     15  C   UNL d   1      55.734  33.857  55.835  0.00  0.00     0.000 A 
ATOM     16  C   UNL d   1      55.600  34.502  55.341  0.00  0.00     0.000 A 
ATOM     17  C   UNL d   1      54.841  34.661  55.074  0.00  0.00     0.005 A 
ENDBRANCH  10  12
ENDBRANCH   3   9
ENDBRANCH   1   2
BRANCH   1  18
ATOM     18  N   UNL d   1      52.189  32.854  53.051  0.00  0.00    -0.301 N 
ATOM     19  C   UNL d   1      52.176  33.263  52.311  0.00  0.00     0.100 A 
ATOM     20  C   UNL d   1      51.460  33.632  52.069  0.00  0.00     0.100 A 
ATOM     21  N   UNL d   1      50.773  33.609  52.526  0.00  0.00    -0.299 N 
ATOM     22  C   UNL d   1      50.785  33.200  53.265  0.00  0.00     0.100 A 
ATOM     23  C   UNL d   1      50.076  33.984  52.261  0.00  0.00     0.100 C 
ATOM     24  C   UNL d   1      51.484  32.834  53.513  0.00  0.00     0.100 A 
ENDBRANCH   1  18
BRANCH   1  25
ATOM     25  C   UNL d   1      52.859  31.671  53.485  0.00  0.00     0.016 A 
ATOM     26  C   UNL d   1      52.938  31.420  54.259  0.00  0.00     0.004 A 
ATOM     27  C   UNL d   1      52.920  30.626  54.450  0.00  0.00     0.025 A 
ATOM     28  C   UNL d   1      52.819  30.050  53.856  0.00  0.00     0.100 A 
ATOM     29  C   UNL d   1      52.735  30.294  53.044  0.00  0.00     0.025 A 
ATOM     30  C   UNL d   1      52.756  31.118  52.864  0.00  0.00     0.004 A 
BRANCH  28  31
ATOM     31  O   UNL d   1      52.801  29.251  54.048  0.00  0.00    -0.305 OA
BRANCH  31  32
ATOM     32  C   UNL d   1      53.322  28.941  54.618  0.00  0.00     0.123 C 
ATOM     33  C   UNL d   1      53.359  28.126  54.754  0.00  0.00     0.029 C 
ENDBRANCH  31  32
ENDBRANCH  28  31
ENDBRANCH   1  25
TORSDOF 7
ENDMDL
