MODEL 1
REMARK VINA RESULT:      22.5      0.000      0.000
REMARK  4 active torsions:
REMARK  status: ('A' for Active; 'I' for Inactive)
REMARK       I    between atoms: C_2  and  N_1 
REMARK    1  A    between atoms: C_3  and  N_1 
REMARK    2  A    between atoms: C_5  and  C_2 
REMARK    3  A    between atoms: C_4  and  C_3 
REMARK    4  A    between atoms: N_6  and  C_3 
ROOT
ATOM      1  C   UNL d   1      14.416  13.140  -0.908  0.00  0.00     0.170 C 
ENDROOT
BRANCH   1   2
ATOM      2  N   UNL d   1      13.938  13.094  -1.589  0.00  0.00    -0.191 NA
ATOM      3  C   UNL d   1      14.177  12.567  -2.231  0.00  0.00     0.281 C 
ATOM      4  O   UNL d   1      14.863  12.114  -2.183  0.00  0.00    -0.265 OA
BRANCH   3   5
ATOM      5  C   UNL d   1      13.715  12.506  -2.917  0.00  0.00     0.069 A 
ATOM      6  C   UNL d   1      13.709  13.138  -3.439  0.00  0.00     0.062 A 
ATOM      7 CL   UNL d   1      14.069  13.792  -3.398  0.00  0.00    -0.082 Cl
ATOM      8  C   UNL d   1      13.240  13.103  -4.156  0.00  0.00     0.012 A 
ATOM      9  C   UNL d   1      12.797  12.434  -4.316  0.00  0.00     0.001 A 
ATOM     10  C   UNL d   1      12.806  11.788  -3.778  0.00  0.00     0.000 A 
ATOM     11  C   UNL d   1      13.269  11.830  -3.077  0.00  0.00     0.006 A 
ENDBRANCH   3   5
ENDBRANCH   1   2
BRANCH   1  12
ATOM     12  C   UNL d   1      14.526  12.452  -0.447  0.00  0.00     0.249 C 
ATOM     13 CL   UNL d   1      14.599  11.783  -0.014  0.00  0.00    -0.075 Cl
ATOM     14 CL   UNL d   1      15.303  12.308  -0.025  0.00  0.00    -0.075 Cl
ATOM     15 CL   UNL d   1      13.918  11.977  -0.425  0.00  0.00    -0.075 Cl
ENDBRANCH   1  12
BRANCH   1  16
ATOM     16  N   UNL d   1      14.772  13.843  -0.690  0.00  0.00    -0.286 N 
ATOM     17  C   UNL d   1      14.409  14.541  -0.842  0.00  0.00     0.108 A 
ATOM     18  C   UNL d   1      14.768  15.250  -0.623  0.00  0.00     0.142 A 
ATOM     19  O   UNL d   1      15.478  15.275  -0.258  0.00  0.00    -0.300 OA
ATOM     20  C   UNL d   1      15.863  14.549  -0.097  0.00  0.00     0.142 A 
ATOM     21  C   UNL d   1      15.503  13.840  -0.317  0.00  0.00     0.108 A 
ENDBRANCH   1  16
TORSDOF 4
ENDMDL
MODEL 2
REMARK VINA RESULT:      23.9      1.918      3.607
REMARK  4 active torsions:
REMARK  status: ('A' for Active; 'I' for Inactive)
REMARK       I    between atoms: C_2  and  N_1 
REMARK    1  A    between atoms: C_3  and  N_1 
REMARK    2  A    between atoms: C_5  and  C_2 
REMARK    3  A    between atoms: C_4  and  C_3 
REMARK    4  A    between atoms: N_6  and  C_3 
ROOT
ATOM      1  C   UNL d   1      13.279  12.995  -3.813  0.00  0.00     0.170 C 
ENDROOT
BRANCH   1   2
ATOM      2  N   UNL d   1      13.243  12.737  -3.021  0.00  0.00    -0.191 NA
ATOM      3  C   UNL d   1      13.981  12.576  -2.601  0.00  0.00     0.281 C 
ATOM      4  O   UNL d   1      14.713  12.672  -2.965  0.00  0.00    -0.265 OA
BRANCH   3   5
ATOM      5  C   UNL d   1      13.966  12.319  -1.813  0.00  0.00     0.069 A 
ATOM      6  C   UNL d   1      14.679  12.151  -1.444  0.00  0.00     0.062 A 
ATOM      7 CL   UNL d   1      15.375  12.192  -1.714  0.00  0.00    -0.082 Cl
ATOM      8  C   UNL d   1      14.693  11.883  -0.629  0.00  0.00     0.012 A 
ATOM      9  C   UNL d   1      13.989  11.797  -0.221  0.00  0.00     0.001 A 
ATOM     10  C   UNL d   1      13.261  11.970  -0.603  0.00  0.00     0.000 A 
ATOM     11  C   UNL d   1      13.255  12.232  -1.402  0.00  0.00     0.006 A 
ENDBRANCH   3   5
ENDBRANCH   1   2
BRANCH   1  12
ATOM     12  C   UNL d   1      13.251  12.423  -4.422  0.00  0.00     0.249 C 
ATOM     13 CL   UNL d   1      13.203  11.858  -4.986  0.00  0.00    -0.075 Cl
ATOM     14 CL   UNL d   1      13.730  12.535  -5.171  0.00  0.00    -0.075 Cl
ATOM     15 CL   UNL d   1      12.793  11.819  -4.278  0.00  0.00    -0.075 Cl
ENDBRANCH   1  12
BRANCH   1  16
ATOM     16  N   UNL d   1      13.341  13.789  -3.995  0.00  0.00    -0.286 N 
ATOM     17  C   UNL d   1      13.866  14.251  -3.604  0.00  0.00     0.108 A 
ATOM     18  C   UNL d   1      13.928  15.052  -3.788  0.00  0.00     0.142 A 
ATOM     19  O   UNL d   1      13.480  15.399  -4.350  0.00  0.00    -0.300 OA
ATOM     20  C   UNL d   1      12.929  14.920  -4.762  0.00  0.00     0.142 A 
ATOM     21  C   UNL d   1      12.867  14.119  -4.578  0.00  0.00     0.108 A 
ENDBRANCH   1  16
TORSDOF 4
ENDMDL
