MODEL 1
REMARK VINA RESULT:      33.4      0.000      0.000
REMARK  3 active torsions:
REMARK  status: ('A' for Active; 'I' for Inactive)
REMARK    1  A    between atoms: C_8  and  C_1 
REMARK    2  A    between atoms: O_13  and  C_6 
REMARK    3  A    between atoms: C_17  and  O_13 
ROOT
ATOM      1  C   UNL d   1     -51.279  25.711  33.413  0.00  0.00     0.009 A 
ATOM      2  C   UNL d   1     -50.749  25.075  33.386  0.00  0.00     0.046 A 
ATOM      3  C   UNL d   1     -49.933  25.221  33.410  0.00  0.00     0.105 A 
ATOM      4  O   UNL d   1     -49.654  25.993  33.461  0.00  0.00    -0.273 OA
ATOM      5  C   UNL d   1     -51.002  26.483  33.464  0.00  0.00     0.069 A 
ATOM      6  C   UNL d   1     -51.025  24.303  33.336  0.00  0.00     0.102 A 
ATOM      7  C   UNL d   1     -50.191  26.628  33.488  0.00  0.00     0.300 A 
ATOM      8  C   UNL d   1     -49.402  24.592  33.384  0.00  0.00     0.025 A 
ATOM      9  C   UNL d   1     -50.496  23.671  33.309  0.00  0.00     0.025 A 
ATOM     10  O   UNL d   1     -49.908  27.406  33.538  0.00  0.00    -0.259 OA
ATOM     11  C   UNL d   1     -49.684  23.816  33.333  0.00  0.00     0.004 A 
ATOM     12  C   UNL d   1     -49.150  23.192  33.306  0.00  0.00     0.000 C 
ENDROOT
BRANCH   1  13
ATOM     13  C   UNL d   1     -52.095  25.565  33.390  0.00  0.00     0.000 A 
ATOM     14  C   UNL d   1     -52.625  26.201  33.333  0.00  0.00     0.000 A 
ATOM     15  C   UNL d   1     -53.450  26.054  33.309  0.00  0.00     0.000 A 
ATOM     16  C   UNL d   1     -53.731  25.282  33.341  0.00  0.00     0.000 A 
ATOM     17  C   UNL d   1     -53.188  24.648  33.398  0.00  0.00     0.000 A 
ATOM     18  C   UNL d   1     -52.376  24.792  33.422  0.00  0.00     0.000 A 
ENDBRANCH   1  13
BRANCH   6  19
ATOM     19  O   UNL d   1     -51.841  24.157  33.312  0.00  0.00    -0.305 OA
BRANCH  19  20
ATOM     20  C   UNL d   1     -52.162  23.540  33.738  0.00  0.00     0.123 C 
ATOM     21  C   UNL d   1     -51.724  23.191  34.340  0.00  0.00     0.029 C 
ENDBRANCH  19  20
ENDBRANCH   6  19
TORSDOF 3
ENDMDL
