MODEL 1
REMARK VINA RESULT:      -7.7      0.000      0.000
REMARK  7 active torsions:
REMARK  status: ('A' for Active; 'I' for Inactive)
REMARK    1  A    between atoms: C_3  and  N_1 
REMARK    2  A    between atoms: N_7  and  C_3 
REMARK    3  A    between atoms: C_9  and  C_4 
REMARK    4  A    between atoms: C_10  and  C_5 
REMARK    5  A    between atoms: C_15  and  N_7 
REMARK    6  A    between atoms: O_22  and  C_16 
REMARK    7  A    between atoms: O_23  and  C_17 
ROOT
ATOM      1  N   UNL d   1      53.018  32.619  53.363  0.00  0.00    -0.203 N 
ATOM      2  N   UNL d   1      52.591  33.284  53.160  0.00  0.00    -0.163 NA
ATOM      3  C   UNL d   1      51.816  33.018  52.937  0.00  0.00     0.103 A 
ATOM      4  C   UNL d   1      52.558  31.960  53.280  0.00  0.00     0.087 A 
ATOM      5  C   UNL d   1      51.819  32.197  53.019  0.00  0.00     0.040 A 
ENDROOT
BRANCH   1   6
ATOM      6  C   UNL d   1      53.832  32.619  53.624  0.00  0.00     0.222 C 
ATOM      7  S   UNL d   1      54.430  32.649  53.056  0.00  0.00    -0.037 SA
BRANCH   6   8
ATOM      8  N   UNL d   1      53.991  32.590  54.433  0.00  0.00    -0.217 NA
BRANCH   8   9
ATOM      9  C   UNL d   1      54.528  33.131  54.746  0.00  0.00     0.084 A 
ATOM     10  C   UNL d   1      54.386  33.461  55.485  0.00  0.00     0.019 A 
ATOM     11  C   UNL d   1      54.940  34.015  55.800  0.00  0.00     0.002 A 
ATOM     12  C   UNL d   1      55.594  34.217  55.386  0.00  0.00     0.000 A 
ATOM     13  C   UNL d   1      55.745  33.892  54.646  0.00  0.00     0.002 A 
ATOM     14  C   UNL d   1      55.214  33.350  54.325  0.00  0.00     0.019 A 
ENDBRANCH   8   9
ENDBRANCH   6   8
ENDBRANCH   1   6
BRANCH   4  15
ATOM     15  C   UNL d   1      52.720  31.153  53.412  0.00  0.00     0.018 A 
ATOM     16  C   UNL d   1      53.040  30.701  52.802  0.00  0.00     0.004 A 
ATOM     17  C   UNL d   1      53.200  29.907  52.930  0.00  0.00     0.024 A 
ATOM     18  C   UNL d   1      53.040  29.553  53.676  0.00  0.00     0.094 A 
ATOM     19  C   UNL d   1      52.712  30.027  54.292  0.00  0.00     0.024 A 
ATOM     20  C   UNL d   1      52.561  30.821  54.141  0.00  0.00     0.004 A 
BRANCH  18  21
ATOM     21  O   UNL d   1      53.204  28.766  53.787  0.00  0.00    -0.328 OA
ATOM     22  C   UNL d   1      53.519  28.497  54.491  0.00  0.00     0.181 C 
ENDBRANCH  18  21
ENDBRANCH   4  15
BRANCH   3  23
ATOM     23  C   UNL d   1      51.201  33.512  52.691  0.00  0.00     0.019 A 
ATOM     24  C   UNL d   1      50.623  33.752  53.225  0.00  0.00     0.004 A 
ATOM     25  C   UNL d   1      50.006  34.246  52.987  0.00  0.00     0.024 A 
ATOM     26  C   UNL d   1      49.971  34.500  52.202  0.00  0.00     0.094 A 
ATOM     27  C   UNL d   1      50.564  34.253  51.655  0.00  0.00     0.024 A 
ATOM     28  C   UNL d   1      51.177  33.761  51.900  0.00  0.00     0.004 A 
BRANCH  26  29
ATOM     29  O   UNL d   1      49.334  35.006  51.966  0.00  0.00    -0.328 OA
ATOM     30  C   UNL d   1      48.617  34.880  51.313  0.00  0.00     0.181 C 
ENDBRANCH  26  29
ENDBRANCH   3  23
TORSDOF 7
ENDMDL
MODEL 2
REMARK VINA RESULT:      -7.5      1.297      3.206
REMARK  7 active torsions:
REMARK  status: ('A' for Active; 'I' for Inactive)
REMARK    1  A    between atoms: C_3  and  N_1 
REMARK    2  A    between atoms: N_7  and  C_3 
REMARK    3  A    between atoms: C_9  and  C_4 
REMARK    4  A    between atoms: C_10  and  C_5 
REMARK    5  A    between atoms: C_15  and  N_7 
REMARK    6  A    between atoms: O_22  and  C_16 
REMARK    7  A    between atoms: O_23  and  C_17 
ROOT
ATOM      1  N   UNL d   1      52.599  32.481  53.264  0.00  0.00    -0.203 N 
ATOM      2  N   UNL d   1      51.896  32.610  52.871  0.00  0.00    -0.163 NA
ATOM      3  C   UNL d   1      51.739  33.443  52.920  0.00  0.00     0.103 A 
ATOM      4  C   UNL d   1      52.887  33.178  53.552  0.00  0.00     0.087 A 
ATOM      5  C   UNL d   1      52.364  33.773  53.345  0.00  0.00     0.040 A 
ENDROOT
BRANCH   1   6
ATOM      6  C   UNL d   1      52.977  31.719  53.357  0.00  0.00     0.222 C 
ATOM      7  S   UNL d   1      53.569  31.503  52.824  0.00  0.00    -0.037 SA
BRANCH   6   8
ATOM      8  N   UNL d   1      52.736  31.228  53.974  0.00  0.00    -0.217 NA
BRANCH   8   9
ATOM      9  C   UNL d   1      52.880  30.419  53.908  0.00  0.00     0.084 A 
ATOM     10  C   UNL d   1      53.343  30.043  54.473  0.00  0.00     0.019 A 
ATOM     11  C   UNL d   1      53.487  29.214  54.401  0.00  0.00     0.002 A 
ATOM     12  C   UNL d   1      53.177  28.800  53.792  0.00  0.00     0.000 A 
ATOM     13  C   UNL d   1      52.712  29.166  53.221  0.00  0.00     0.002 A 
ATOM     14  C   UNL d   1      52.562  29.975  53.278  0.00  0.00     0.019 A 
ENDBRANCH   8   9
ENDBRANCH   6   8
ENDBRANCH   1   6
BRANCH   4  15
ATOM     15  C   UNL d   1      53.575  33.354  53.988  0.00  0.00     0.018 A 
ATOM     16  C   UNL d   1      54.300  33.394  53.600  0.00  0.00     0.004 A 
ATOM     17  C   UNL d   1      54.978  33.567  54.027  0.00  0.00     0.024 A 
ATOM     18  C   UNL d   1      54.938  33.705  54.856  0.00  0.00     0.094 A 
ATOM     19  C   UNL d   1      54.189  33.661  55.242  0.00  0.00     0.024 A 
ATOM     20  C   UNL d   1      53.523  33.486  54.793  0.00  0.00     0.004 A 
BRANCH  18  21
ATOM     21  O   UNL d   1      55.617  33.875  55.265  0.00  0.00    -0.328 OA
ATOM     22  C   UNL d   1      55.600  34.011  56.071  0.00  0.00     0.181 C 
ENDBRANCH  18  21
ENDBRANCH   4  15
BRANCH   3  23
ATOM     23  C   UNL d   1      51.078  33.817  52.593  0.00  0.00     0.019 A 
ATOM     24  C   UNL d   1      50.429  33.998  53.066  0.00  0.00     0.004 A 
ATOM     25  C   UNL d   1      49.766  34.372  52.748  0.00  0.00     0.024 A 
ATOM     26  C   UNL d   1      49.756  34.566  51.945  0.00  0.00     0.094 A 
ATOM     27  C   UNL d   1      50.423  34.380  51.462  0.00  0.00     0.024 A 
ATOM     28  C   UNL d   1      51.081  34.007  51.786  0.00  0.00     0.004 A 
BRANCH  26  29
ATOM     29  O   UNL d   1      49.072  34.949  51.626  0.00  0.00    -0.328 OA
ATOM     30  C   UNL d   1      48.477  34.702  50.892  0.00  0.00     0.181 C 
ENDBRANCH  26  29
ENDBRANCH   3  23
TORSDOF 7
ENDMDL
MODEL 3
REMARK VINA RESULT:      -6.1      1.805      5.245
REMARK  7 active torsions:
REMARK  status: ('A' for Active; 'I' for Inactive)
REMARK    1  A    between atoms: C_3  and  N_1 
REMARK    2  A    between atoms: N_7  and  C_3 
REMARK    3  A    between atoms: C_9  and  C_4 
REMARK    4  A    between atoms: C_10  and  C_5 
REMARK    5  A    between atoms: C_15  and  N_7 
REMARK    6  A    between atoms: O_22  and  C_16 
REMARK    7  A    between atoms: O_23  and  C_17 
ROOT
ATOM      1  N   UNL d   1      51.859  33.257  52.933  0.00  0.00    -0.203 N 
ATOM      2  N   UNL d   1      51.861  32.445  52.862  0.00  0.00    -0.163 NA
ATOM      3  C   UNL d   1      52.498  32.159  53.345  0.00  0.00     0.103 A 
ATOM      4  C   UNL d   1      52.452  33.493  53.429  0.00  0.00     0.087 A 
ATOM      5  C   UNL d   1      52.848  32.824  53.686  0.00  0.00     0.040 A 
ENDROOT
BRANCH   1   6
ATOM      6  C   UNL d   1      51.310  33.784  52.542  0.00  0.00     0.222 C 
ATOM      7  S   UNL d   1      51.522  34.105  51.812  0.00  0.00    -0.037 SA
BRANCH   6   8
ATOM      8  N   UNL d   1      50.589  33.951  52.906  0.00  0.00    -0.217 NA
BRANCH   8   9
ATOM      9  C   UNL d   1      49.991  34.290  52.451  0.00  0.00     0.084 A 
ATOM     10  C   UNL d   1      49.484  34.838  52.794  0.00  0.00     0.019 A 
ATOM     11  C   UNL d   1      48.873  35.182  52.324  0.00  0.00     0.002 A 
ATOM     12  C   UNL d   1      48.788  34.980  51.555  0.00  0.00     0.000 A 
ATOM     13  C   UNL d   1      49.291  34.432  51.203  0.00  0.00     0.002 A 
ATOM     14  C   UNL d   1      49.892  34.087  51.649  0.00  0.00     0.019 A 
ENDBRANCH   8   9
ENDBRANCH   6   8
ENDBRANCH   1   6
BRANCH   4  15
ATOM     15  C   UNL d   1      52.689  34.249  53.687  0.00  0.00     0.018 A 
ATOM     16  C   UNL d   1      53.165  34.712  53.199  0.00  0.00     0.004 A 
ATOM     17  C   UNL d   1      53.399  35.456  53.452  0.00  0.00     0.024 A 
ATOM     18  C   UNL d   1      53.158  35.749  54.202  0.00  0.00     0.094 A 
ATOM     19  C   UNL d   1      52.671  35.265  54.693  0.00  0.00     0.024 A 
ATOM     20  C   UNL d   1      52.448  34.523  54.419  0.00  0.00     0.004 A 
BRANCH  18  21
ATOM     21  O   UNL d   1      53.398  36.487  54.438  0.00  0.00    -0.328 OA
ATOM     22  C   UNL d   1      53.363  36.709  55.223  0.00  0.00     0.181 C 
ENDBRANCH  18  21
ENDBRANCH   4  15
BRANCH   3  23
ATOM     23  C   UNL d   1      52.700  31.363  53.436  0.00  0.00     0.019 A 
ATOM     24  C   UNL d   1      52.156  30.774  53.252  0.00  0.00     0.004 A 
ATOM     25  C   UNL d   1      52.351  29.977  53.339  0.00  0.00     0.024 A 
ATOM     26  C   UNL d   1      53.102  29.771  53.615  0.00  0.00     0.094 A 
ATOM     27  C   UNL d   1      53.659  30.376  53.803  0.00  0.00     0.024 A 
ATOM     28  C   UNL d   1      53.458  31.170  53.713  0.00  0.00     0.004 A 
BRANCH  26  29
ATOM     29  O   UNL d   1      53.293  28.951  53.701  0.00  0.00    -0.328 OA
ATOM     30  C   UNL d   1      53.567  28.431  54.483  0.00  0.00     0.181 C 
ENDBRANCH  26  29
ENDBRANCH   3  23
TORSDOF 7
ENDMDL
MODEL 4
REMARK VINA RESULT:      -5.2      0.697      4.247
REMARK  7 active torsions:
REMARK  status: ('A' for Active; 'I' for Inactive)
REMARK    1  A    between atoms: C_3  and  N_1 
REMARK    2  A    between atoms: N_7  and  C_3 
REMARK    3  A    between atoms: C_9  and  C_4 
REMARK    4  A    between atoms: C_10  and  C_5 
REMARK    5  A    between atoms: C_15  and  N_7 
REMARK    6  A    between atoms: O_22  and  C_16 
REMARK    7  A    between atoms: O_23  and  C_17 
ROOT
ATOM      1  N   UNL d   1      52.913  32.916  53.434  0.00  0.00    -0.203 N 
ATOM      2  N   UNL d   1      53.271  32.205  53.611  0.00  0.00    -0.163 NA
ATOM      3  C   UNL d   1      52.700  31.598  53.453  0.00  0.00     0.103 A 
ATOM      4  C   UNL d   1      52.158  32.789  53.177  0.00  0.00     0.087 A 
ATOM      5  C   UNL d   1      52.020  31.982  53.186  0.00  0.00     0.040 A 
ENDROOT
BRANCH   1   6
ATOM      6  C   UNL d   1      53.282  33.684  53.509  0.00  0.00     0.222 C 
ATOM      7  S   UNL d   1      53.584  34.046  52.832  0.00  0.00    -0.037 SA
BRANCH   6   8
ATOM      8  N   UNL d   1      53.322  34.035  54.254  0.00  0.00    -0.217 NA
BRANCH   8   9
ATOM      9  C   UNL d   1      54.045  34.029  54.651  0.00  0.00     0.084 A 
ATOM     10  C   UNL d   1      54.077  33.772  55.431  0.00  0.00     0.019 A 
ATOM     11  C   UNL d   1      54.820  33.767  55.831  0.00  0.00     0.002 A 
ATOM     12  C   UNL d   1      55.484  34.010  55.458  0.00  0.00     0.000 A 
ATOM     13  C   UNL d   1      55.463  34.269  54.678  0.00  0.00     0.002 A 
ATOM     14  C   UNL d   1      54.746  34.279  54.274  0.00  0.00     0.019 A 
ENDBRANCH   8   9
ENDBRANCH   6   8
ENDBRANCH   1   6
BRANCH   4  15
ATOM     15  C   UNL d   1      51.562  33.316  52.929  0.00  0.00     0.018 A 
ATOM     16  C   UNL d   1      50.953  33.510  53.449  0.00  0.00     0.004 A 
ATOM     17  C   UNL d   1      50.366  34.028  53.207  0.00  0.00     0.024 A 
ATOM     18  C   UNL d   1      50.380  34.362  52.435  0.00  0.00     0.094 A 
ATOM     19  C   UNL d   1      51.010  34.155  51.912  0.00  0.00     0.024 A 
ATOM     20  C   UNL d   1      51.587  33.633  52.177  0.00  0.00     0.004 A 
BRANCH  18  21
ATOM     21  O   UNL d   1      49.792  34.873  52.210  0.00  0.00    -0.328 OA
ATOM     22  C   UNL d   1      49.173  34.621  51.741  0.00  0.00     0.181 C 
ENDBRANCH  18  21
ENDBRANCH   4  15
BRANCH   3  23
ATOM     23  C   UNL d   1      52.831  30.789  53.557  0.00  0.00     0.019 A 
ATOM     24  C   UNL d   1      53.113  30.504  54.275  0.00  0.00     0.004 A 
ATOM     25  C   UNL d   1      53.247  29.697  54.387  0.00  0.00     0.024 A 
ATOM     26  C   UNL d   1      53.095  29.172  53.768  0.00  0.00     0.094 A 
ATOM     27  C   UNL d   1      52.806  29.465  53.031  0.00  0.00     0.024 A 
ATOM     28  C   UNL d   1      52.675  30.272  52.927  0.00  0.00     0.004 A 
BRANCH  26  29
ATOM     29  O   UNL d   1      53.235  28.346  53.891  0.00  0.00    -0.328 OA
ATOM     30  C   UNL d   1      53.598  27.859  54.657  0.00  0.00     0.181 C 
ENDBRANCH  26  29
ENDBRANCH   3  23
TORSDOF 7
ENDMDL
