MODEL 1
REMARK VINA RESULT:      -8.5      0.000      0.000
REMARK  3 active torsions:
REMARK  status: ('A' for Active; 'I' for Inactive)
REMARK    1  A    between atoms: C_4  and  C_1 
REMARK    2  A    between atoms: C_6  and  C_4 
REMARK    3  A    between atoms: N_5  and  C_7 
ROOT
ATOM      1  C   UNL d   1     -48.877  14.316  22.525  0.00  0.00     0.231 C 
ATOM      2  O   UNL d   1     -48.652  15.091  22.646  0.00  0.00    -0.283 OA
ENDROOT
BRANCH   1   3
ATOM      3  C   UNL d   1     -48.396  13.688  22.784  0.00  0.00     0.188 A 
ATOM      4  N   UNL d   1     -48.661  12.962  23.058  0.00  0.00    -0.224 NA
ATOM      5  C   UNL d   1     -48.004  12.486  23.263  0.00  0.00     0.099 A 
ATOM      6  C   UNL d   1     -47.926  11.738  23.556  0.00  0.00     0.021 A 
ATOM      7  C   UNL d   1     -47.320  12.945  23.106  0.00  0.00     0.083 A 
ATOM      8  C   UNL d   1     -47.197  11.431  23.698  0.00  0.00     0.002 A 
ATOM      9  C   UNL d   1     -46.501  11.850  23.557  0.00  0.00     0.002 A 
ATOM     10  C   UNL d   1     -46.587  12.618  23.257  0.00  0.00     0.019 A 
ATOM     11  N   UNL d   1     -47.589  13.680  22.813  0.00  0.00    -0.285 N 
ATOM     12  C   UNL d   1     -47.164  14.351  22.566  0.00  0.00     0.101 C 
ENDBRANCH   1   3
BRANCH   1  13
ATOM     13  C   UNL d   1     -49.609  14.146  22.131  0.00  0.00     0.064 A 
ATOM     14  C   UNL d   1     -50.297  14.527  22.353  0.00  0.00     0.130 A 
ATOM     15  C   UNL d   1     -51.005  14.360  21.970  0.00  0.00     0.024 A 
ATOM     16  C   UNL d   1     -51.029  13.807  21.357  0.00  0.00     0.002 A 
ATOM     17  C   UNL d   1     -50.314  13.425  21.141  0.00  0.00     0.000 A 
ATOM     18  C   UNL d   1     -49.603  13.589  21.523  0.00  0.00     0.005 A 
BRANCH  14  19
ATOM     19  N   UNL d   1     -50.283  15.084  22.968  0.00  0.00    -0.114 N 
ATOM     20  O   UNL d   1     -50.509  14.795  23.698  0.00  0.00    -0.532 OA
ATOM     21  O   UNL d   1     -50.050  15.884  22.836  0.00  0.00    -0.532 OA
ENDBRANCH  14  19
ENDBRANCH   1  13
TORSDOF 3
ENDMDL
MODEL 2
REMARK VINA RESULT:      -8.0      1.344      1.946
REMARK  3 active torsions:
REMARK  status: ('A' for Active; 'I' for Inactive)
REMARK    1  A    between atoms: C_4  and  C_1 
REMARK    2  A    between atoms: C_6  and  C_4 
REMARK    3  A    between atoms: N_5  and  C_7 
ROOT
ATOM      1  C   UNL d   1     -49.372  13.104  22.963  0.00  0.00     0.231 C 
ATOM      2  O   UNL d   1     -49.816  12.421  22.933  0.00  0.00    -0.283 OA
ENDROOT
BRANCH   1   3
ATOM      3  C   UNL d   1     -48.540  13.073  22.941  0.00  0.00     0.188 A 
ATOM      4  N   UNL d   1     -48.049  13.614  22.570  0.00  0.00    -0.224 NA
ATOM      5  C   UNL d   1     -47.252  13.384  22.677  0.00  0.00     0.099 A 
ATOM      6  C   UNL d   1     -46.545  13.696  22.443  0.00  0.00     0.021 A 
ATOM      7  C   UNL d   1     -47.267  12.678  23.130  0.00  0.00     0.083 A 
ATOM      8  C   UNL d   1     -45.855  13.332  22.641  0.00  0.00     0.002 A 
ATOM      9  C   UNL d   1     -45.828  12.638  23.084  0.00  0.00     0.002 A 
ATOM     10  C   UNL d   1     -46.557  12.323  23.322  0.00  0.00     0.019 A 
ATOM     11  N   UNL d   1     -48.072  12.509  23.279  0.00  0.00    -0.285 N 
ATOM     12  C   UNL d   1     -48.422  11.882  23.698  0.00  0.00     0.101 C 
ENDBRANCH   1   3
BRANCH   1  13
ATOM     13  C   UNL d   1     -49.760  13.857  23.017  0.00  0.00     0.064 A 
ATOM     14  C   UNL d   1     -50.313  14.080  22.457  0.00  0.00     0.130 A 
ATOM     15  C   UNL d   1     -50.687  14.810  22.513  0.00  0.00     0.024 A 
ATOM     16  C   UNL d   1     -50.508  15.326  23.132  0.00  0.00     0.002 A 
ATOM     17  C   UNL d   1     -49.939  15.083  23.698  0.00  0.00     0.000 A 
ATOM     18  C   UNL d   1     -49.562  14.352  23.647  0.00  0.00     0.005 A 
BRANCH  14  19
ATOM     19  N   UNL d   1     -50.498  13.568  21.832  0.00  0.00    -0.114 N 
ATOM     20  O   UNL d   1     -51.062  13.003  22.006  0.00  0.00    -0.532 OA
ATOM     21  O   UNL d   1     -50.124  13.635  21.078  0.00  0.00    -0.532 OA
ENDBRANCH  14  19
ENDBRANCH   1  13
TORSDOF 3
ENDMDL
MODEL 3
REMARK VINA RESULT:      -7.0      1.986      3.821
REMARK  3 active torsions:
REMARK  status: ('A' for Active; 'I' for Inactive)
REMARK    1  A    between atoms: C_4  and  C_1 
REMARK    2  A    between atoms: C_6  and  C_4 
REMARK    3  A    between atoms: N_5  and  C_7 
ROOT
ATOM      1  C   UNL d   1     -47.508  12.717  22.982  0.00  0.00     0.231 C 
ATOM      2  O   UNL d   1     -47.218  12.060  23.368  0.00  0.00    -0.283 OA
ENDROOT
BRANCH   1   3
ATOM      3  C   UNL d   1     -48.278  12.719  22.663  0.00  0.00     0.188 A 
ATOM      4  N   UNL d   1     -48.508  13.082  21.966  0.00  0.00    -0.224 NA
ATOM      5  C   UNL d   1     -49.325  12.954  21.842  0.00  0.00     0.099 A 
ATOM      6  C   UNL d   1     -49.844  13.175  21.264  0.00  0.00     0.021 A 
ATOM      7  C   UNL d   1     -49.595  12.496  22.491  0.00  0.00     0.083 A 
ATOM      8  C   UNL d   1     -50.617  12.957  21.307  0.00  0.00     0.002 A 
ATOM      9  C   UNL d   1     -50.920  12.507  21.928  0.00  0.00     0.002 A 
ATOM     10  C   UNL d   1     -50.382  12.284  22.518  0.00  0.00     0.019 A 
ATOM     11  N   UNL d   1     -48.930  12.365  22.981  0.00  0.00    -0.285 N 
ATOM     12  C   UNL d   1     -48.863  11.949  23.698  0.00  0.00     0.101 C 
ENDBRANCH   1   3
BRANCH   1  13
ATOM     13  C   UNL d   1     -47.023  13.409  22.902  0.00  0.00     0.064 A 
ATOM     14  C   UNL d   1     -46.221  13.338  22.763  0.00  0.00     0.130 A 
ATOM     15  C   UNL d   1     -45.753  14.010  22.686  0.00  0.00     0.024 A 
ATOM     16  C   UNL d   1     -46.088  14.762  22.749  0.00  0.00     0.002 A 
ATOM     17  C   UNL d   1     -46.912  14.818  22.892  0.00  0.00     0.000 A 
ATOM     18  C   UNL d   1     -47.384  14.147  22.970  0.00  0.00     0.005 A 
BRANCH  14  19
ATOM     19  N   UNL d   1     -45.876  12.586  22.698  0.00  0.00    -0.114 N 
ATOM     20  O   UNL d   1     -45.841  12.289  21.938  0.00  0.00    -0.532 OA
ATOM     21  O   UNL d   1     -45.588  12.170  23.374  0.00  0.00    -0.532 OA
ENDBRANCH  14  19
ENDBRANCH   1  13
TORSDOF 3
ENDMDL
MODEL 4
REMARK VINA RESULT:      -6.6      1.531      3.702
REMARK  3 active torsions:
REMARK  status: ('A' for Active; 'I' for Inactive)
REMARK    1  A    between atoms: C_4  and  C_1 
REMARK    2  A    between atoms: C_6  and  C_4 
REMARK    3  A    between atoms: N_5  and  C_7 
ROOT
ATOM      1  C   UNL d   1     -47.743  13.309  22.242  0.00  0.00     0.231 C 
ATOM      2  O   UNL d   1     -47.279  13.550  21.616  0.00  0.00    -0.283 OA
ENDROOT
BRANCH   1   3
ATOM      3  C   UNL d   1     -48.469  13.684  22.403  0.00  0.00     0.188 A 
ATOM      4  N   UNL d   1     -48.666  14.072  23.098  0.00  0.00    -0.224 NA
ATOM      5  C   UNL d   1     -49.444  14.372  23.038  0.00  0.00     0.099 A 
ATOM      6  C   UNL d   1     -49.921  14.791  23.537  0.00  0.00     0.021 A 
ATOM      7  C   UNL d   1     -49.724  14.155  22.277  0.00  0.00     0.083 A 
ATOM      8  C   UNL d   1     -50.662  15.001  23.308  0.00  0.00     0.002 A 
ATOM      9  C   UNL d   1     -50.974  14.808  22.570  0.00  0.00     0.002 A 
ATOM     10  C   UNL d   1     -50.480  14.378  22.062  0.00  0.00     0.019 A 
ATOM     11  N   UNL d   1     -49.104  13.733  21.908  0.00  0.00    -0.285 N 
ATOM     12  C   UNL d   1     -49.065  13.385  21.154  0.00  0.00     0.101 C 
ENDBRANCH   1   3
BRANCH   1  13
ATOM     13  C   UNL d   1     -47.486  12.669  22.736  0.00  0.00     0.064 A 
ATOM     14  C   UNL d   1     -46.722  12.650  23.026  0.00  0.00     0.130 A 
ATOM     15  C   UNL d   1     -46.476  12.029  23.505  0.00  0.00     0.024 A 
ATOM     16  C   UNL d   1     -46.996  11.418  23.698  0.00  0.00     0.002 A 
ATOM     17  C   UNL d   1     -47.777  11.452  23.393  0.00  0.00     0.000 A 
ATOM     18  C   UNL d   1     -48.028  12.073  22.913  0.00  0.00     0.005 A 
BRANCH  14  19
ATOM     19  N   UNL d   1     -46.192  13.260  22.837  0.00  0.00    -0.114 N 
ATOM     20  O   UNL d   1     -46.124  13.844  23.404  0.00  0.00    -0.532 OA
ATOM     21  O   UNL d   1     -45.762  13.265  22.110  0.00  0.00    -0.532 OA
ENDBRANCH  14  19
ENDBRANCH   1  13
TORSDOF 3
ENDMDL
MODEL 5
REMARK VINA RESULT:      -6.5      8.657     10.172
REMARK  3 active torsions:
REMARK  status: ('A' for Active; 'I' for Inactive)
REMARK    1  A    between atoms: C_4  and  C_1 
REMARK    2  A    between atoms: C_6  and  C_4 
REMARK    3  A    between atoms: N_5  and  C_7 
ROOT
ATOM      1  C   UNL d   1     -40.403  14.432  18.504  0.00  0.00     0.231 C 
ATOM      2  O   UNL d   1     -41.199  14.317  18.365  0.00  0.00    -0.283 OA
ENDROOT
BRANCH   1   3
ATOM      3  C   UNL d   1     -40.137  14.731  19.234  0.00  0.00     0.188 A 
ATOM      4  N   UNL d   1     -39.517  15.256  19.341  0.00  0.00    -0.224 NA
ATOM      5  C   UNL d   1     -39.428  15.419  20.156  0.00  0.00     0.099 A 
ATOM      6  C   UNL d   1     -38.922  15.884  20.581  0.00  0.00     0.021 A 
ATOM      7  C   UNL d   1     -40.018  14.974  20.553  0.00  0.00     0.083 A 
ATOM      8  C   UNL d   1     -38.982  15.922  21.382  0.00  0.00     0.002 A 
ATOM      9  C   UNL d   1     -39.547  15.501  21.808  0.00  0.00     0.002 A 
ATOM     10  C   UNL d   1     -40.063  15.025  21.367  0.00  0.00     0.019 A 
ATOM     11  N   UNL d   1     -40.441  14.560  19.962  0.00  0.00    -0.285 N 
ATOM     12  C   UNL d   1     -41.083  14.036  20.027  0.00  0.00     0.101 C 
ENDBRANCH   1   3
BRANCH   1  13
ATOM     13  C   UNL d   1     -39.838  14.245  17.899  0.00  0.00     0.064 A 
ATOM     14  C   UNL d   1     -39.892  14.589  17.160  0.00  0.00     0.130 A 
ATOM     15  C   UNL d   1     -39.343  14.405  16.576  0.00  0.00     0.024 A 
ATOM     16  C   UNL d   1     -38.732  13.872  16.730  0.00  0.00     0.002 A 
ATOM     17  C   UNL d   1     -38.689  13.528  17.493  0.00  0.00     0.000 A 
ATOM     18  C   UNL d   1     -39.238  13.709  18.081  0.00  0.00     0.005 A 
BRANCH  14  19
ATOM     19  N   UNL d   1     -40.504  15.125  16.997  0.00  0.00    -0.114 N 
ATOM     20  O   UNL d   1     -40.284  15.912  17.018  0.00  0.00    -0.532 OA
ATOM     21  O   UNL d   1     -41.288  14.865  16.825  0.00  0.00    -0.532 OA
ENDBRANCH  14  19
ENDBRANCH   1  13
TORSDOF 3
ENDMDL
