MODEL 1
REMARK VINA RESULT:      66.7      0.000      0.000
REMARK  7 active torsions:
REMARK  status: ('A' for Active; 'I' for Inactive)
REMARK    1  A    between atoms: C_7  and  N_2 
REMARK    2  A    between atoms: C_21  and  C_7 
REMARK    3  A    between atoms: C_8  and  C_19 
REMARK       I    between atoms: N_13  and  C_8 
REMARK    4  A    between atoms: C_9  and  C_20 
REMARK    5  A    between atoms: O_14  and  C_11 
REMARK    6  A    between atoms: C_20  and  N_13 
REMARK    7  A    between atoms: C_19  and  O_14 
ROOT
ATOM      1  C   UNL d   1     -58.365 -98.770 -43.803  0.00  0.00     0.265 A 
ATOM      2  N   UNL d   1     -58.406 -98.774 -44.631  0.00  0.00    -0.272 N 
ATOM      3  C   UNL d   1     -57.620 -98.778 -43.443  0.00  0.00     0.059 A 
ATOM      4  C   UNL d   1     -56.933 -98.790 -43.900  0.00  0.00     0.029 A 
ATOM      5  C   UNL d   1     -56.982 -98.794 -44.719  0.00  0.00     0.021 A 
ATOM      6  C   UNL d   1     -57.719 -98.786 -45.088  0.00  0.00     0.083 A 
ATOM      7  O   UNL d   1     -59.045 -98.758 -43.351  0.00  0.00    -0.267 OA
ATOM      8  C   UNL d   1     -56.191 -98.798 -43.537  0.00  0.00     0.100 A 
ATOM      9  C   UNL d   1     -57.575 -98.774 -42.616  0.00  0.00     0.005 A 
ATOM     10  C   UNL d   1     -56.830 -98.782 -42.256  0.00  0.00     0.002 A 
ATOM     11  C   UNL d   1     -56.140 -98.794 -42.715  0.00  0.00     0.025 A 
ENDROOT
BRANCH   8  12
ATOM     12  O   UNL d   1     -55.507 -98.809 -43.992  0.00  0.00    -0.300 OA
BRANCH  12  13
ATOM     13  C   UNL d   1     -54.850 -99.233 -43.723  0.00  0.00     0.185 C 
BRANCH  13  14
ATOM     14  C   UNL d   1     -54.904-100.047 -43.600  0.00  0.00     0.304 C 
ATOM     15  N   UNL d   1     -55.143-100.549 -44.210  0.00  0.00    -0.203 NA
ATOM     16  O   UNL d   1     -54.714-100.363 -42.859  0.00  0.00    -0.263 OA
BRANCH  15  17
ATOM     17  C   UNL d   1     -55.193-101.361 -44.075  0.00  0.00     0.127 C 
BRANCH  17  18
ATOM     18  C   UNL d   1     -55.284-101.871 -44.709  0.00  0.00     0.119 A 
ATOM     19  O   UNL d   1     -55.955-102.300 -44.901  0.00  0.00    -0.304 OA
ATOM     20  C   UNL d   1     -55.806-102.736 -45.572  0.00  0.00     0.123 A 
ATOM     21  C   UNL d   1     -55.032-102.582 -45.809  0.00  0.00     0.029 A 
ATOM     22  C   UNL d   1     -54.713-102.044 -45.269  0.00  0.00     0.028 A 
ENDBRANCH  17  18
ENDBRANCH  15  17
ENDBRANCH  13  14
ENDBRANCH  12  13
ENDBRANCH   8  12
BRANCH   2  23
ATOM     23  C   UNL d   1     -59.137 -98.766 -45.001  0.00  0.00     0.083 C 
BRANCH  23  24
ATOM     24  C   UNL d   1     -59.184 -98.793 -45.820  0.00  0.00     0.018 A 
ATOM     25  C   UNL d   1     -58.484 -98.756 -46.266  0.00  0.00     0.002 A 
ATOM     26  C   UNL d   1     -58.540 -98.783 -47.089  0.00  0.00     0.007 A 
ATOM     27  C   UNL d   1     -59.277 -98.845 -47.451  0.00  0.00     0.035 A 
ATOM     28  C   UNL d   1     -59.959 -98.880 -46.990  0.00  0.00     0.007 A 
ATOM     29 BR   UNL d   1     -59.321 -98.871 -48.271  0.00  0.00    -0.049 Br
ATOM     30  C   UNL d   1     -59.908 -98.854 -46.175  0.00  0.00     0.002 A 
ENDBRANCH  23  24
ENDBRANCH   2  23
TORSDOF 7
ENDMDL
