MODEL 1
REMARK VINA RESULT:      -8.3      0.000      0.000
REMARK  2 active torsions:
REMARK  status: ('A' for Active; 'I' for Inactive)
REMARK    1  A    between atoms: C_7  and  C_5 
REMARK    2  A    between atoms: C_8  and  C_7 
ROOT
ATOM      1  C   UNL d   1      53.535  32.169  53.883  0.00  0.00     0.046 C 
ENDROOT
BRANCH   1   2
ATOM      2  C   UNL d   1      52.928  32.495  53.453  0.00  0.00     0.205 A 
ATOM      3  N   UNL d   1      52.841  32.349  52.665  0.00  0.00    -0.120 NA
ATOM      4  N   UNL d   1      52.173  32.765  52.405  0.00  0.00    -0.109 NA
ATOM      5  C   UNL d   1      51.874  33.155  53.059  0.00  0.00     0.262 A 
ATOM      6  O   UNL d   1      52.311  33.003  53.682  0.00  0.00    -0.260 OA
ATOM      7  S   UNL d   1      51.190  33.652  53.064  0.00  0.00    -0.029 SA
ENDBRANCH   1   2
BRANCH   1   8
ATOM      8  C   UNL d   1      54.091  32.677  54.280  0.00  0.00     0.004 A 
ATOM      9  C   UNL d   1      54.705  33.056  53.879  0.00  0.00     0.000 A 
ATOM     10  C   UNL d   1      55.237  33.546  54.274  0.00  0.00     0.000 A 
ATOM     11  C   UNL d   1      55.139  33.647  55.088  0.00  0.00     0.000 A 
ATOM     12  C   UNL d   1      54.534  33.279  55.505  0.00  0.00     0.000 A 
ATOM     13  C   UNL d   1      53.992  32.773  55.070  0.00  0.00     0.000 A 
ENDBRANCH   1   8
TORSDOF 2
ENDMDL
MODEL 2
REMARK VINA RESULT:      -8.2      1.553      1.767
REMARK  2 active torsions:
REMARK  status: ('A' for Active; 'I' for Inactive)
REMARK    1  A    between atoms: C_7  and  C_5 
REMARK    2  A    between atoms: C_8  and  C_7 
ROOT
ATOM      1  C   UNL d   1      54.041  32.673  53.170  0.00  0.00     0.046 C 
ENDROOT
BRANCH   1   2
ATOM      2  C   UNL d   1      53.562  32.019  53.108  0.00  0.00     0.205 A 
ATOM      3  N   UNL d   1      52.871  32.038  52.694  0.00  0.00    -0.120 NA
ATOM      4  N   UNL d   1      52.528  31.286  52.745  0.00  0.00    -0.109 NA
ATOM      5  C   UNL d   1      53.035  30.830  53.198  0.00  0.00     0.262 A 
ATOM      6  O   UNL d   1      53.648  31.252  53.417  0.00  0.00    -0.260 OA
ATOM      7  S   UNL d   1      52.915  30.018  53.401  0.00  0.00    -0.029 SA
ENDBRANCH   1   2
BRANCH   1   8
ATOM      8  C   UNL d   1      54.062  33.113  53.898  0.00  0.00     0.004 A 
ATOM      9  C   UNL d   1      53.453  33.625  54.120  0.00  0.00     0.000 A 
ATOM     10  C   UNL d   1      53.485  34.046  54.828  0.00  0.00     0.000 A 
ATOM     11  C   UNL d   1      54.146  33.941  55.312  0.00  0.00     0.000 A 
ATOM     12  C   UNL d   1      54.762  33.436  55.109  0.00  0.00     0.000 A 
ATOM     13  C   UNL d   1      54.706  33.008  54.365  0.00  0.00     0.000 A 
ENDBRANCH   1   8
TORSDOF 2
ENDMDL
MODEL 3
REMARK VINA RESULT:      -7.5      1.801      2.750
REMARK  2 active torsions:
REMARK  status: ('A' for Active; 'I' for Inactive)
REMARK    1  A    between atoms: C_7  and  C_5 
REMARK    2  A    between atoms: C_8  and  C_7 
ROOT
ATOM      1  C   UNL d   1      54.268  32.308  53.569  0.00  0.00     0.046 C 
ENDROOT
BRANCH   1   2
ATOM      2  C   UNL d   1      54.065  32.909  54.077  0.00  0.00     0.205 A 
ATOM      3  N   UNL d   1      54.319  32.921  54.842  0.00  0.00    -0.120 NA
ATOM      4  N   UNL d   1      54.012  33.604  55.197  0.00  0.00    -0.109 NA
ATOM      5  C   UNL d   1      53.574  33.987  54.622  0.00  0.00     0.262 A 
ATOM      6  O   UNL d   1      53.598  33.586  53.959  0.00  0.00    -0.260 OA
ATOM      7  S   UNL d   1      53.154  34.713  54.729  0.00  0.00    -0.029 SA
ENDBRANCH   1   2
BRANCH   1   8
ATOM      8  C   UNL d   1      53.723  31.669  53.433  0.00  0.00     0.004 A 
ATOM      9  C   UNL d   1      53.060  31.750  52.948  0.00  0.00     0.000 A 
ATOM     10  C   UNL d   1      52.539  31.123  52.825  0.00  0.00     0.000 A 
ATOM     11  C   UNL d   1      52.700  30.406  53.201  0.00  0.00     0.000 A 
ATOM     12  C   UNL d   1      53.355  30.304  53.687  0.00  0.00     0.000 A 
ATOM     13  C   UNL d   1      53.883  30.974  53.801  0.00  0.00     0.000 A 
ENDBRANCH   1   8
TORSDOF 2
ENDMDL
MODEL 4
REMARK VINA RESULT:      -7.4      1.674      3.162
REMARK  2 active torsions:
REMARK  status: ('A' for Active; 'I' for Inactive)
REMARK    1  A    between atoms: C_7  and  C_5 
REMARK    2  A    between atoms: C_8  and  C_7 
ROOT
ATOM      1  C   UNL d   1      53.021  32.817  53.010  0.00  0.00     0.046 C 
ENDROOT
BRANCH   1   2
ATOM      2  C   UNL d   1      53.464  32.826  53.691  0.00  0.00     0.205 A 
ATOM      3  N   UNL d   1      53.483  32.194  54.191  0.00  0.00    -0.120 NA
ATOM      4  N   UNL d   1      53.983  32.389  54.822  0.00  0.00    -0.109 NA
ATOM      5  C   UNL d   1      54.254  33.148  54.678  0.00  0.00     0.262 A 
ATOM      6  O   UNL d   1      53.953  33.414  54.013  0.00  0.00    -0.260 OA
ATOM      7  S   UNL d   1      54.781  33.584  55.174  0.00  0.00    -0.029 SA
ENDBRANCH   1   2
BRANCH   1   8
ATOM      8  C   UNL d   1      52.282  33.239  52.982  0.00  0.00     0.004 A 
ATOM      9  C   UNL d   1      51.587  32.931  53.303  0.00  0.00     0.000 A 
ATOM     10  C   UNL d   1      50.878  33.349  53.269  0.00  0.00     0.000 A 
ATOM     11  C   UNL d   1      50.881  34.089  52.903  0.00  0.00     0.000 A 
ATOM     12  C   UNL d   1      51.563  34.414  52.578  0.00  0.00     0.000 A 
ATOM     13  C   UNL d   1      52.290  33.958  52.625  0.00  0.00     0.000 A 
ENDBRANCH   1   8
TORSDOF 2
ENDMDL
