MODEL 1
REMARK VINA RESULT:       0.9      0.000      0.000
REMARK  2 active torsions:
REMARK  status: ('A' for Active; 'I' for Inactive)
REMARK    1  A    between atoms: N_10  and  C_3 
REMARK    2  A    between atoms: C_11  and  C_5 
ROOT
ATOM      1  N   UNL d   1      58.633  -1.417  29.879  0.00  0.00    -0.196 N 
ATOM      2  C   UNL d   1      59.278  -1.860  29.603  0.00  0.00     0.167 A 
ATOM      3  C   UNL d   1      58.768  -0.678  30.211  0.00  0.00     0.152 A 
ATOM      4  N   UNL d   1      57.762  -2.453  29.486  0.00  0.00    -0.163 NA
ATOM      5  C   UNL d   1      59.167  -2.590  29.273  0.00  0.00     0.055 A 
ATOM      6  N   UNL d   1      60.045  -1.553  29.666  0.00  0.00    -0.227 NA
ATOM      7  C   UNL d   1      59.522  -0.374  30.274  0.00  0.00     0.052 A 
ATOM      8  C   UNL d   1      58.404  -2.893  29.212  0.00  0.00     0.104 A 
ATOM      9  C   UNL d   1      60.164  -0.814  29.999  0.00  0.00     0.086 A 
ATOM     10  C   UNL d   1      59.636   0.374  30.612  0.00  0.00     0.004 A 
ATOM     11  C   UNL d   1      58.279  -3.620  28.885  0.00  0.00     0.023 C 
ATOM     12  C   UNL d   1      60.927  -0.510  30.060  0.00  0.00     0.019 A 
ATOM     13  C   UNL d   1      60.413   0.678  30.672  0.00  0.00     0.000 A 
ATOM     14  C   UNL d   1      61.055   0.239  30.398  0.00  0.00     0.002 A 
ENDROOT
BRANCH   3  15
ATOM     15  N   UNL d   1      58.114  -0.226  30.492  0.00  0.00    -0.285 N 
ATOM     16  C   UNL d   1      57.638   0.222  29.950  0.00  0.00     0.108 A 
ATOM     17  C   UNL d   1      56.989   0.670  30.234  0.00  0.00     0.142 A 
ATOM     18  O   UNL d   1      56.800   0.682  31.066  0.00  0.00    -0.300 OA
ATOM     19  C   UNL d   1      57.282   0.232  31.596  0.00  0.00     0.142 A 
ATOM     20  C   UNL d   1      57.930  -0.216  31.313  0.00  0.00     0.108 A 
ENDBRANCH   3  15
BRANCH   5  21
ATOM     21  C   UNL d   1      59.809  -3.029  28.999  0.00  0.00     0.004 A 
ATOM     22  C   UNL d   1      60.489  -2.645  28.771  0.00  0.00     0.000 A 
ATOM     23  C   UNL d   1      61.131  -3.084  28.497  0.00  0.00     0.000 A 
ATOM     24  C   UNL d   1      61.083  -3.902  28.455  0.00  0.00     0.000 A 
ATOM     25  C   UNL d   1      60.393  -4.280  28.687  0.00  0.00     0.000 A 
ATOM     26  C   UNL d   1      59.751  -3.841  28.961  0.00  0.00     0.000 A 
ENDBRANCH   5  21
TORSDOF 2
ENDMDL
MODEL 2
REMARK VINA RESULT:       0.9      8.147      8.905
REMARK  2 active torsions:
REMARK  status: ('A' for Active; 'I' for Inactive)
REMARK    1  A    between atoms: N_10  and  C_3 
REMARK    2  A    between atoms: C_11  and  C_5 
ROOT
ATOM      1  N   UNL d   1      58.701  -9.367  32.074  0.00  0.00    -0.196 N 
ATOM      2  C   UNL d   1      59.343  -9.367  32.599  0.00  0.00     0.167 A 
ATOM      3  C   UNL d   1      58.841  -9.479  31.272  0.00  0.00     0.152 A 
ATOM      4  N   UNL d   1      57.824  -9.146  33.154  0.00  0.00    -0.163 NA
ATOM      5  C   UNL d   1      59.227  -9.259  33.392  0.00  0.00     0.055 A 
ATOM      6  N   UNL d   1      60.111  -9.480  32.311  0.00  0.00    -0.227 NA
ATOM      7  C   UNL d   1      59.597  -9.590  30.986  0.00  0.00     0.052 A 
ATOM      8  C   UNL d   1      58.463  -9.147  33.677  0.00  0.00     0.104 A 
ATOM      9  C   UNL d   1      60.235  -9.591  31.508  0.00  0.00     0.086 A 
ATOM     10  C   UNL d   1      59.716  -9.702  30.173  0.00  0.00     0.004 A 
ATOM     11  C   UNL d   1      58.333  -9.037  34.465  0.00  0.00     0.023 C 
ATOM     12  C   UNL d   1      61.000  -9.703  31.223  0.00  0.00     0.019 A 
ATOM     13  C   UNL d   1      60.494  -9.815  29.888  0.00  0.00     0.000 A 
ATOM     14  C   UNL d   1      61.132  -9.815  30.411  0.00  0.00     0.002 A 
ENDROOT
BRANCH   3  15
ATOM     15  N   UNL d   1      58.190  -9.479  30.736  0.00  0.00    -0.285 N 
ATOM     16  C   UNL d   1      57.446  -9.818  30.964  0.00  0.00     0.108 A 
ATOM     17  C   UNL d   1      56.802  -9.816  30.428  0.00  0.00     0.142 A 
ATOM     18  O   UNL d   1      56.886  -9.476  29.650  0.00  0.00    -0.300 OA
ATOM     19  C   UNL d   1      57.632  -9.142  29.433  0.00  0.00     0.142 A 
ATOM     20  C   UNL d   1      58.276  -9.143  29.969  0.00  0.00     0.108 A 
ENDBRANCH   3  15
BRANCH   5  21
ATOM     21  C   UNL d   1      59.866  -9.259  33.914  0.00  0.00     0.004 A 
ATOM     22  C   UNL d   1      60.453  -8.702  33.829  0.00  0.00     0.000 A 
ATOM     23  C   UNL d   1      61.092  -8.702  34.351  0.00  0.00     0.000 A 
ATOM     24  C   UNL d   1      61.133  -9.260  34.950  0.00  0.00     0.000 A 
ATOM     25  C   UNL d   1      60.537  -9.817  35.029  0.00  0.00     0.000 A 
ATOM     26  C   UNL d   1      59.898  -9.817  34.506  0.00  0.00     0.000 A 
ENDBRANCH   5  21
TORSDOF 2
ENDMDL
MODEL 3
REMARK VINA RESULT:       1.0      1.734      4.311
REMARK  2 active torsions:
REMARK  status: ('A' for Active; 'I' for Inactive)
REMARK    1  A    between atoms: N_10  and  C_3 
REMARK    2  A    between atoms: C_11  and  C_5 
ROOT
ATOM      1  N   UNL d   1      57.469  -1.489  30.914  0.00  0.00    -0.196 N 
ATOM      2  C   UNL d   1      57.323  -0.916  31.496  0.00  0.00     0.167 A 
ATOM      3  C   UNL d   1      58.074  -1.364  30.373  0.00  0.00     0.152 A 
ATOM      4  N   UNL d   1      56.417  -2.272  31.430  0.00  0.00    -0.163 NA
ATOM      5  C   UNL d   1      56.732  -1.020  32.038  0.00  0.00     0.055 A 
ATOM      6  N   UNL d   1      57.787  -0.231  31.524  0.00  0.00    -0.227 NA
ATOM      7  C   UNL d   1      58.532  -0.690  30.399  0.00  0.00     0.052 A 
ATOM      8  C   UNL d   1      56.272  -1.702  32.008  0.00  0.00     0.104 A 
ATOM      9  C   UNL d   1      58.388  -0.120  30.978  0.00  0.00     0.086 A 
ATOM     10  C   UNL d   1      59.138  -0.583  29.844  0.00  0.00     0.004 A 
ATOM     11  C   UNL d   1      55.679  -1.818  32.543  0.00  0.00     0.023 C 
ATOM     12  C   UNL d   1      58.848   0.563  31.008  0.00  0.00     0.019 A 
ATOM     13  C   UNL d   1      59.603   0.111  29.877  0.00  0.00     0.000 A 
ATOM     14  C   UNL d   1      59.459   0.681  30.456  0.00  0.00     0.002 A 
ENDROOT
BRANCH   3  15
ATOM     15  N   UNL d   1      58.225  -1.945  29.780  0.00  0.00    -0.285 N 
ATOM     16  C   UNL d   1      58.799  -2.555  29.915  0.00  0.00     0.108 A 
ATOM     17  C   UNL d   1      58.946  -3.130  29.323  0.00  0.00     0.142 A 
ATOM     18  O   UNL d   1      58.522  -3.109  28.582  0.00  0.00    -0.300 OA
ATOM     19  C   UNL d   1      57.953  -2.496  28.460  0.00  0.00     0.142 A 
ATOM     20  C   UNL d   1      57.806  -1.921  29.051  0.00  0.00     0.108 A 
ENDBRANCH   3  15
BRANCH   5  21
ATOM     21  C   UNL d   1      56.588  -0.450  32.617  0.00  0.00     0.004 A 
ATOM     22  C   UNL d   1      55.965   0.066  32.524  0.00  0.00     0.000 A 
ATOM     23  C   UNL d   1      55.821   0.636  33.102  0.00  0.00     0.000 A 
ATOM     24  C   UNL d   1      56.301   0.681  33.765  0.00  0.00     0.000 A 
ATOM     25  C   UNL d   1      56.926   0.157  33.850  0.00  0.00     0.000 A 
ATOM     26  C   UNL d   1      57.071  -0.413  33.271  0.00  0.00     0.000 A 
ENDBRANCH   5  21
TORSDOF 2
ENDMDL
MODEL 4
REMARK VINA RESULT:       2.5      2.259      4.762
REMARK  2 active torsions:
REMARK  status: ('A' for Active; 'I' for Inactive)
REMARK    1  A    between atoms: N_10  and  C_3 
REMARK    2  A    between atoms: C_11  and  C_5 
ROOT
ATOM      1  N   UNL d   1      58.398   0.104  31.975  0.00  0.00    -0.196 N 
ATOM      2  C   UNL d   1      57.616  -0.138  32.118  0.00  0.00     0.167 A 
ATOM      3  C   UNL d   1      58.745  -0.075  31.252  0.00  0.00     0.152 A 
ATOM      4  N   UNL d   1      58.449   0.682  33.259  0.00  0.00    -0.163 NA
ATOM      5  C   UNL d   1      57.256   0.029  32.822  0.00  0.00     0.055 A 
ATOM      6  N   UNL d   1      57.200  -0.553  31.535  0.00  0.00    -0.227 NA
ATOM      7  C   UNL d   1      58.336  -0.485  30.676  0.00  0.00     0.052 A 
ATOM      8  C   UNL d   1      57.672   0.442  33.401  0.00  0.00     0.104 A 
ATOM      9  C   UNL d   1      57.560  -0.724  30.818  0.00  0.00     0.086 A 
ATOM     10  C   UNL d   1      58.705  -0.655  29.954  0.00  0.00     0.004 A 
ATOM     11  C   UNL d   1      57.325   0.614  34.108  0.00  0.00     0.023 C 
ATOM     12  C   UNL d   1      57.144  -1.138  30.240  0.00  0.00     0.019 A 
ATOM     13  C   UNL d   1      58.279  -1.075  29.369  0.00  0.00     0.000 A 
ATOM     14  C   UNL d   1      57.503  -1.315  29.511  0.00  0.00     0.002 A 
ENDROOT
BRANCH   3  15
ATOM     15  N   UNL d   1      59.538   0.168  31.103  0.00  0.00    -0.285 N 
ATOM     16  C   UNL d   1      60.118   0.142  31.723  0.00  0.00     0.108 A 
ATOM     17  C   UNL d   1      60.905   0.385  31.571  0.00  0.00     0.142 A 
ATOM     18  O   UNL d   1      61.133   0.660  30.796  0.00  0.00    -0.300 OA
ATOM     19  C   UNL d   1      60.547   0.681  30.186  0.00  0.00     0.142 A 
ATOM     20  C   UNL d   1      59.759   0.439  30.338  0.00  0.00     0.108 A 
ENDBRANCH   3  15
BRANCH   5  21
ATOM     21  C   UNL d   1      56.480  -0.211  32.965  0.00  0.00     0.004 A 
ATOM     22  C   UNL d   1      56.327  -0.993  33.131  0.00  0.00     0.000 A 
ATOM     23  C   UNL d   1      55.550  -1.233  33.273  0.00  0.00     0.000 A 
ATOM     24  C   UNL d   1      54.939  -0.687  33.247  0.00  0.00     0.000 A 
ATOM     25  C   UNL d   1      55.103   0.099  33.078  0.00  0.00     0.000 A 
ATOM     26  C   UNL d   1      55.880   0.339  32.936  0.00  0.00     0.000 A 
ENDBRANCH   5  21
TORSDOF 2
ENDMDL
