MODEL 1
REMARK VINA RESULT:      -7.6      0.000      0.000
REMARK  5 active torsions:
REMARK  status: ('A' for Active; 'I' for Inactive)
REMARK    1  A    between atoms: C_11  and  C_4 
REMARK    2  A    between atoms: N_10  and  C_5 
REMARK    3  A    between atoms: C_12  and  C_8 
REMARK    4  A    between atoms: C_16  and  N_10 
REMARK    5  A    between atoms: C_17  and  C_16 
ROOT
ATOM      1  C   UNL d   1      52.433  34.095  53.738  0.00  0.00     0.167 A 
ATOM      2  N   UNL d   1      51.726  34.390  53.417  0.00  0.00    -0.195 N 
ATOM      3  N   UNL d   1      52.633  33.319  53.617  0.00  0.00    -0.231 NA
ATOM      4  C   UNL d   1      52.910  34.579  54.164  0.00  0.00     0.057 A 
ATOM      5  C   UNL d   1      51.254  33.894  52.991  0.00  0.00     0.167 A 
ATOM      6  N   UNL d   1      52.006  35.639  53.963  0.00  0.00    -0.161 NA
ATOM      7  C   UNL d   1      51.450  33.116  52.868  0.00  0.00     0.054 A 
ATOM      8  C   UNL d   1      52.153  32.823  53.186  0.00  0.00     0.063 A 
ATOM      9  C   UNL d   1      52.697  35.351  54.276  0.00  0.00     0.124 A 
ENDROOT
BRANCH   5  10
ATOM     10  N   UNL d   1      50.534  34.195  52.664  0.00  0.00    -0.224 NA
BRANCH  10  11
ATOM     11  C   UNL d   1      50.079  34.199  51.956  0.00  0.00     0.120 C 
BRANCH  11  12
ATOM     12  C   UNL d   1      49.356  34.619  51.912  0.00  0.00     0.101 A 
ATOM     13  N   UNL d   1      49.091  35.081  52.574  0.00  0.00    -0.242 NA
ATOM     14  C   UNL d   1      48.360  35.503  52.524  0.00  0.00     0.099 A 
ATOM     15  C   UNL d   1      47.893  35.465  51.819  0.00  0.00     0.021 A 
ATOM     16  C   UNL d   1      48.166  34.999  51.158  0.00  0.00     0.003 A 
ATOM     17  C   UNL d   1      48.890  34.582  51.209  0.00  0.00     0.021 A 
ENDBRANCH  11  12
ENDBRANCH  10  11
ENDBRANCH   5  10
BRANCH   8  18
ATOM     18  C   UNL d   1      52.369  32.011  53.064  0.00  0.00     0.036 C 
ATOM     19  C   UNL d   1      52.586  31.208  52.939  0.00  0.00     0.006 C 
ATOM     20  C   UNL d   1      51.993  31.401  53.517  0.00  0.00     0.006 C 
ATOM     21  C   UNL d   1      52.962  31.820  52.485  0.00  0.00     0.006 C 
ENDBRANCH   8  18
BRANCH   4  22
ATOM     22  C   UNL d   1      53.601  34.290  54.478  0.00  0.00     0.005 A 
ATOM     23  C   UNL d   1      53.610  33.962  55.226  0.00  0.00     0.001 A 
ATOM     24  C   UNL d   1      54.290  33.679  55.535  0.00  0.00     0.011 A 
ATOM     25  C   UNL d   1      54.991  33.710  55.109  0.00  0.00     0.058 A 
ATOM     26  C   UNL d   1      54.990  34.031  54.374  0.00  0.00     0.011 A 
ATOM     27 CL   UNL d   1      55.708  33.411  55.434  0.00  0.00    -0.082 Cl
ATOM     28  C   UNL d   1      54.291  34.323  54.056  0.00  0.00     0.001 A 
ENDBRANCH   4  22
TORSDOF 5
ENDMDL
MODEL 2
REMARK VINA RESULT:      -6.5      1.852      4.365
REMARK  5 active torsions:
REMARK  status: ('A' for Active; 'I' for Inactive)
REMARK    1  A    between atoms: C_11  and  C_4 
REMARK    2  A    between atoms: N_10  and  C_5 
REMARK    3  A    between atoms: C_12  and  C_8 
REMARK    4  A    between atoms: C_16  and  N_10 
REMARK    5  A    between atoms: C_17  and  C_16 
ROOT
ATOM      1  C   UNL d   1      53.219  33.094  53.897  0.00  0.00     0.167 A 
ATOM      2  N   UNL d   1      53.383  32.293  53.757  0.00  0.00    -0.195 N 
ATOM      3  N   UNL d   1      52.547  33.424  53.589  0.00  0.00    -0.231 NA
ATOM      4  C   UNL d   1      53.727  33.534  54.336  0.00  0.00     0.057 A 
ATOM      5  C   UNL d   1      52.866  31.860  53.315  0.00  0.00     0.167 A 
ATOM      6  N   UNL d   1      54.554  32.406  54.500  0.00  0.00    -0.161 NA
ATOM      7  C   UNL d   1      52.191  32.187  53.003  0.00  0.00     0.054 A 
ATOM      8  C   UNL d   1      52.028  32.984  53.143  0.00  0.00     0.063 A 
ATOM      9  C   UNL d   1      54.394  33.191  54.638  0.00  0.00     0.124 A 
ENDROOT
BRANCH   5  10
ATOM     10  N   UNL d   1      53.032  31.043  53.171  0.00  0.00    -0.224 NA
BRANCH  10  11
ATOM     11  C   UNL d   1      52.680  30.279  53.207  0.00  0.00     0.120 C 
BRANCH  11  12
ATOM     12  C   UNL d   1      53.003  29.680  53.694  0.00  0.00     0.101 A 
ATOM     13  N   UNL d   1      52.603  29.446  54.407  0.00  0.00    -0.242 NA
ATOM     14  C   UNL d   1      52.935  28.841  54.894  0.00  0.00     0.099 A 
ATOM     15  C   UNL d   1      53.662  28.467  54.674  0.00  0.00     0.021 A 
ATOM     16  C   UNL d   1      54.059  28.707  53.957  0.00  0.00     0.003 A 
ATOM     17  C   UNL d   1      53.729  29.307  53.476  0.00  0.00     0.021 A 
ENDBRANCH  11  12
ENDBRANCH  10  11
ENDBRANCH   5  10
BRANCH   8  18
ATOM     18  C   UNL d   1      51.325  33.337  52.823  0.00  0.00     0.036 C 
ATOM     19  C   UNL d   1      50.632  33.688  52.502  0.00  0.00     0.006 C 
ATOM     20  C   UNL d   1      50.594  33.284  53.249  0.00  0.00     0.006 C 
ATOM     21  C   UNL d   1      51.364  33.740  52.075  0.00  0.00     0.006 C 
ENDBRANCH   8  18
BRANCH   4  22
ATOM     22  C   UNL d   1      53.567  34.318  54.473  0.00  0.00     0.005 A 
ATOM     23  C   UNL d   1      53.172  34.546  55.151  0.00  0.00     0.001 A 
ATOM     24  C   UNL d   1      53.014  35.318  55.286  0.00  0.00     0.011 A 
ATOM     25  C   UNL d   1      53.245  35.895  54.750  0.00  0.00     0.058 A 
ATOM     26  C   UNL d   1      53.634  35.678  54.082  0.00  0.00     0.011 A 
ATOM     27 CL   UNL d   1      53.080  36.708  54.892  0.00  0.00    -0.082 Cl
ATOM     28  C   UNL d   1      53.796  34.885  53.943  0.00  0.00     0.001 A 
ENDBRANCH   4  22
TORSDOF 5
ENDMDL
MODEL 3
REMARK VINA RESULT:      -6.1      1.709      3.329
REMARK  5 active torsions:
REMARK  status: ('A' for Active; 'I' for Inactive)
REMARK    1  A    between atoms: C_11  and  C_4 
REMARK    2  A    between atoms: N_10  and  C_5 
REMARK    3  A    between atoms: C_12  and  C_8 
REMARK    4  A    between atoms: C_16  and  N_10 
REMARK    5  A    between atoms: C_17  and  C_16 
ROOT
ATOM      1  C   UNL d   1      52.795  31.639  53.399  0.00  0.00     0.167 A 
ATOM      2  N   UNL d   1      52.374  32.227  52.993  0.00  0.00    -0.195 N 
ATOM      3  N   UNL d   1      53.381  31.852  53.916  0.00  0.00    -0.231 NA
ATOM      4  C   UNL d   1      52.618  30.865  53.278  0.00  0.00     0.057 A 
ATOM      5  C   UNL d   1      52.559  33.001  53.123  0.00  0.00     0.167 A 
ATOM      6  N   UNL d   1      51.618  31.243  52.361  0.00  0.00    -0.161 NA
ATOM      7  C   UNL d   1      53.146  33.219  53.640  0.00  0.00     0.054 A 
ATOM      8  C   UNL d   1      53.565  32.634  54.044  0.00  0.00     0.063 A 
ATOM      9  C   UNL d   1      52.030  30.668  52.759  0.00  0.00     0.124 A 
ENDROOT
BRANCH   5  10
ATOM     10  N   UNL d   1      52.130  33.601  52.709  0.00  0.00    -0.224 NA
BRANCH  10  11
ATOM     11  C   UNL d   1      51.701  34.314  52.834  0.00  0.00     0.120 C 
BRANCH  11  12
ATOM     12  C   UNL d   1      50.941  34.423  52.500  0.00  0.00     0.101 A 
ATOM     13  N   UNL d   1      50.826  34.328  51.663  0.00  0.00    -0.242 NA
ATOM     14  C   UNL d   1      50.057  34.438  51.332  0.00  0.00     0.099 A 
ATOM     15  C   UNL d   1      49.403  34.643  51.829  0.00  0.00     0.021 A 
ATOM     16  C   UNL d   1      49.526  34.737  52.669  0.00  0.00     0.003 A 
ATOM     17  C   UNL d   1      50.289  34.627  52.995  0.00  0.00     0.021 A 
ENDBRANCH  11  12
ENDBRANCH  10  11
ENDBRANCH   5  10
BRANCH   8  18
ATOM     18  C   UNL d   1      54.181  32.850  54.587  0.00  0.00     0.036 C 
ATOM     19  C   UNL d   1      54.788  33.064  55.128  0.00  0.00     0.006 C 
ATOM     20  C   UNL d   1      54.954  33.040  54.295  0.00  0.00     0.006 C 
ATOM     21  C   UNL d   1      54.014  32.874  55.421  0.00  0.00     0.006 C 
ENDBRANCH   8  18
BRANCH   4  22
ATOM     22  C   UNL d   1      53.030  30.290  53.675  0.00  0.00     0.005 A 
ATOM     23  C   UNL d   1      53.724  29.989  53.365  0.00  0.00     0.001 A 
ATOM     24  C   UNL d   1      54.129  29.422  53.756  0.00  0.00     0.011 A 
ATOM     25  C   UNL d   1      53.859  29.132  54.475  0.00  0.00     0.058 A 
ATOM     26  C   UNL d   1      53.179  29.422  54.785  0.00  0.00     0.011 A 
ATOM     27 CL   UNL d   1      54.286  28.534  54.887  0.00  0.00    -0.082 Cl
ATOM     28  C   UNL d   1      52.762  30.004  54.384  0.00  0.00     0.001 A 
ENDBRANCH   4  22
TORSDOF 5
ENDMDL
MODEL 4
REMARK VINA RESULT:      -5.0      1.335      2.610
REMARK  5 active torsions:
REMARK  status: ('A' for Active; 'I' for Inactive)
REMARK    1  A    between atoms: C_11  and  C_4 
REMARK    2  A    between atoms: N_10  and  C_5 
REMARK    3  A    between atoms: C_12  and  C_8 
REMARK    4  A    between atoms: C_16  and  N_10 
REMARK    5  A    between atoms: C_17  and  C_16 
ROOT
ATOM      1  C   UNL d   1      51.569  33.279  53.303  0.00  0.00     0.167 A 
ATOM      2  N   UNL d   1      50.820  33.613  53.175  0.00  0.00    -0.195 N 
ATOM      3  N   UNL d   1      52.193  33.759  53.496  0.00  0.00    -0.231 NA
ATOM      4  C   UNL d   1      51.669  32.486  53.236  0.00  0.00     0.057 A 
ATOM      5  C   UNL d   1      50.731  34.411  53.246  0.00  0.00     0.167 A 
ATOM      6  N   UNL d   1      50.304  32.346  52.917  0.00  0.00    -0.161 NA
ATOM      7  C   UNL d   1      51.354  34.896  53.439  0.00  0.00     0.054 A 
ATOM      8  C   UNL d   1      52.098  34.564  53.566  0.00  0.00     0.063 A 
ATOM      9  C   UNL d   1      51.037  32.019  53.043  0.00  0.00     0.124 A 
ENDROOT
BRANCH   5  10
ATOM     10  N   UNL d   1      49.968  34.752  53.115  0.00  0.00    -0.224 NA
BRANCH  10  11
ATOM     11  C   UNL d   1      49.509  35.143  52.527  0.00  0.00     0.120 C 
BRANCH  11  12
ATOM     12  C   UNL d   1      48.778  35.503  52.722  0.00  0.00     0.101 A 
ATOM     13  N   UNL d   1      48.682  35.893  53.471  0.00  0.00    -0.242 NA
ATOM     14  C   UNL d   1      47.942  36.254  53.662  0.00  0.00     0.099 A 
ATOM     15  C   UNL d   1      47.300  36.229  53.111  0.00  0.00     0.021 A 
ATOM     16  C   UNL d   1      47.404  35.835  52.361  0.00  0.00     0.003 A 
ATOM     17  C   UNL d   1      48.138  35.478  52.173  0.00  0.00     0.021 A 
ENDBRANCH  11  12
ENDBRANCH  10  11
ENDBRANCH   5  10
BRANCH   8  18
ATOM     18  C   UNL d   1      52.756  35.060  53.768  0.00  0.00     0.036 C 
ATOM     19  C   UNL d   1      53.407  35.552  53.973  0.00  0.00     0.006 C 
ATOM     20  C   UNL d   1      53.284  35.331  53.162  0.00  0.00     0.006 C 
ATOM     21  C   UNL d   1      52.879  35.282  54.581  0.00  0.00     0.006 C 
ENDBRANCH   8  18
BRANCH   4  22
ATOM     22  C   UNL d   1      52.401  32.159  53.361  0.00  0.00     0.005 A 
ATOM     23  C   UNL d   1      52.907  32.025  52.733  0.00  0.00     0.001 A 
ATOM     24  C   UNL d   1      53.628  31.703  52.857  0.00  0.00     0.011 A 
ATOM     25  C   UNL d   1      53.874  31.501  53.613  0.00  0.00     0.058 A 
ATOM     26  C   UNL d   1      53.383  31.629  54.234  0.00  0.00     0.011 A 
ATOM     27 CL   UNL d   1      54.634  31.161  53.743  0.00  0.00    -0.082 Cl
ATOM     28  C   UNL d   1      52.642  31.960  54.107  0.00  0.00     0.001 A 
ENDBRANCH   4  22
TORSDOF 5
ENDMDL
