MODEL 1
REMARK VINA RESULT:      67.6      0.000      0.000
REMARK  5 active torsions:
REMARK  status: ('A' for Active; 'I' for Inactive)
REMARK    1  A    between atoms: C_10  and  C_4 
REMARK    2  A    between atoms: N_12  and  C_5 
REMARK    3  A    between atoms: N_11  and  C_22 
REMARK    4  A    between atoms: C_21  and  N_12 
REMARK    5  A    between atoms: C_22  and  C_21 
ROOT
ATOM      1  N   UNL d   1     -54.843-101.570 -40.179  0.00  0.00    -0.195 N 
ATOM      2  C   UNL d   1     -54.836-101.032 -39.555  0.00  0.00     0.167 A 
ATOM      3  N   UNL d   1     -54.877-102.323 -39.861  0.00  0.00    -0.163 NA
ATOM      4  C   UNL d   1     -54.867-101.458 -38.856  0.00  0.00     0.055 A 
ATOM      5  C   UNL d   1     -54.816-101.300 -40.957  0.00  0.00     0.167 A 
ATOM      6  C   UNL d   1     -54.891-102.245 -39.041  0.00  0.00     0.104 A 
ATOM      7  N   UNL d   1     -54.804-100.223 -39.707  0.00  0.00    -0.227 NA
ATOM      8  C   UNL d   1     -54.783-100.482 -41.111  0.00  0.00     0.058 A 
ATOM      9  C   UNL d   1     -54.777 -99.949 -40.493  0.00  0.00     0.086 A 
ATOM     10  C   UNL d   1     -54.926-102.864 -38.491  0.00  0.00     0.023 C 
ATOM     11  C   UNL d   1     -54.744 -99.130 -40.661  0.00  0.00     0.021 C 
ENDROOT
BRANCH   5  12
ATOM     12  N   UNL d   1     -54.823-101.837 -41.581  0.00  0.00    -0.224 NA
BRANCH  12  13
ATOM     13  C   UNL d   1     -55.305-101.705 -42.235  0.00  0.00     0.120 C 
BRANCH  13  14
ATOM     14  C   UNL d   1     -55.196-101.026 -42.704  0.00  0.00     0.101 C 
BRANCH  14  15
ATOM     15  N   UNL d   1     -55.112-101.101 -43.518  0.00  0.00    -0.298 N 
ATOM     16  C   UNL d   1     -55.338-101.805 -43.892  0.00  0.00     0.107 A 
ATOM     17  C   UNL d   1     -55.255-101.880 -44.706  0.00  0.00     0.142 A 
ATOM     18  O   UNL d   1     -54.945-101.257 -45.162  0.00  0.00    -0.300 OA
ATOM     19  C   UNL d   1     -54.718-100.549 -44.786  0.00  0.00     0.142 A 
ATOM     20  C   UNL d   1     -54.801-100.472 -43.967  0.00  0.00     0.107 A 
ENDBRANCH  14  15
ENDBRANCH  13  14
ENDBRANCH  12  13
ENDBRANCH   5  12
BRANCH   4  21
ATOM     21  C   UNL d   1     -54.875-101.218 -38.062  0.00  0.00     0.004 A 
ATOM     22  C   UNL d   1     -54.723-100.425 -37.872  0.00  0.00     0.001 A 
ATOM     23  C   UNL d   1     -54.732-100.188 -37.083  0.00  0.00     0.011 A 
ATOM     24  C   UNL d   1     -54.890-100.738 -36.489  0.00  0.00     0.058 A 
ATOM     25  C   UNL d   1     -55.041-101.526 -36.672  0.00  0.00     0.011 A 
ATOM     26 CL   UNL d   1     -54.897-100.492 -35.695  0.00  0.00    -0.082 Cl
ATOM     27  C   UNL d   1     -55.033-101.766 -37.466  0.00  0.00     0.001 A 
ENDBRANCH   4  21
TORSDOF 5
ENDMDL
