MODEL 1
REMARK VINA RESULT:      24.9      0.000      0.000
REMARK  5 active torsions:
REMARK  status: ('A' for Active; 'I' for Inactive)
REMARK    1  A    between atoms: C_7  and  N_2 
REMARK    2  A    between atoms: C_14  and  C_7 
REMARK    3  A    between atoms: C_8  and  O_16 
REMARK    4  A    between atoms: C_18  and  C_14 
REMARK    5  A    between atoms: O_16  and  C_18 
ROOT
ATOM      1  C   UNL d   1      14.201  12.710  -0.672  0.00  0.00     0.086 C 
ENDROOT
BRANCH   1   2
ATOM      2  N   UNL d   1      14.906  13.061  -0.434  0.00  0.00    -0.268 N 
ATOM      3  C   UNL d   1      15.592  12.662  -0.211  0.00  0.00     0.296 A 
ATOM      4  S   UNL d   1      16.165  13.235  -0.015  0.00  0.00    -0.025 SA
ATOM      5  O   UNL d   1      15.701  11.846  -0.183  0.00  0.00    -0.259 OA
ATOM      6  C   UNL d   1      15.821  13.978  -0.122  0.00  0.00     0.050 A 
ATOM      7  C   UNL d   1      16.121  14.751  -0.014  0.00  0.00     0.008 A 
ATOM      8  C   UNL d   1      15.049  13.876  -0.379  0.00  0.00     0.073 A 
ATOM      9  C   UNL d   1      15.639  15.400  -0.168  0.00  0.00     0.001 A 
ATOM     10  C   UNL d   1      14.860  15.287  -0.427  0.00  0.00     0.002 A 
ATOM     11  C   UNL d   1      14.562  14.525  -0.533  0.00  0.00     0.018 A 
ENDBRANCH   1   2
BRANCH   1  12
ATOM     12  C   UNL d   1      14.202  12.128  -1.265  0.00  0.00     0.046 C 
BRANCH  12  13
ATOM     13  C   UNL d   1      13.505  11.929  -1.659  0.00  0.00     0.124 C 
BRANCH  13  14
ATOM     14  O   UNL d   1      13.401  12.144  -2.442  0.00  0.00    -0.305 OA
BRANCH  14  15
ATOM     15  C   UNL d   1      13.292  12.359  -3.234  0.00  0.00     0.100 A 
ATOM     16  C   UNL d   1      13.316  13.145  -3.437  0.00  0.00     0.025 A 
ATOM     17  C   UNL d   1      13.208  13.371  -4.229  0.00  0.00     0.002 A 
ATOM     18  C   UNL d   1      13.077  12.791  -4.805  0.00  0.00     0.000 A 
ATOM     19  C   UNL d   1      13.054  11.996  -4.587  0.00  0.00     0.002 A 
ATOM     20  C   UNL d   1      12.970  13.008  -5.587  0.00  0.00     0.000 C 
ATOM     21  C   UNL d   1      13.161  11.780  -3.805  0.00  0.00     0.025 A 
ENDBRANCH  14  15
ENDBRANCH  13  14
ENDBRANCH  12  13
ENDBRANCH   1  12
TORSDOF 5
ENDMDL
