MODEL 1
REMARK VINA RESULT:      23.3      0.000      0.000
REMARK  4 active torsions:
REMARK  status: ('A' for Active; 'I' for Inactive)
REMARK    1  A    between atoms: C_6  and  C_1 
REMARK       I    between atoms: N_11  and  C_6 
REMARK    2  A    between atoms: O_14  and  C_9 
REMARK    3  A    between atoms: C_16  and  N_11 
REMARK    4  A    between atoms: C_12  and  C_16 
ROOT
ATOM      1  C   UNL d   1     -51.282  26.171  33.351  0.00  0.00     0.121 A 
ATOM      2  C   UNL d   1     -52.115  26.147  33.365  0.00  0.00     0.305 A 
ATOM      3  O   UNL d   1     -52.506  25.410  33.363  0.00  0.00    -0.271 OA
ATOM      4  C   UNL d   1     -50.837  25.458  33.334  0.00  0.00     0.012 A 
ATOM      5  C   UNL d   1     -52.074  24.706  33.346  0.00  0.00     0.125 A 
ATOM      6  C   UNL d   1     -51.241  24.735  33.331  0.00  0.00     0.025 A 
ATOM      7  O   UNL d   1     -52.552  26.847  33.382  0.00  0.00    -0.259 OA
ATOM      8  C   UNL d   1     -52.457  23.982  33.343  0.00  0.00     0.117 A 
ATOM      9  C   UNL d   1     -50.808  24.030  33.314  0.00  0.00     0.002 A 
ATOM     10  C   UNL d   1     -51.200  23.305  33.312  0.00  0.00     0.002 A 
ATOM     11  C   UNL d   1     -52.025  23.281  33.326  0.00  0.00     0.026 A 
ENDROOT
BRANCH   1  12
ATOM     12  C   UNL d   1     -50.890  26.895  33.354  0.00  0.00     0.284 C 
ATOM     13  O   UNL d   1     -51.319  27.598  33.307  0.00  0.00    -0.265 OA
ATOM     14  N   UNL d   1     -50.069  26.916  33.403  0.00  0.00    -0.206 NA
BRANCH  14  15
ATOM     15  C   UNL d   1     -49.669  27.644  33.406  0.00  0.00     0.102 C 
BRANCH  15  16
ATOM     16  C   UNL d   1     -49.699  28.125  34.075  0.00  0.00     0.021 C 
ATOM     17  C   UNL d   1     -49.004  28.434  34.391  0.00  0.00     0.002 C 
ENDBRANCH  15  16
ENDBRANCH  14  15
ENDBRANCH   1  12
BRANCH   8  18
ATOM     18  O   UNL d   1     -53.281  23.958  33.357  0.00  0.00    -0.326 OA
ATOM     19  C   UNL d   1     -53.671  23.272  33.596  0.00  0.00     0.181 C 
ENDBRANCH   8  18
TORSDOF 4
ENDMDL
