MODEL 1
REMARK VINA RESULT:      22.8      0.000      0.000
REMARK  3 active torsions:
REMARK  status: ('A' for Active; 'I' for Inactive)
REMARK    1  A    between atoms: C_7  and  C_1 
REMARK    2  A    between atoms: N_9  and  C_7 
REMARK    3  A    between atoms: C_8  and  N_9 
ROOT
ATOM      1  C   UNL d   1      58.427  49.685  50.336  0.00  0.00     0.146 A 
ATOM      2  C   UNL d   1      57.838  49.673  50.918  0.00  0.00     0.304 A 
ATOM      3  C   UNL d   1      58.184  49.673  49.520  0.00  0.00     0.304 A 
ATOM      4  O   UNL d   1      57.404  49.652  49.327  0.00  0.00    -0.277 OA
ATOM      5  O   UNL d   1      57.041  49.651  50.696  0.00  0.00    -0.277 OA
ATOM      6  C   UNL d   1      56.808  49.640  49.935  0.00  0.00     0.203 A 
ATOM      7  O   UNL d   1      58.776  49.685  48.923  0.00  0.00    -0.259 OA
ATOM      8  O   UNL d   1      58.075  49.684  51.756  0.00  0.00    -0.259 OA
ATOM      9  C   UNL d   1      56.033  49.621  50.154  0.00  0.00     0.062 C 
ATOM     10  C   UNL d   1      56.230  49.621  49.357  0.00  0.00     0.062 C 
ENDROOT
BRANCH   1  11
ATOM     11  C   UNL d   1      59.227  49.707  50.534  0.00  0.00     0.129 C 
BRANCH  11  12
ATOM     12  N   UNL d   1      59.458  49.502  51.285  0.00  0.00    -0.057 NA
BRANCH  12  13
ATOM     13  C   UNL d   1      60.265  49.542  51.491  0.00  0.00     0.750 A 
ATOM     14  N   UNL d   1      60.494  49.663  52.294  0.00  0.00    -0.058 NA
ATOM     15  C   UNL d   1      61.307  49.699  52.469  0.00  0.00     0.120 A 
ATOM     16  C   UNL d   1      61.875  49.621  51.901  0.00  0.00     0.043 A 
ATOM     17  C   UNL d   1      61.641  49.502  51.119  0.00  0.00     0.120 A 
ATOM     18  N   UNL d   1      60.854  49.464  50.918  0.00  0.00    -0.058 NA
ENDBRANCH  12  13
ENDBRANCH  11  12
ENDBRANCH   1  11
TORSDOF 3
ENDMDL
