MODEL 1
REMARK VINA RESULT:      46.8      0.000      0.000
REMARK  4 active torsions:
REMARK  status: ('A' for Active; 'I' for Inactive)
REMARK    1  A    between atoms: N_7  and  C_6 
REMARK       I    between atoms: C_8  and  N_7 
REMARK    2  A    between atoms: C_14  and  C_8 
REMARK    3  A    between atoms: C_16  and  C_14 
REMARK    4  A    between atoms: C_17  and  C_16 
ROOT
ATOM      1  C   UNL d   1     -50.734  24.666  33.321  0.00  0.00     0.269 A 
ATOM      2  N   UNL d   1     -51.146  23.939  33.320  0.00  0.00    -0.239 N 
ATOM      3  C   UNL d   1     -51.306  25.262  33.318  0.00  0.00     0.079 A 
ATOM      4  C   UNL d   1     -51.940  24.095  33.316  0.00  0.00     0.267 A 
ATOM      5  C   UNL d   1     -52.052  24.910  33.316  0.00  0.00     0.063 A 
ATOM      6  C   UNL d   1     -51.236  26.081  33.318  0.00  0.00     0.089 A 
ATOM      7  O   UNL d   1     -49.919  24.773  33.324  0.00  0.00    -0.267 OA
ATOM      8  O   UNL d   1     -52.550  23.518  33.314  0.00  0.00    -0.267 OA
ATOM      9  C   UNL d   1     -50.798  23.191  33.321  0.00  0.00     0.105 C 
ATOM     10  C   UNL d   1     -52.728  25.376  33.313  0.00  0.00     0.005 A 
ATOM     11  C   UNL d   1     -51.915  26.551  33.316  0.00  0.00     0.019 A 
ATOM     12  C   UNL d   1     -52.661  26.198  33.313  0.00  0.00     0.002 A 
ENDROOT
BRANCH   6  13
ATOM     13  N   UNL d   1     -50.491  26.433  33.321  0.00  0.00    -0.208 NA
ATOM     14  C   UNL d   1     -50.427  27.253  33.368  0.00  0.00     0.279 C 
ATOM     15  O   UNL d   1     -51.101  27.724  33.412  0.00  0.00    -0.265 OA
BRANCH  14  16
ATOM     16  C   UNL d   1     -49.681  27.606  33.371  0.00  0.00     0.062 C 
BRANCH  16  17
ATOM     17  C   UNL d   1     -49.119  27.375  33.929  0.00  0.00     0.005 C 
BRANCH  17  18
ATOM     18  C   UNL d   1     -48.799  27.933  34.446  0.00  0.00     0.000 A 
ATOM     19  C   UNL d   1     -48.340  28.561  34.145  0.00  0.00     0.000 A 
ATOM     20  C   UNL d   1     -48.021  29.119  34.662  0.00  0.00     0.000 A 
ATOM     21  C   UNL d   1     -48.161  29.049  35.480  0.00  0.00     0.000 A 
ATOM     22  C   UNL d   1     -48.610  28.433  35.765  0.00  0.00     0.000 A 
ATOM     23  C   UNL d   1     -48.929  27.875  35.248  0.00  0.00     0.000 A 
ENDBRANCH  17  18
ENDBRANCH  16  17
ENDBRANCH  14  16
ENDBRANCH   6  13
TORSDOF 4
ENDMDL
