MODEL 1
REMARK VINA RESULT:      69.8      0.000      0.000
REMARK  5 active torsions:
REMARK  status: ('A' for Active; 'I' for Inactive)
REMARK    1  A    between atoms: C_9  and  N_1 
REMARK    2  A    between atoms: C_10  and  C_2 
REMARK    3  A    between atoms: C_3  and  C_11 
REMARK    4  A    between atoms: O_14  and  C_9 
REMARK    5  A    between atoms: C_11  and  O_14 
ROOT
ATOM      1  C   UNL d   1      60.664  48.946  50.810  0.00  0.00     0.305 C 
ATOM      2  O   UNL d   1      60.997  48.893  50.054  0.00  0.00    -0.259 OA
ENDROOT
BRANCH   1   3
ATOM      3  C   UNL d   1      61.009  48.544  51.439  0.00  0.00     0.108 A 
ATOM      4  C   UNL d   1      61.286  47.766  51.429  0.00  0.00     0.116 A 
ATOM      5  N   UNL d   1      61.584  47.596  52.168  0.00  0.00    -0.126 NA
ATOM      6  O   UNL d   1      61.498  48.258  52.641  0.00  0.00    -0.211 OA
ATOM      7  C   UNL d   1      61.141  48.846  52.187  0.00  0.00     0.132 A 
ATOM      8  C   UNL d   1      60.948  49.610  52.441  0.00  0.00     0.029 C 
BRANCH   4   9
ATOM      9  C   UNL d   1      61.263  47.253  50.783  0.00  0.00     0.031 A 
ATOM     10  C   UNL d   1      61.102  46.457  50.902  0.00  0.00     0.059 A 
ATOM     11 CL   UNL d   1      60.966  46.175  51.648  0.00  0.00    -0.082 Cl
ATOM     12  C   UNL d   1      61.080  45.952  50.262  0.00  0.00     0.011 A 
ATOM     13  C   UNL d   1      61.219  46.236  49.495  0.00  0.00     0.001 A 
ATOM     14  C   UNL d   1      61.380  47.031  49.376  0.00  0.00     0.000 A 
ATOM     15  C   UNL d   1      61.403  47.544  50.022  0.00  0.00     0.002 A 
ENDBRANCH   4   9
ENDBRANCH   1   3
BRANCH   1  16
ATOM     16  O   UNL d   1      59.985  49.403  50.931  0.00  0.00    -0.252 OA
BRANCH  16  17
ATOM     17  C   UNL d   1      59.570  49.706  50.281  0.00  0.00     0.216 C 
BRANCH  17  18
ATOM     18  N   UNL d   1      58.743  49.706  50.284  0.00  0.00    -0.218 N 
ATOM     19  C   UNL d   1      58.261  49.707  49.622  0.00  0.00     0.269 A 
ATOM     20  C   UNL d   1      57.472  49.707  49.875  0.00  0.00     0.061 A 
ATOM     21  O   UNL d   1      58.513  49.707  48.832  0.00  0.00    -0.267 OA
ATOM     22  C   UNL d   1      56.756  49.708  49.468  0.00  0.00     0.005 A 
ATOM     23  C   UNL d   1      57.475  49.707  50.701  0.00  0.00     0.061 A 
ATOM     24  C   UNL d   1      56.048  49.708  49.880  0.00  0.00     0.000 A 
ATOM     25  C   UNL d   1      56.051  49.708  50.706  0.00  0.00     0.000 A 
ATOM     26  C   UNL d   1      56.762  49.707  51.122  0.00  0.00     0.005 A 
ATOM     27  C   UNL d   1      58.265  49.706  50.962  0.00  0.00     0.269 A 
ATOM     28  O   UNL d   1      58.523  49.706  51.742  0.00  0.00    -0.267 OA
ENDBRANCH  17  18
ENDBRANCH  16  17
ENDBRANCH   1  16
TORSDOF 5
ENDMDL
