MODEL 1
REMARK VINA RESULT:      -6.0      0.000      0.000
REMARK  3 active torsions:
REMARK  status: ('A' for Active; 'I' for Inactive)
REMARK    1  A    between atoms: N_4  and  C_8 
REMARK    2  A    between atoms: N_12  and  C_6 
REMARK       I    between atoms: C_11  and  N_12 
REMARK    3  A    between atoms: C_14  and  C_11 
ROOT
ATOM      1  C   UNL d   1     -41.449-122.834 -52.245  0.00  0.00     0.279 C 
ATOM      2  N   UNL d   1     -41.692-122.401 -52.864  0.00  0.00    -0.208 NA
ATOM      3  O   UNL d   1     -41.132-123.615 -52.356  0.00  0.00    -0.265 OA
ENDROOT
BRANCH   1   4
ATOM      4  C   UNL d   1     -41.500-122.537 -51.479  0.00  0.00     0.059 A 
ATOM      5  C   UNL d   1     -41.916-122.948 -50.889  0.00  0.00     0.022 A 
ATOM      6  C   UNL d   1     -41.960-122.641 -50.127  0.00  0.00     0.070 A 
ATOM      7  C   UNL d   1     -41.628-121.962 -49.901  0.00  0.00     0.018 A 
ATOM      8  C   UNL d   1     -41.210-121.528 -50.450  0.00  0.00     0.002 A 
ATOM      9  C   UNL d   1     -41.123-121.779 -51.245  0.00  0.00     0.005 A 
BRANCH   6  10
ATOM     10  N   UNL d   1     -42.400-123.088 -49.530  0.00  0.00    -0.242 N 
ATOM     11  C   UNL d   1     -42.000-123.439 -48.900  0.00  0.00     0.267 A 
ATOM     12  C   UNL d   1     -42.569-123.816 -48.438  0.00  0.00     0.066 A 
ATOM     13  O   UNL d   1     -41.126-123.404 -48.768  0.00  0.00    -0.267 OA
ATOM     14  C   UNL d   1     -43.291-123.706 -48.762  0.00  0.00     0.066 A 
ATOM     15  C   UNL d   1     -43.197-123.245 -49.456  0.00  0.00     0.267 A 
ATOM     16  O   UNL d   1     -43.797-122.976 -50.001  0.00  0.00    -0.267 OA
ENDBRANCH   6  10
ENDBRANCH   1   4
BRANCH   2  17
ATOM     17  C   UNL d   1     -41.639-122.709 -53.658  0.00  0.00     0.089 A 
ATOM     18  C   UNL d   1     -42.015-122.347 -54.295  0.00  0.00     0.080 A 
ATOM     19  C   UNL d   1     -42.502-121.653 -54.338  0.00  0.00     0.283 A 
ATOM     20  C   UNL d   1     -41.961-122.663 -55.108  0.00  0.00     0.064 A 
ATOM     21  N   UNL d   1     -42.731-121.550 -55.129  0.00  0.00    -0.169 NA
ATOM     22  O   UNL d   1     -42.726-121.137 -53.683  0.00  0.00    -0.265 OA
ATOM     23  C   UNL d   1     -42.400-122.169 -55.602  0.00  0.00     0.282 A 
ATOM     24  O   UNL d   1     -42.488-122.286 -56.445  0.00  0.00    -0.265 OA
ATOM     25  C   UNL d   1     -41.519-123.338 -55.224  0.00  0.00     0.005 A 
ATOM     26  C   UNL d   1     -41.141-123.709 -54.612  0.00  0.00     0.002 A 
ATOM     27  C   UNL d   1     -41.188-123.406 -53.802  0.00  0.00     0.019 A 
ENDBRANCH   2  17
TORSDOF 3
ENDMDL
