MODEL 1
REMARK VINA RESULT:      51.8      0.000      0.000
REMARK  5 active torsions:
REMARK  status: ('A' for Active; 'I' for Inactive)
REMARK    1  A    between atoms: C_5  and  N_1 
REMARK    2  A    between atoms: C_6  and  C_5 
REMARK       I    between atoms: N_9  and  C_6 
REMARK    3  A    between atoms: C_13  and  N_9 
REMARK    4  A    between atoms: O_19  and  C_14 
REMARK    5  A    between atoms: C_21  and  O_19 
ROOT
ATOM      1  C   UNL d   1     -50.724  25.541  33.659  0.00  0.00     0.297 C 
ATOM      2  N   UNL d   1     -50.150  26.036  33.333  0.00  0.00    -0.207 NA
ATOM      3  O   UNL d   1     -51.128  25.772  34.340  0.00  0.00    -0.264 OA
ENDROOT
BRANCH   1   4
ATOM      4  C   UNL d   1     -50.895  24.820  33.306  0.00  0.00     0.148 C 
BRANCH   4   5
ATOM      5  N   UNL d   1     -51.647  24.489  33.384  0.00  0.00    -0.235 N 
ATOM      6  C   UNL d   1     -52.318  24.983  33.385  0.00  0.00     0.273 A 
ATOM      7  C   UNL d   1     -53.069  24.652  33.463  0.00  0.00     0.086 A 
ATOM      8  O   UNL d   1     -52.225  25.804  33.307  0.00  0.00    -0.266 OA
ATOM      9  C   UNL d   1     -53.740  25.136  33.464  0.00  0.00     0.012 C 
ATOM     10  S   UNL d   1     -53.150  23.826  33.541  0.00  0.00    -0.077 SA
ATOM     11  C   UNL d   1     -52.486  23.348  33.540  0.00  0.00     0.097 A 
ATOM     12  C   UNL d   1     -51.735  23.679  33.461  0.00  0.00     0.274 A 
ATOM     13  O   UNL d   1     -51.056  23.189  33.460  0.00  0.00    -0.266 OA
ENDBRANCH   4   5
ENDBRANCH   1   4
BRANCH   2  14
ATOM     14  C   UNL d   1     -49.979  26.760  33.689  0.00  0.00     0.085 A 
ATOM     15  C   UNL d   1     -50.182  27.456  33.314  0.00  0.00     0.021 A 
ATOM     16  C   UNL d   1     -50.019  28.172  33.656  0.00  0.00     0.026 A 
ATOM     17  C   UNL d   1     -49.641  28.198  34.398  0.00  0.00     0.100 A 
ATOM     18  C   UNL d   1     -49.438  27.502  34.773  0.00  0.00     0.026 A 
ATOM     19  C   UNL d   1     -49.611  26.773  34.410  0.00  0.00     0.021 A 
BRANCH  17  20
ATOM     20  O   UNL d   1     -49.472  28.938  34.752  0.00  0.00    -0.305 OA
BRANCH  20  21
ATOM     21  C   UNL d   1     -49.074  29.525  34.330  0.00  0.00     0.123 C 
ATOM     22  C   UNL d   1     -48.254  29.515  34.285  0.00  0.00     0.029 C 
ENDBRANCH  20  21
ENDBRANCH  17  20
ENDBRANCH   2  14
TORSDOF 5
ENDMDL
MODEL 2
REMARK VINA RESULT:      53.5      1.640      2.392
REMARK  5 active torsions:
REMARK  status: ('A' for Active; 'I' for Inactive)
REMARK    1  A    between atoms: C_5  and  N_1 
REMARK    2  A    between atoms: C_6  and  C_5 
REMARK       I    between atoms: N_9  and  C_6 
REMARK    3  A    between atoms: C_13  and  N_9 
REMARK    4  A    between atoms: O_19  and  C_14 
REMARK    5  A    between atoms: C_21  and  O_19 
ROOT
ATOM      1  C   UNL d   1     -49.348  27.233  33.919  0.00  0.00     0.297 C 
ATOM      2  N   UNL d   1     -48.612  27.607  33.896  0.00  0.00    -0.207 NA
ATOM      3  O   UNL d   1     -49.853  27.359  34.559  0.00  0.00    -0.264 OA
ENDROOT
BRANCH   1   4
ATOM      4  C   UNL d   1     -49.577  26.737  33.307  0.00  0.00     0.148 C 
BRANCH   4   5
ATOM      5  N   UNL d   1     -50.307  26.354  33.336  0.00  0.00    -0.235 N 
ATOM      6  C   UNL d   1     -51.010  26.803  33.336  0.00  0.00     0.273 A 
ATOM      7  C   UNL d   1     -51.740  26.420  33.365  0.00  0.00     0.086 A 
ATOM      8  O   UNL d   1     -50.969  27.631  33.306  0.00  0.00    -0.266 OA
ATOM      9  C   UNL d   1     -52.441  26.859  33.365  0.00  0.00     0.012 C 
ATOM     10  S   UNL d   1     -51.768  25.587  33.395  0.00  0.00    -0.077 SA
ATOM     11  C   UNL d   1     -51.075  25.154  33.395  0.00  0.00     0.097 A 
ATOM     12  C   UNL d   1     -50.344  25.537  33.366  0.00  0.00     0.274 A 
ATOM     13  O   UNL d   1     -49.634  25.092  33.366  0.00  0.00    -0.266 OA
ENDBRANCH   4   5
ENDBRANCH   1   4
BRANCH   2  14
ATOM     14  C   UNL d   1     -48.384  28.105  34.512  0.00  0.00     0.085 A 
ATOM     15  C   UNL d   1     -48.101  27.789  35.209  0.00  0.00     0.021 A 
ATOM     16  C   UNL d   1     -47.874  28.270  35.819  0.00  0.00     0.026 A 
ATOM     17  C   UNL d   1     -47.930  29.098  35.735  0.00  0.00     0.100 A 
ATOM     18  C   UNL d   1     -48.213  29.414  35.038  0.00  0.00     0.026 A 
ATOM     19  C   UNL d   1     -48.443  28.907  34.418  0.00  0.00     0.021 A 
BRANCH  17  20
ATOM     20  O   UNL d   1     -47.696  29.595  36.366  0.00  0.00    -0.305 OA
BRANCH  20  21
ATOM     21  C   UNL d   1     -47.361  30.335  36.217  0.00  0.00     0.123 C 
ATOM     22  C   UNL d   1     -47.669  31.006  36.575  0.00  0.00     0.029 C 
ENDBRANCH  20  21
ENDBRANCH  17  20
ENDBRANCH   2  14
TORSDOF 5
ENDMDL
