MODEL 1
REMARK VINA RESULT:       4.8      0.000      0.000
REMARK  9 active torsions:
REMARK  status: ('A' for Active; 'I' for Inactive)
REMARK    1  A    between atoms: C_7  and  C_1 
REMARK    2  A    between atoms: C_9  and  N_2 
REMARK    3  A    between atoms: C_14  and  C_7 
REMARK    4  A    between atoms: C_8  and  C_9 
REMARK       I    between atoms: N_11  and  C_8 
REMARK    5  A    between atoms: C_10  and  N_11 
REMARK    6  A    between atoms: O_30  and  C_19 
REMARK    7  A    between atoms: O_31  and  C_20 
REMARK    8  A    between atoms: C_32  and  C_25 
REMARK    9  A    between atoms: C_33  and  C_29 
ROOT
ATOM      1  C   UNL d   1      59.222  -1.302  29.301  0.00  0.00     0.095 A 
ATOM      2  N   UNL d   1      58.059  -2.005  29.734  0.00  0.00    -0.300 N 
ATOM      3  C   UNL d   1      59.519  -2.028  28.973  0.00  0.00     0.202 A 
ATOM      4  C   UNL d   1      58.493  -1.291  29.681  0.00  0.00     0.087 A 
ATOM      5  C   UNL d   1      59.065  -2.729  29.040  0.00  0.00     0.055 A 
ATOM      6  C   UNL d   1      58.333  -2.730  29.418  0.00  0.00     0.067 A 
ATOM      7  C   UNL d   1      57.901  -3.432  29.474  0.00  0.00     0.018 A 
ATOM      8  C   UNL d   1      59.350  -3.454  28.718  0.00  0.00     0.005 A 
ATOM      9  O   UNL d   1      60.238  -2.039  28.599  0.00  0.00    -0.286 OA
ATOM     10  C   UNL d   1      58.907  -4.148  28.781  0.00  0.00     0.000 A 
ATOM     11  C   UNL d   1      58.189  -4.137  29.156  0.00  0.00     0.002 A 
ENDROOT
BRANCH   2  12
ATOM     12  C   UNL d   1      57.330  -1.994  30.115  0.00  0.00     0.144 C 
BRANCH  12  13
ATOM     13  C   UNL d   1      57.144  -1.382  30.630  0.00  0.00     0.297 C 
ATOM     14  N   UNL d   1      56.970  -1.545  31.417  0.00  0.00    -0.207 NA
ATOM     15  O   UNL d   1      57.133  -0.607  30.359  0.00  0.00    -0.264 OA
BRANCH  14  16
ATOM     16  C   UNL d   1      56.783  -0.926  31.935  0.00  0.00     0.089 A 
ATOM     17  C   UNL d   1      57.378  -0.465  32.245  0.00  0.00     0.043 A 
ATOM     18  C   UNL d   1      57.200   0.146  32.756  0.00  0.00     0.098 A 
ATOM     19  C   UNL d   1      56.406   0.301  32.961  0.00  0.00     0.049 A 
ATOM     20  C   UNL d   1      55.808  -0.167  32.646  0.00  0.00     0.098 A 
ATOM     21  C   UNL d   1      55.995  -0.786  32.128  0.00  0.00     0.043 A 
BRANCH  18  22
ATOM     22  O   UNL d   1      57.797   0.611  33.069  0.00  0.00    -0.328 OA
ATOM     23  C   UNL d   1      57.951   0.586  33.877  0.00  0.00     0.181 C 
ENDBRANCH  18  22
BRANCH  20  24
ATOM     24  O   UNL d   1      55.035  -0.024  32.840  0.00  0.00    -0.328 OA
ATOM     25  C   UNL d   1      54.849   0.327  33.560  0.00  0.00     0.181 C 
ENDBRANCH  20  24
ENDBRANCH  14  16
ENDBRANCH  12  13
ENDBRANCH   2  12
BRANCH   1  26
ATOM     26  C   UNL d   1      59.666  -0.605  29.239  0.00  0.00     0.200 C 
ATOM     27  O   UNL d   1      59.746  -0.234  28.508  0.00  0.00    -0.286 OA
BRANCH  26  28
ATOM     28  C   UNL d   1      60.026  -0.280  29.907  0.00  0.00     0.039 A 
ATOM     29  C   UNL d   1      60.749  -0.585  30.184  0.00  0.00     0.003 A 
ATOM     30  C   UNL d   1      61.116  -0.260  30.858  0.00  0.00     0.000 A 
ATOM     31  C   UNL d   1      60.760   0.368  31.253  0.00  0.00     0.000 A 
ATOM     32  C   UNL d   1      60.033   0.662  30.961  0.00  0.00     0.000 A 
ATOM     33  C   UNL d   1      59.665   0.337  30.287  0.00  0.00     0.003 A 
BRANCH  31  34
ATOM     34  C   UNL d   1      61.132   0.682  31.920  0.00  0.00     0.000 C 
ATOM     35  C   UNL d   1      60.884   0.420  32.660  0.00  0.00     0.000 C 
ENDBRANCH  31  34
ENDBRANCH  26  28
ENDBRANCH   1  26
BRANCH  10  36
ATOM     36  C   UNL d   1      59.199  -4.849  28.462  0.00  0.00     0.000 C 
ATOM     37  C   UNL d   1      58.763  -5.552  28.533  0.00  0.00     0.000 C 
ENDBRANCH  10  36
TORSDOF 9
ENDMDL
