MODEL 1
REMARK VINA RESULT:      65.8      0.000      0.000
REMARK  2 active torsions:
REMARK  status: ('A' for Active; 'I' for Inactive)
REMARK    1  A    between atoms: C_11  and  N_1 
REMARK    2  A    between atoms: C_16  and  C_11 
ROOT
ATOM      1  C   UNL d   1     -49.697  27.348  33.310  0.00  0.00     0.086 C 
ENDROOT
BRANCH   1   2
ATOM      2  N   UNL d   1     -50.142  26.657  33.310  0.00  0.00    -0.240 N 
ATOM      3  C   UNL d   1     -49.838  25.891  33.308  0.00  0.00     0.267 A 
ATOM      4  C   UNL d   1     -50.479  25.365  33.307  0.00  0.00     0.061 A 
ATOM      5  O   UNL d   1     -49.046  25.682  33.306  0.00  0.00    -0.267 OA
ATOM      6  C   UNL d   1     -50.515  24.548  33.306  0.00  0.00     0.005 A 
ATOM      7  C   UNL d   1     -51.173  25.810  33.309  0.00  0.00     0.061 A 
ATOM      8  C   UNL d   1     -51.248  24.172  33.306  0.00  0.00     0.000 A 
ATOM      9  C   UNL d   1     -51.941  24.612  33.308  0.00  0.00     0.000 A 
ATOM     10  C   UNL d   1     -51.899  25.438  33.310  0.00  0.00     0.005 A 
ATOM     11  C   UNL d   1     -50.962  26.607  33.311  0.00  0.00     0.267 A 
ATOM     12  O   UNL d   1     -51.491  27.247  33.313  0.00  0.00    -0.267 OA
ENDBRANCH   1   2
BRANCH   1  13
ATOM     13  C   UNL d   1     -49.412  27.667  34.025  0.00  0.00     0.018 A 
ATOM     14  C   UNL d   1     -48.734  28.135  34.020  0.00  0.00     0.003 A 
ATOM     15  C   UNL d   1     -48.451  28.455  34.744  0.00  0.00     0.018 A 
ATOM     16  C   UNL d   1     -47.802  28.933  34.919  0.00  0.00     0.019 A 
ATOM     17  C   UNL d   1     -48.855  28.297  35.449  0.00  0.00     0.064 A 
ATOM     18  C   UNL d   1     -47.795  29.078  35.732  0.00  0.00     0.064 A 
ATOM     19  C   UNL d   1     -47.240  29.532  36.141  0.00  0.00     0.019 C 
ATOM     20  N   UNL d   1     -48.446  28.684  36.054  0.00  0.00    -0.304 N 
ATOM     21  C   UNL d   1     -48.655  28.679  36.863  0.00  0.00     0.099 C 
ATOM     22  C   UNL d   1     -49.535  27.827  35.448  0.00  0.00     0.018 A 
ATOM     23  C   UNL d   1     -49.814  27.513  34.742  0.00  0.00     0.003 A 
ENDBRANCH   1  13
TORSDOF 2
ENDMDL
MODEL 2
REMARK VINA RESULT:      68.1      1.038      1.926
REMARK  2 active torsions:
REMARK  status: ('A' for Active; 'I' for Inactive)
REMARK    1  A    between atoms: C_11  and  N_1 
REMARK    2  A    between atoms: C_16  and  C_11 
ROOT
ATOM      1  C   UNL d   1     -49.997  25.407  33.306  0.00  0.00     0.086 C 
ENDROOT
BRANCH   1   2
ATOM      2  N   UNL d   1     -50.725  25.027  33.333  0.00  0.00    -0.240 N 
ATOM      3  C   UNL d   1     -51.460  25.401  33.335  0.00  0.00     0.267 A 
ATOM      4  C   UNL d   1     -52.042  24.811  33.367  0.00  0.00     0.061 A 
ATOM      5  O   UNL d   1     -51.596  26.208  33.310  0.00  0.00    -0.267 OA
ATOM      6  C   UNL d   1     -52.859  24.850  33.381  0.00  0.00     0.005 A 
ATOM      7  C   UNL d   1     -51.663  24.079  33.384  0.00  0.00     0.061 A 
ATOM      8  C   UNL d   1     -53.301  24.155  33.414  0.00  0.00     0.000 A 
ATOM      9  C   UNL d   1     -52.925  23.426  33.432  0.00  0.00     0.000 A 
ATOM     10  C   UNL d   1     -52.099  23.391  33.417  0.00  0.00     0.005 A 
ATOM     11  C   UNL d   1     -50.850  24.216  33.364  0.00  0.00     0.267 A 
ATOM     12  O   UNL d   1     -50.262  23.631  33.372  0.00  0.00    -0.267 OA
ENDBRANCH   1   2
BRANCH   1  13
ATOM     13  C   UNL d   1     -49.815  26.013  33.849  0.00  0.00     0.018 A 
ATOM     14  C   UNL d   1     -49.454  26.704  33.581  0.00  0.00     0.003 A 
ATOM     15  C   UNL d   1     -49.272  27.311  34.133  0.00  0.00     0.018 A 
ATOM     16  C   UNL d   1     -48.920  28.052  34.042  0.00  0.00     0.019 A 
ATOM     17  C   UNL d   1     -49.457  27.209  34.933  0.00  0.00     0.064 A 
ATOM     18  C   UNL d   1     -48.881  28.416  34.781  0.00  0.00     0.064 A 
ATOM     19  C   UNL d   1     -48.568  29.163  34.939  0.00  0.00     0.019 C 
ATOM     20  N   UNL d   1     -49.213  27.893  35.327  0.00  0.00    -0.304 N 
ATOM     21  C   UNL d   1     -49.289  28.035  36.147  0.00  0.00     0.099 C 
ATOM     22  C   UNL d   1     -49.819  26.513  35.196  0.00  0.00     0.018 A 
ATOM     23  C   UNL d   1     -49.998  25.917  34.659  0.00  0.00     0.003 A 
ENDBRANCH   1  13
TORSDOF 2
ENDMDL
