MODEL 1
REMARK VINA RESULT:      -8.8      0.000      0.000
REMARK  6 active torsions:
REMARK  status: ('A' for Active; 'I' for Inactive)
REMARK    1  A    between atoms: C_7  and  C_1 
REMARK    2  A    between atoms: C_6  and  O_13 
REMARK    3  A    between atoms: C_12  and  C_6 
REMARK    4  A    between atoms: O_13  and  C_10 
REMARK    5  A    between atoms: C_28  and  C_14 
REMARK    6  A    between atoms: C_31  and  C_28 
ROOT
ATOM      1  C   UNL d   1      50.394  34.413  52.431  0.00  0.00     0.064 A 
ATOM      2  C   UNL d   1      49.171  35.097  52.689  0.00  0.00     0.062 A 
ATOM      3  C   UNL d   1      49.921  34.860  52.935  0.00  0.00     0.199 A 
ATOM      4  C   UNL d   1      50.120  34.203  51.683  0.00  0.00     0.126 A 
ATOM      5  C   UNL d   1      48.896  34.887  51.941  0.00  0.00     0.105 A 
ATOM      6  O   UNL d   1      49.370  34.440  51.437  0.00  0.00    -0.305 OA
ATOM      7  C   UNL d   1      48.698  35.543  53.193  0.00  0.00     0.007 A 
ATOM      8  C   UNL d   1      47.669  35.573  52.200  0.00  0.00     0.105 A 
ATOM      9  C   UNL d   1      48.147  35.124  51.696  0.00  0.00     0.050 A 
ATOM     10  C   UNL d   1      47.944  35.782  52.948  0.00  0.00     0.023 A 
ATOM     11  O   UNL d   1      50.196  35.069  53.684  0.00  0.00    -0.286 OA
ENDROOT
BRANCH   1  12
ATOM     12  C   UNL d   1      51.144  34.176  52.677  0.00  0.00     0.007 A 
ATOM     13  C   UNL d   1      51.329  33.365  52.741  0.00  0.00     0.027 A 
ATOM     14  C   UNL d   1      52.070  33.126  52.984  0.00  0.00     0.123 A 
ATOM     15  O   UNL d   1      52.246  32.324  53.046  0.00  0.00    -0.301 OA
ATOM     16  C   UNL d   1      52.653  33.696  53.171  0.00  0.00     0.123 A 
ATOM     17  C   UNL d   1      52.998  32.084  53.292  0.00  0.00     0.149 A 
ATOM     18  C   UNL d   1      53.576  32.643  53.478  0.00  0.00     0.149 A 
ATOM     19  O   UNL d   1      53.401  33.456  53.416  0.00  0.00    -0.301 OA
ATOM     20  C   UNL d   1      52.469  34.507  53.107  0.00  0.00     0.027 A 
ATOM     21  C   UNL d   1      51.720  34.743  52.861  0.00  0.00     0.002 A 
ENDBRANCH   1  12
BRANCH  10  22
ATOM     22  C   UNL d   1      47.463  36.233  53.454  0.00  0.00     0.002 C 
BRANCH  22  23
ATOM     23  C   UNL d   1      47.792  36.614  54.105  0.00  0.00     0.000 C 
ATOM     24  C   UNL d   1      47.356  36.708  54.793  0.00  0.00     0.000 C 
ENDBRANCH  22  23
ENDBRANCH  10  22
BRANCH   8  25
ATOM     25  O   UNL d   1      46.913  35.814  51.956  0.00  0.00    -0.271 OA
BRANCH  25  26
ATOM     26  C   UNL d   1      46.521  35.402  51.358  0.00  0.00     0.323 C 
ATOM     27  O   UNL d   1      46.925  34.868  50.884  0.00  0.00    -0.257 OA
BRANCH  26  28
ATOM     28  C   UNL d   1      45.712  35.529  51.233  0.00  0.00     0.163 A 
ATOM     29  O   UNL d   1      45.138  34.949  51.131  0.00  0.00    -0.300 OA
ATOM     30  C   UNL d   1      44.407  35.316  51.023  0.00  0.00     0.123 A 
ATOM     31  C   UNL d   1      44.533  36.136  51.059  0.00  0.00     0.029 A 
ATOM     32  C   UNL d   1      45.344  36.263  51.189  0.00  0.00     0.032 A 
ENDBRANCH  26  28
ENDBRANCH  25  26
ENDBRANCH   8  25
TORSDOF 6
ENDMDL
MODEL 2
REMARK VINA RESULT:      -8.4      1.711      6.304
REMARK  6 active torsions:
REMARK  status: ('A' for Active; 'I' for Inactive)
REMARK    1  A    between atoms: C_7  and  C_1 
REMARK    2  A    between atoms: C_6  and  O_13 
REMARK    3  A    between atoms: C_12  and  C_6 
REMARK    4  A    between atoms: O_13  and  C_10 
REMARK    5  A    between atoms: C_28  and  C_14 
REMARK    6  A    between atoms: C_31  and  C_28 
ROOT
ATOM      1  C   UNL d   1      50.273  33.954  52.870  0.00  0.00     0.064 A 
ATOM      2  C   UNL d   1      51.593  33.576  53.253  0.00  0.00     0.062 A 
ATOM      3  C   UNL d   1      51.028  34.162  53.124  0.00  0.00     0.199 A 
ATOM      4  C   UNL d   1      50.082  33.162  52.746  0.00  0.00     0.126 A 
ATOM      5  C   UNL d   1      51.402  32.784  53.129  0.00  0.00     0.105 A 
ATOM      6  O   UNL d   1      50.646  32.576  52.875  0.00  0.00    -0.305 OA
ATOM      7  C   UNL d   1      52.348  33.785  53.507  0.00  0.00     0.007 A 
ATOM      8  C   UNL d   1      52.726  32.406  53.512  0.00  0.00     0.105 A 
ATOM      9  C   UNL d   1      51.966  32.199  53.258  0.00  0.00     0.050 A 
ATOM     10  C   UNL d   1      52.916  33.198  53.637  0.00  0.00     0.023 A 
ATOM     11  O   UNL d   1      51.219  34.955  53.248  0.00  0.00    -0.286 OA
ENDROOT
BRANCH   1  12
ATOM     12  C   UNL d   1      49.708  34.540  52.741  0.00  0.00     0.007 A 
ATOM     13  C   UNL d   1      49.360  34.937  53.387  0.00  0.00     0.027 A 
ATOM     14  C   UNL d   1      48.800  35.518  53.263  0.00  0.00     0.123 A 
ATOM     15  O   UNL d   1      48.460  35.906  53.904  0.00  0.00    -0.301 OA
ATOM     16  C   UNL d   1      48.571  35.720  52.484  0.00  0.00     0.123 A 
ATOM     17  C   UNL d   1      47.892  36.495  53.777  0.00  0.00     0.149 A 
ATOM     18  C   UNL d   1      47.664  36.697  53.010  0.00  0.00     0.149 A 
ATOM     19  O   UNL d   1      48.007  36.304  52.359  0.00  0.00    -0.301 OA
ATOM     20  C   UNL d   1      48.919  35.322  51.839  0.00  0.00     0.027 A 
ATOM     21  C   UNL d   1      49.483  34.737  51.968  0.00  0.00     0.002 A 
ENDBRANCH   1  12
BRANCH  10  22
ATOM     22  C   UNL d   1      53.679  33.404  53.893  0.00  0.00     0.002 C 
BRANCH  22  23
ATOM     23  C   UNL d   1      53.777  33.897  54.545  0.00  0.00     0.000 C 
ATOM     24  C   UNL d   1      54.523  34.018  54.863  0.00  0.00     0.000 C 
ENDBRANCH  22  23
ENDBRANCH  10  22
BRANCH   8  25
ATOM     25  O   UNL d   1      53.298  31.818  53.644  0.00  0.00    -0.271 OA
BRANCH  25  26
ATOM     26  C   UNL d   1      53.265  31.108  53.225  0.00  0.00     0.323 C 
ATOM     27  O   UNL d   1      53.195  31.108  52.408  0.00  0.00    -0.257 OA
BRANCH  26  28
ATOM     28  C   UNL d   1      53.303  30.387  53.632  0.00  0.00     0.163 A 
ATOM     29  O   UNL d   1      53.610  30.270  54.386  0.00  0.00    -0.300 OA
ATOM     30  C   UNL d   1      53.539  29.471  54.580  0.00  0.00     0.123 A 
ATOM     31  C   UNL d   1      53.182  29.091  53.934  0.00  0.00     0.029 A 
ATOM     32  C   UNL d   1      53.038  29.663  53.349  0.00  0.00     0.032 A 
ENDBRANCH  26  28
ENDBRANCH  25  26
ENDBRANCH   8  25
TORSDOF 6
ENDMDL
MODEL 3
REMARK VINA RESULT:      -8.4      1.392      6.601
REMARK  6 active torsions:
REMARK  status: ('A' for Active; 'I' for Inactive)
REMARK    1  A    between atoms: C_7  and  C_1 
REMARK    2  A    between atoms: C_6  and  O_13 
REMARK    3  A    between atoms: C_12  and  C_6 
REMARK    4  A    between atoms: O_13  and  C_10 
REMARK    5  A    between atoms: C_28  and  C_14 
REMARK    6  A    between atoms: C_31  and  C_28 
ROOT
ATOM      1  C   UNL d   1      50.766  34.274  52.581  0.00  0.00     0.064 A 
ATOM      2  C   UNL d   1      51.640  33.227  52.994  0.00  0.00     0.062 A 
ATOM      3  C   UNL d   1      50.913  33.472  52.693  0.00  0.00     0.199 A 
ATOM      4  C   UNL d   1      51.344  34.831  52.769  0.00  0.00     0.126 A 
ATOM      5  C   UNL d   1      52.218  33.783  53.183  0.00  0.00     0.105 A 
ATOM      6  O   UNL d   1      52.070  34.586  53.070  0.00  0.00    -0.305 OA
ATOM      7  C   UNL d   1      51.787  32.425  53.107  0.00  0.00     0.007 A 
ATOM      8  C   UNL d   1      53.094  32.733  53.597  0.00  0.00     0.105 A 
ATOM      9  C   UNL d   1      52.944  33.539  53.484  0.00  0.00     0.050 A 
ATOM     10  C   UNL d   1      52.516  32.177  53.409  0.00  0.00     0.023 A 
ATOM     11  O   UNL d   1      50.334  32.915  52.505  0.00  0.00    -0.286 OA
ENDROOT
BRANCH   1  12
ATOM     12  C   UNL d   1      50.040  34.520  52.280  0.00  0.00     0.007 A 
ATOM     13  C   UNL d   1      49.519  34.969  52.752  0.00  0.00     0.027 A 
ATOM     14  C   UNL d   1      48.798  35.213  52.458  0.00  0.00     0.123 A 
ATOM     15  O   UNL d   1      48.289  35.656  52.929  0.00  0.00    -0.301 OA
ATOM     16  C   UNL d   1      48.576  35.015  51.676  0.00  0.00     0.123 A 
ATOM     17  C   UNL d   1      47.559  35.903  52.628  0.00  0.00     0.149 A 
ATOM     18  C   UNL d   1      47.336  35.709  51.858  0.00  0.00     0.149 A 
ATOM     19  O   UNL d   1      47.850  35.261  51.378  0.00  0.00    -0.301 OA
ATOM     20  C   UNL d   1      49.097  34.566  51.203  0.00  0.00     0.027 A 
ATOM     21  C   UNL d   1      49.823  34.321  51.505  0.00  0.00     0.002 A 
ENDBRANCH   1  12
BRANCH  10  22
ATOM     22  C   UNL d   1      52.668  31.368  53.524  0.00  0.00     0.002 C 
BRANCH  22  23
ATOM     23  C   UNL d   1      52.435  30.820  52.956  0.00  0.00     0.000 C 
ATOM     24  C   UNL d   1      52.595  30.022  53.061  0.00  0.00     0.000 C 
ENDBRANCH  22  23
ENDBRANCH  10  22
BRANCH   8  25
ATOM     25  O   UNL d   1      53.825  32.482  53.901  0.00  0.00    -0.271 OA
BRANCH  25  26
ATOM     26  C   UNL d   1      54.476  32.989  53.883  0.00  0.00     0.323 C 
ATOM     27  O   UNL d   1      54.817  33.206  53.169  0.00  0.00    -0.257 OA
BRANCH  26  28
ATOM     28  C   UNL d   1      54.789  33.282  54.592  0.00  0.00     0.163 A 
ATOM     29  O   UNL d   1      54.589  33.036  55.351  0.00  0.00    -0.300 OA
ATOM     30  C   UNL d   1      55.030  33.471  55.895  0.00  0.00     0.123 A 
ATOM     31  C   UNL d   1      55.510  33.993  55.464  0.00  0.00     0.029 A 
ATOM     32  C   UNL d   1      55.357  33.872  54.656  0.00  0.00     0.032 A 
ENDBRANCH  26  28
ENDBRANCH  25  26
ENDBRANCH   8  25
TORSDOF 6
ENDMDL
MODEL 4
REMARK VINA RESULT:      -6.7      1.883      4.074
REMARK  6 active torsions:
REMARK  status: ('A' for Active; 'I' for Inactive)
REMARK    1  A    between atoms: C_7  and  C_1 
REMARK    2  A    between atoms: C_6  and  O_13 
REMARK    3  A    between atoms: C_12  and  C_6 
REMARK    4  A    between atoms: O_13  and  C_10 
REMARK    5  A    between atoms: C_28  and  C_14 
REMARK    6  A    between atoms: C_31  and  C_28 
ROOT
ATOM      1  C   UNL d   1      52.206  31.531  53.378  0.00  0.00     0.064 A 
ATOM      2  C   UNL d   1      52.027  32.944  53.418  0.00  0.00     0.062 A 
ATOM      3  C   UNL d   1      52.503  32.282  53.534  0.00  0.00     0.199 A 
ATOM      4  C   UNL d   1      51.433  31.441  53.106  0.00  0.00     0.126 A 
ATOM      5  C   UNL d   1      51.254  32.854  53.146  0.00  0.00     0.105 A 
ATOM      6  O   UNL d   1      50.957  32.101  52.989  0.00  0.00    -0.305 OA
ATOM      7  C   UNL d   1      52.324  33.695  53.575  0.00  0.00     0.007 A 
ATOM      8  C   UNL d   1      51.074  34.271  53.186  0.00  0.00     0.105 A 
ATOM      9  C   UNL d   1      50.777  33.515  53.030  0.00  0.00     0.050 A 
ATOM     10  C   UNL d   1      51.847  34.361  53.459  0.00  0.00     0.023 A 
ATOM     11  O   UNL d   1      53.277  32.372  53.807  0.00  0.00    -0.286 OA
ENDROOT
BRANCH   1  12
ATOM     12  C   UNL d   1      52.683  30.869  53.494  0.00  0.00     0.007 A 
ATOM     13  C   UNL d   1      52.561  30.374  54.154  0.00  0.00     0.027 A 
ATOM     14  C   UNL d   1      53.031  29.718  54.273  0.00  0.00     0.123 A 
ATOM     15  O   UNL d   1      52.906  29.233  54.927  0.00  0.00    -0.301 OA
ATOM     16  C   UNL d   1      53.641  29.536  53.730  0.00  0.00     0.123 A 
ATOM     17  C   UNL d   1      53.384  28.568  55.045  0.00  0.00     0.149 A 
ATOM     18  C   UNL d   1      53.986  28.385  54.512  0.00  0.00     0.149 A 
ATOM     19  O   UNL d   1      54.115  28.875  53.849  0.00  0.00    -0.301 OA
ATOM     20  C   UNL d   1      53.763  30.031  53.070  0.00  0.00     0.027 A 
ATOM     21  C   UNL d   1      53.286  30.692  52.954  0.00  0.00     0.002 A 
ENDBRANCH   1  12
BRANCH  10  22
ATOM     22  C   UNL d   1      52.144  35.121  53.615  0.00  0.00     0.002 C 
BRANCH  22  23
ATOM     23  C   UNL d   1      52.864  35.211  54.003  0.00  0.00     0.000 C 
ATOM     24  C   UNL d   1      53.052  35.921  54.368  0.00  0.00     0.000 C 
ENDBRANCH  22  23
ENDBRANCH  10  22
BRANCH   8  25
ATOM     25  O   UNL d   1      50.597  34.941  53.071  0.00  0.00    -0.271 OA
BRANCH  25  26
ATOM     26  C   UNL d   1      49.890  34.876  52.650  0.00  0.00     0.323 C 
ATOM     27  O   UNL d   1      49.836  34.385  51.996  0.00  0.00    -0.257 OA
BRANCH  26  28
ATOM     28  C   UNL d   1      49.227  35.312  52.890  0.00  0.00     0.163 A 
ATOM     29  O   UNL d   1      49.134  35.700  53.609  0.00  0.00    -0.300 OA
ATOM     30  C   UNL d   1      48.394  36.064  53.620  0.00  0.00     0.123 A 
ATOM     31  C   UNL d   1      48.026  35.897  52.895  0.00  0.00     0.029 A 
ATOM     32  C   UNL d   1      48.546  35.431  52.446  0.00  0.00     0.032 A 
ENDBRANCH  26  28
ENDBRANCH  25  26
ENDBRANCH   8  25
TORSDOF 6
ENDMDL
MODEL 5
REMARK VINA RESULT:      -5.8      1.115      6.328
REMARK  6 active torsions:
REMARK  status: ('A' for Active; 'I' for Inactive)
REMARK    1  A    between atoms: C_7  and  C_1 
REMARK    2  A    between atoms: C_6  and  O_13 
REMARK    3  A    between atoms: C_12  and  C_6 
REMARK    4  A    between atoms: O_13  and  C_10 
REMARK    5  A    between atoms: C_28  and  C_14 
REMARK    6  A    between atoms: C_31  and  C_28 
ROOT
ATOM      1  C   UNL d   1      49.718  35.000  52.907  0.00  0.00     0.064 A 
ATOM      2  C   UNL d   1      50.816  34.093  52.955  0.00  0.00     0.062 A 
ATOM      3  C   UNL d   1      50.043  34.265  52.730  0.00  0.00     0.199 A 
ATOM      4  C   UNL d   1      50.166  35.563  53.309  0.00  0.00     0.126 A 
ATOM      5  C   UNL d   1      51.264  34.656  53.357  0.00  0.00     0.105 A 
ATOM      6  O   UNL d   1      50.939  35.393  53.535  0.00  0.00    -0.305 OA
ATOM      7  C   UNL d   1      51.141  33.358  52.778  0.00  0.00     0.007 A 
ATOM      8  C   UNL d   1      52.365  33.747  53.406  0.00  0.00     0.105 A 
ATOM      9  C   UNL d   1      52.037  34.486  53.583  0.00  0.00     0.050 A 
ATOM     10  C   UNL d   1      51.918  33.184  53.004  0.00  0.00     0.023 A 
ATOM     11  O   UNL d   1      49.595  33.701  52.327  0.00  0.00    -0.286 OA
ENDROOT
BRANCH   1  12
ATOM     12  C   UNL d   1      48.945  35.172  52.682  0.00  0.00     0.007 A 
ATOM     13  C   UNL d   1      48.692  35.025  51.900  0.00  0.00     0.027 A 
ATOM     14  C   UNL d   1      47.927  35.193  51.672  0.00  0.00     0.123 A 
ATOM     15  O   UNL d   1      47.684  35.046  50.900  0.00  0.00    -0.301 OA
ATOM     16  C   UNL d   1      47.387  35.516  52.225  0.00  0.00     0.123 A 
ATOM     17  C   UNL d   1      46.908  35.217  50.672  0.00  0.00     0.149 A 
ATOM     18  C   UNL d   1      46.373  35.536  51.213  0.00  0.00     0.149 A 
ATOM     19  O   UNL d   1      46.616  35.686  51.996  0.00  0.00    -0.301 OA
ATOM     20  C   UNL d   1      47.640  35.663  53.006  0.00  0.00     0.027 A 
ATOM     21  C   UNL d   1      48.413  35.492  53.231  0.00  0.00     0.002 A 
ENDBRANCH   1  12
BRANCH  10  22
ATOM     22  C   UNL d   1      52.249  32.443  52.827  0.00  0.00     0.002 C 
BRANCH  22  23
ATOM     23  C   UNL d   1      51.859  31.753  53.050  0.00  0.00     0.000 C 
ATOM     24  C   UNL d   1      52.225  31.024  52.960  0.00  0.00     0.000 C 
ENDBRANCH  22  23
ENDBRANCH  10  22
BRANCH   8  25
ATOM     25  O   UNL d   1      53.145  33.570  53.632  0.00  0.00    -0.271 OA
BRANCH  25  26
ATOM     26  C   UNL d   1      53.641  34.169  53.909  0.00  0.00     0.323 C 
ATOM     27  O   UNL d   1      53.588  34.929  53.605  0.00  0.00    -0.257 OA
BRANCH  26  28
ATOM     28  C   UNL d   1      54.198  34.001  54.499  0.00  0.00     0.163 A 
ATOM     29  O   UNL d   1      54.340  34.448  55.174  0.00  0.00    -0.300 OA
ATOM     30  C   UNL d   1      54.938  34.085  55.611  0.00  0.00     0.123 A 
ATOM     31  C   UNL d   1      55.167  33.402  55.197  0.00  0.00     0.029 A 
ATOM     32  C   UNL d   1      54.705  33.355  54.508  0.00  0.00     0.032 A 
ENDBRANCH  26  28
ENDBRANCH  25  26
ENDBRANCH   8  25
TORSDOF 6
ENDMDL
