MODEL 1
REMARK VINA RESULT:      -3.1      0.000      0.000
REMARK  3 active torsions:
REMARK  status: ('A' for Active; 'I' for Inactive)
REMARK    1  A    between atoms: N_7  and  C_4 
REMARK    2  A    between atoms: N_9  and  N_7 
REMARK       I    between atoms: C_8  and  N_9 
REMARK    3  A    between atoms: C_10  and  C_8 
ROOT
ATOM      1  N   UNL d   1      33.024  20.287 -21.905  0.00  0.00    -0.127 NA
ENDROOT
BRANCH   1   2
ATOM      2  C   UNL d   1      32.933  21.111 -21.927  0.00  0.00     0.178 A 
ATOM      3  N   UNL d   1      32.651  21.514 -21.267  0.00  0.00    -0.240 N 
ATOM      4  C   UNL d   1      32.561  22.328 -21.288  0.00  0.00     0.343 A 
ATOM      5  C   UNL d   1      32.460  21.094 -20.580  0.00  0.00     0.105 C 
ATOM      6  N   UNL d   1      32.752  22.747 -21.974  0.00  0.00    -0.224 N 
ATOM      7  O   UNL d   1      32.277  22.731 -20.622  0.00  0.00    -0.245 OA
ATOM      8  C   UNL d   1      33.037  22.356 -22.647  0.00  0.00     0.271 A 
ATOM      9  C   UNL d   1      32.660  23.570 -21.995  0.00  0.00     0.107 C 
ATOM     10  C   UNL d   1      33.124  21.530 -22.613  0.00  0.00     0.101 A 
ATOM     11  O   UNL d   1      33.226  22.771 -23.326  0.00  0.00    -0.266 OA
ENDBRANCH   1   2
BRANCH   1  12
ATOM     12  N   UNL d   1      32.787  19.830 -22.550  0.00  0.00    -0.104 NA
ATOM     13  C   UNL d   1      32.895  19.012 -22.534  0.00  0.00     0.297 C 
ATOM     14  O   UNL d   1      33.241  18.652 -21.875  0.00  0.00    -0.264 OA
BRANCH  13  15
ATOM     15  C   UNL d   1      32.657  18.554 -23.178  0.00  0.00     0.059 A 
ATOM     16  C   UNL d   1      32.167  17.906 -23.057  0.00  0.00     0.005 A 
ATOM     17  C   UNL d   1      31.926  17.446 -23.694  0.00  0.00     0.000 A 
ATOM     18  C   UNL d   1      31.432  16.794 -23.571  0.00  0.00     0.000 C 
ATOM     19  C   UNL d   1      32.181  17.638 -24.466  0.00  0.00     0.000 A 
ATOM     20  C   UNL d   1      32.674  18.289 -24.584  0.00  0.00     0.000 A 
ATOM     21  C   UNL d   1      31.939  17.177 -25.097  0.00  0.00     0.000 C 
ATOM     22  C   UNL d   1      32.909  18.745 -23.932  0.00  0.00     0.005 A 
ENDBRANCH  13  15
ENDBRANCH   1  12
TORSDOF 3
ENDMDL
MODEL 2
REMARK VINA RESULT:      -3.0      1.157      1.766
REMARK  3 active torsions:
REMARK  status: ('A' for Active; 'I' for Inactive)
REMARK    1  A    between atoms: N_7  and  C_4 
REMARK    2  A    between atoms: N_9  and  N_7 
REMARK       I    between atoms: C_8  and  N_9 
REMARK    3  A    between atoms: C_10  and  C_8 
ROOT
ATOM      1  N   UNL d   1      33.172  20.297 -23.013  0.00  0.00    -0.127 NA
ENDROOT
BRANCH   1   2
ATOM      2  C   UNL d   1      33.190  20.747 -22.317  0.00  0.00     0.178 A 
ATOM      3  N   UNL d   1      33.195  21.569 -22.355  0.00  0.00    -0.240 N 
ATOM      4  C   UNL d   1      33.212  22.013 -21.667  0.00  0.00     0.343 A 
ATOM      5  C   UNL d   1      33.183  21.947 -23.090  0.00  0.00     0.105 C 
ATOM      6  N   UNL d   1      33.224  21.635 -20.931  0.00  0.00    -0.224 N 
ATOM      7  O   UNL d   1      33.217  22.841 -21.707  0.00  0.00    -0.245 OA
ATOM      8  C   UNL d   1      33.219  20.809 -20.876  0.00  0.00     0.271 A 
ATOM      9  C   UNL d   1      33.241  22.085 -20.236  0.00  0.00     0.107 C 
ATOM     10  C   UNL d   1      33.201  20.369 -21.581  0.00  0.00     0.101 A 
ATOM     11  O   UNL d   1      33.230  20.436 -20.149  0.00  0.00    -0.266 OA
ENDBRANCH   1   2
BRANCH   1  12
ATOM     12  N   UNL d   1      32.994  19.492 -22.979  0.00  0.00    -0.104 NA
ATOM     13  C   UNL d   1      32.999  19.041 -23.670  0.00  0.00     0.297 C 
ATOM     14  O   UNL d   1      33.182  19.395 -24.394  0.00  0.00    -0.264 OA
BRANCH  13  15
ATOM     15  C   UNL d   1      32.821  18.236 -23.636  0.00  0.00     0.059 A 
ATOM     16  C   UNL d   1      32.234  17.929 -24.123  0.00  0.00     0.005 A 
ATOM     17  C   UNL d   1      32.052  17.128 -24.094  0.00  0.00     0.000 A 
ATOM     18  C   UNL d   1      31.461  16.820 -24.584  0.00  0.00     0.000 C 
ATOM     19  C   UNL d   1      32.464  16.627 -23.569  0.00  0.00     0.000 A 
ATOM     20  C   UNL d   1      33.052  16.938 -23.082  0.00  0.00     0.000 A 
ATOM     21  C   UNL d   1      32.279  15.830 -23.544  0.00  0.00     0.000 C 
ATOM     22  C   UNL d   1      33.226  17.748 -23.121  0.00  0.00     0.005 A 
ENDBRANCH  13  15
ENDBRANCH   1  12
TORSDOF 3
ENDMDL
MODEL 3
REMARK VINA RESULT:      -2.8      1.449      4.611
REMARK  3 active torsions:
REMARK  status: ('A' for Active; 'I' for Inactive)
REMARK    1  A    between atoms: N_7  and  C_4 
REMARK    2  A    between atoms: N_9  and  N_7 
REMARK       I    between atoms: C_8  and  N_9 
REMARK    3  A    between atoms: C_10  and  C_8 
ROOT
ATOM      1  N   UNL d   1      33.187  19.261 -22.238  0.00  0.00    -0.127 NA
ENDROOT
BRANCH   1   2
ATOM      2  C   UNL d   1      33.096  18.849 -22.952  0.00  0.00     0.178 A 
ATOM      3  N   UNL d   1      33.035  18.028 -22.952  0.00  0.00    -0.240 N 
ATOM      4  C   UNL d   1      32.946  17.621 -23.657  0.00  0.00     0.343 A 
ATOM      5  C   UNL d   1      33.064  17.614 -22.236  0.00  0.00     0.105 C 
ATOM      6  N   UNL d   1      32.917  18.035 -24.372  0.00  0.00    -0.224 N 
ATOM      7  O   UNL d   1      32.884  16.794 -23.654  0.00  0.00    -0.245 OA
ATOM      8  C   UNL d   1      32.977  18.860 -24.389  0.00  0.00     0.271 A 
ATOM      9  C   UNL d   1      32.826  17.622 -25.085  0.00  0.00     0.107 C 
ATOM     10  C   UNL d   1      33.067  19.263 -23.667  0.00  0.00     0.101 A 
ATOM     11  O   UNL d   1      32.948  19.270 -25.097  0.00  0.00    -0.266 OA
ENDBRANCH   1   2
BRANCH   1  12
ATOM     12  N   UNL d   1      33.029  20.070 -22.208  0.00  0.00    -0.104 NA
ATOM     13  C   UNL d   1      33.056  20.466 -21.484  0.00  0.00     0.297 C 
ATOM     14  O   UNL d   1      33.241  20.053 -20.793  0.00  0.00    -0.264 OA
BRANCH  13  15
ATOM     15  C   UNL d   1      32.899  21.276 -21.453  0.00  0.00     0.059 A 
ATOM     16  C   UNL d   1      32.470  21.583 -20.823  0.00  0.00     0.005 A 
ATOM     17  C   UNL d   1      32.310  22.388 -20.787  0.00  0.00     0.000 A 
ATOM     18  C   UNL d   1      31.877  22.695 -20.152  0.00  0.00     0.000 C 
ATOM     19  C   UNL d   1      32.584  22.894 -21.391  0.00  0.00     0.000 A 
ATOM     20  C   UNL d   1      33.015  22.584 -22.022  0.00  0.00     0.000 A 
ATOM     21  C   UNL d   1      32.422  23.696 -21.350  0.00  0.00     0.000 C 
ATOM     22  C   UNL d   1      33.170  21.769 -22.047  0.00  0.00     0.005 A 
ENDBRANCH  13  15
ENDBRANCH   1  12
TORSDOF 3
ENDMDL
MODEL 4
REMARK VINA RESULT:      -2.5      1.654      5.001
REMARK  3 active torsions:
REMARK  status: ('A' for Active; 'I' for Inactive)
REMARK    1  A    between atoms: N_7  and  C_4 
REMARK    2  A    between atoms: N_9  and  N_7 
REMARK       I    between atoms: C_8  and  N_9 
REMARK    3  A    between atoms: C_10  and  C_8 
ROOT
ATOM      1  N   UNL d   1      32.823  18.924 -23.529  0.00  0.00    -0.127 NA
ENDROOT
BRANCH   1   2
ATOM      2  C   UNL d   1      32.667  18.110 -23.549  0.00  0.00     0.178 A 
ATOM      3  N   UNL d   1      32.151  17.801 -24.110  0.00  0.00    -0.240 N 
ATOM      4  C   UNL d   1      31.996  16.996 -24.130  0.00  0.00     0.343 A 
ATOM      5  C   UNL d   1      31.788  18.304 -24.657  0.00  0.00     0.105 C 
ATOM      6  N   UNL d   1      32.359  16.493 -23.583  0.00  0.00    -0.224 N 
ATOM      7  O   UNL d   1      31.477  16.687 -24.696  0.00  0.00    -0.245 OA
ATOM      8  C   UNL d   1      32.881  16.789 -23.012  0.00  0.00     0.271 A 
ATOM      9  C   UNL d   1      32.203  15.679 -23.603  0.00  0.00     0.107 C 
ATOM     10  C   UNL d   1      33.030  17.607 -23.002  0.00  0.00     0.101 A 
ATOM     11  O   UNL d   1      33.240  16.291 -22.472  0.00  0.00    -0.266 OA
ENDBRANCH   1   2
BRANCH   1  12
ATOM     12  N   UNL d   1      32.858  19.319 -22.806  0.00  0.00    -0.104 NA
ATOM     13  C   UNL d   1      33.067  20.117 -22.784  0.00  0.00     0.297 C 
ATOM     14  O   UNL d   1      33.240  20.519 -23.485  0.00  0.00    -0.264 OA
BRANCH  13  15
ATOM     15  C   UNL d   1      33.102  20.513 -22.060  0.00  0.00     0.059 A 
ATOM     16  C   UNL d   1      33.032  21.331 -22.041  0.00  0.00     0.005 A 
ATOM     17  C   UNL d   1      33.066  21.731 -21.324  0.00  0.00     0.000 A 
ATOM     18  C   UNL d   1      32.996  22.555 -21.305  0.00  0.00     0.000 C 
ATOM     19  C   UNL d   1      33.171  21.304 -20.614  0.00  0.00     0.000 A 
ATOM     20  C   UNL d   1      33.241  20.482 -20.637  0.00  0.00     0.000 A 
ATOM     21  C   UNL d   1      33.205  21.707 -19.902  0.00  0.00     0.000 C 
ATOM     22  C   UNL d   1      33.205  20.091 -21.367  0.00  0.00     0.005 A 
ENDBRANCH  13  15
ENDBRANCH   1  12
TORSDOF 3
ENDMDL
MODEL 5
REMARK VINA RESULT:      -1.9      1.802      4.811
REMARK  3 active torsions:
REMARK  status: ('A' for Active; 'I' for Inactive)
REMARK    1  A    between atoms: N_7  and  C_4 
REMARK    2  A    between atoms: N_9  and  N_7 
REMARK       I    between atoms: C_8  and  N_9 
REMARK    3  A    between atoms: C_10  and  C_8 
ROOT
ATOM      1  N   UNL d   1      32.777  18.184 -22.982  0.00  0.00    -0.127 NA
ENDROOT
BRANCH   1   2
ATOM      2  C   UNL d   1      32.303  17.712 -23.472  0.00  0.00     0.178 A 
ATOM      3  N   UNL d   1      32.359  16.892 -23.437  0.00  0.00    -0.240 N 
ATOM      4  C   UNL d   1      31.891  16.426 -23.921  0.00  0.00     0.343 A 
ATOM      5  C   UNL d   1      32.890  16.539 -22.911  0.00  0.00     0.105 C 
ATOM      6  N   UNL d   1      31.360  16.779 -24.447  0.00  0.00    -0.224 N 
ATOM      7  O   UNL d   1      31.949  15.600 -23.884  0.00  0.00    -0.245 OA
ATOM      8  C   UNL d   1      31.292  17.603 -24.494  0.00  0.00     0.271 A 
ATOM      9  C   UNL d   1      30.887  16.307 -24.937  0.00  0.00     0.107 C 
ATOM     10  C   UNL d   1      31.772  18.066 -23.998  0.00  0.00     0.101 A 
ATOM     11  O   UNL d   1      30.767  17.953 -25.015  0.00  0.00    -0.266 OA
ENDBRANCH   1   2
BRANCH   1  12
ATOM     12  N   UNL d   1      32.814  18.999 -23.107  0.00  0.00    -0.104 NA
ATOM     13  C   UNL d   1      33.044  19.498 -22.491  0.00  0.00     0.297 C 
ATOM     14  O   UNL d   1      33.236  19.183 -21.752  0.00  0.00    -0.264 OA
BRANCH  13  15
ATOM     15  C   UNL d   1      33.082  20.313 -22.615  0.00  0.00     0.059 A 
ATOM     16  C   UNL d   1      33.097  20.823 -21.970  0.00  0.00     0.005 A 
ATOM     17  C   UNL d   1      33.134  21.635 -22.088  0.00  0.00     0.000 A 
ATOM     18  C   UNL d   1      33.150  22.147 -21.438  0.00  0.00     0.000 C 
ATOM     19  C   UNL d   1      33.156  21.943 -22.863  0.00  0.00     0.000 A 
ATOM     20  C   UNL d   1      33.141  21.429 -23.509  0.00  0.00     0.000 A 
ATOM     21  C   UNL d   1      33.194  22.753 -22.975  0.00  0.00     0.000 C 
ATOM     22  C   UNL d   1      33.103  20.611 -23.377  0.00  0.00     0.005 A 
ENDBRANCH  13  15
ENDBRANCH   1  12
TORSDOF 3
ENDMDL
