MODEL 1
REMARK VINA RESULT:      19.9      0.000      0.000
REMARK  4 active torsions:
REMARK  status: ('A' for Active; 'I' for Inactive)
REMARK    1  A    between atoms: N_3  and  S_1 
REMARK    2  A    between atoms: C_4  and  S_1 
REMARK    3  A    between atoms: C_2  and  N_3 
REMARK    4  A    between atoms: O_18  and  C_13 
ROOT
ATOM      1  S   UNL d   1      45.859 -16.634  44.729  0.00  0.00     0.285 S 
ATOM      2  O   UNL d   1      45.061 -16.936  44.623  0.00  0.00    -0.198 OA
ATOM      3  O   UNL d   1      46.644 -16.326  44.833  0.00  0.00    -0.198 OA
ENDROOT
BRANCH   1   4
ATOM      4  N   UNL d   1      46.147 -17.408  44.804  0.00  0.00    -0.157 NA
BRANCH   4   5
ATOM      5  C   UNL d   1      46.296 -17.869  44.107  0.00  0.00     0.113 A 
ATOM      6  C   UNL d   1      46.346 -18.688  44.174  0.00  0.00     0.100 A 
ATOM      7  C   UNL d   1      46.490 -19.136  43.496  0.00  0.00     0.021 A 
ATOM      8  N   UNL d   1      46.257 -19.067  44.891  0.00  0.00    -0.242 NA
ATOM      9  C   UNL d   1      46.543 -19.954  43.550  0.00  0.00     0.003 A 
ATOM     10  C   UNL d   1      46.581 -18.755  42.766  0.00  0.00     0.026 A 
ATOM     11  C   UNL d   1      46.452 -20.330  44.277  0.00  0.00     0.021 A 
ATOM     12  C   UNL d   1      46.308 -19.882  44.955  0.00  0.00     0.099 A 
ATOM     13  C   UNL d   1      46.529 -17.933  42.709  0.00  0.00     0.096 A 
ATOM     14  C   UNL d   1      46.385 -17.485  43.387  0.00  0.00     0.046 A 
BRANCH  13  15
ATOM     15  O   UNL d   1      46.616 -17.528  41.988  0.00  0.00    -0.328 OA
ATOM     16  C   UNL d   1      46.593 -17.945  41.269  0.00  0.00     0.181 C 
ENDBRANCH  13  15
ENDBRANCH   4   5
ENDBRANCH   1   4
BRANCH   1  17
ATOM     17  C   UNL d   1      45.572 -15.835  44.654  0.00  0.00     0.105 A 
ATOM     18  C   UNL d   1      46.085 -15.229  44.443  0.00  0.00     0.013 A 
ATOM     19  C   UNL d   1      45.802 -14.458  44.372  0.00  0.00     0.001 A 
ATOM     20  C   UNL d   1      46.312 -13.856  44.163  0.00  0.00     0.000 A 
ATOM     21  C   UNL d   1      45.004 -14.290  44.511  0.00  0.00     0.000 A 
ATOM     22  C   UNL d   1      46.023 -13.087  44.093  0.00  0.00     0.000 A 
ATOM     23  C   UNL d   1      45.231 -12.918  44.230  0.00  0.00     0.000 A 
ATOM     24  C   UNL d   1      44.722 -13.520  44.439  0.00  0.00     0.000 A 
ATOM     25  C   UNL d   1      44.475 -14.914  44.727  0.00  0.00     0.001 A 
ATOM     26  C   UNL d   1      44.765 -15.683  44.797  0.00  0.00     0.013 A 
ENDBRANCH   1  17
TORSDOF 4
ENDMDL
