MODEL 1
REMARK VINA RESULT:      60.3      0.000      0.000
REMARK  7 active torsions:
REMARK  status: ('A' for Active; 'I' for Inactive)
REMARK    1  A    between atoms: C_11  and  N_3 
REMARK    2  A    between atoms: C_10  and  C_4 
REMARK    3  A    between atoms: C_16  and  C_11 
REMARK    4  A    between atoms: N_13  and  C_17 
REMARK    5  A    between atoms: C_18  and  N_14 
REMARK    6  A    between atoms: C_17  and  C_16 
REMARK    7  A    between atoms: C_27  and  C_18 
ROOT
ATOM      1  C   UNL d   1      43.971 -14.870  37.412  0.00  0.00     0.137 A 
ATOM      2  N   UNL d   1      44.518 -15.367  37.026  0.00  0.00    -0.259 N 
ATOM      3  N   UNL d   1      44.380 -14.193  37.644  0.00  0.00    -0.287 N 
ATOM      4  C   UNL d   1      43.190 -15.106  37.494  0.00  0.00     0.054 A 
ATOM      5  C   UNL d   1      44.269 -16.098  36.727  0.00  0.00     0.266 A 
ATOM      6  C   UNL d   1      45.254 -14.994  37.024  0.00  0.00     0.084 A 
ATOM      7  C   UNL d   1      45.167 -14.258  37.411  0.00  0.00     0.082 A 
ATOM      8  C   UNL d   1      42.939 -15.833  37.197  0.00  0.00     0.009 A 
ATOM      9  C   UNL d   1      43.476 -16.336  36.811  0.00  0.00     0.061 A 
ATOM     10  O   UNL d   1      44.808 -16.597  36.342  0.00  0.00    -0.267 OA
ATOM     11  C   UNL d   1      45.990 -15.212  36.728  0.00  0.00     0.019 A 
ATOM     12  C   UNL d   1      42.151 -16.070  37.280  0.00  0.00     0.000 C 
ATOM     13  C   UNL d   1      45.819 -13.770  37.487  0.00  0.00     0.019 A 
ATOM     14  C   UNL d   1      46.631 -14.712  36.813  0.00  0.00     0.002 A 
ATOM     15  C   UNL d   1      46.545 -13.983  37.197  0.00  0.00     0.002 A 
ENDROOT
BRANCH   3  16
ATOM     16  C   UNL d   1      44.303 -13.467  38.024  0.00  0.00     0.125 C 
BRANCH  16  17
ATOM     17  C   UNL d   1      44.518 -13.394  38.816  0.00  0.00     0.231 C 
ATOM     18  O   UNL d   1      44.892 -14.016  39.205  0.00  0.00    -0.283 OA
BRANCH  17  19
ATOM     19  C   UNL d   1      44.359 -12.696  39.222  0.00  0.00     0.124 C 
BRANCH  19  20
ATOM     20  N   UNL d   1      44.758 -12.534  39.926  0.00  0.00    -0.297 N 
ATOM     21  C   UNL d   1      44.144 -12.525  40.481  0.00  0.00     0.100 A 
ATOM     22  C   UNL d   1      44.317 -12.377  41.278  0.00  0.00     0.100 A 
ATOM     23  N   UNL d   1      45.097 -12.238  41.531  0.00  0.00    -0.300 N 
ATOM     24  C   UNL d   1      45.715 -12.249  40.964  0.00  0.00     0.100 A 
ATOM     25  C   UNL d   1      45.542 -12.396  40.168  0.00  0.00     0.100 A 
BRANCH  23  26
ATOM     26  C   UNL d   1      45.257 -12.092  42.328  0.00  0.00     0.080 C 
BRANCH  26  27
ATOM     27  C   UNL d   1      45.062 -12.660  42.899  0.00  0.00     0.018 A 
ATOM     28  C   UNL d   1      44.295 -12.681  43.202  0.00  0.00     0.002 A 
ATOM     29  C   UNL d   1      44.095 -13.254  43.779  0.00  0.00     0.000 A 
ATOM     30  C   UNL d   1      44.662 -13.790  44.039  0.00  0.00     0.000 A 
ATOM     31  C   UNL d   1      45.435 -13.763  43.729  0.00  0.00     0.000 A 
ATOM     32  C   UNL d   1      45.630 -13.195  43.158  0.00  0.00     0.002 A 
ENDBRANCH  26  27
ENDBRANCH  23  26
ENDBRANCH  19  20
ENDBRANCH  17  19
ENDBRANCH  16  17
ENDBRANCH   3  16
BRANCH   4  33
ATOM     33  C   UNL d   1      42.651 -14.618  37.873  0.00  0.00     0.125 C 
ATOM     34  N   UNL d   1      41.920 -14.448  37.539  0.00  0.00    -0.146 N 
ENDBRANCH   4  33
TORSDOF 7
ENDMDL
MODEL 2
REMARK VINA RESULT:      61.5      0.553      2.073
REMARK  7 active torsions:
REMARK  status: ('A' for Active; 'I' for Inactive)
REMARK    1  A    between atoms: C_11  and  N_3 
REMARK    2  A    between atoms: C_10  and  C_4 
REMARK    3  A    between atoms: C_16  and  C_11 
REMARK    4  A    between atoms: N_13  and  C_17 
REMARK    5  A    between atoms: C_18  and  N_14 
REMARK    6  A    between atoms: C_17  and  C_16 
REMARK    7  A    between atoms: C_27  and  C_18 
ROOT
ATOM      1  C   UNL d   1      44.646 -14.641  37.329  0.00  0.00     0.137 A 
ATOM      2  N   UNL d   1      44.205 -15.289  37.045  0.00  0.00    -0.259 N 
ATOM      3  N   UNL d   1      44.120 -14.145  37.725  0.00  0.00    -0.287 N 
ATOM      4  C   UNL d   1      45.452 -14.598  37.186  0.00  0.00     0.054 A 
ATOM      5  C   UNL d   1      44.585 -15.889  36.619  0.00  0.00     0.266 A 
ATOM      6  C   UNL d   1      43.417 -15.188  37.268  0.00  0.00     0.084 A 
ATOM      7  C   UNL d   1      43.364 -14.471  37.694  0.00  0.00     0.082 A 
ATOM      8  C   UNL d   1      45.833 -15.194  36.761  0.00  0.00     0.009 A 
ATOM      9  C   UNL d   1      45.404 -15.845  36.474  0.00  0.00     0.061 A 
ATOM     10  O   UNL d   1      44.153 -16.536  36.334  0.00  0.00    -0.267 OA
ATOM     11  C   UNL d   1      42.740 -15.639  37.148  0.00  0.00     0.019 A 
ATOM     12  C   UNL d   1      46.647 -15.151  36.617  0.00  0.00     0.000 C 
ATOM     13  C   UNL d   1      42.636 -14.234  37.983  0.00  0.00     0.019 A 
ATOM     14  C   UNL d   1      42.021 -15.387  37.443  0.00  0.00     0.002 A 
ATOM     15  C   UNL d   1      41.968 -14.677  37.866  0.00  0.00     0.002 A 
ENDROOT
BRANCH   3  16
ATOM     16  C   UNL d   1      44.058 -13.441  38.146  0.00  0.00     0.125 C 
BRANCH  16  17
ATOM     17  C   UNL d   1      44.340 -13.399  38.921  0.00  0.00     0.231 C 
ATOM     18  O   UNL d   1      44.850 -13.977  39.210  0.00  0.00    -0.283 OA
BRANCH  17  19
ATOM     19  C   UNL d   1      44.110 -12.777  39.408  0.00  0.00     0.124 C 
BRANCH  19  20
ATOM     20  N   UNL d   1      44.562 -12.594  40.074  0.00  0.00    -0.297 N 
ATOM     21  C   UNL d   1      43.994 -12.580  40.676  0.00  0.00     0.100 A 
ATOM     22  C   UNL d   1      44.228 -12.412  41.453  0.00  0.00     0.100 A 
ATOM     23  N   UNL d   1      45.023 -12.257  41.640  0.00  0.00    -0.300 N 
ATOM     24  C   UNL d   1      45.594 -12.272  41.026  0.00  0.00     0.100 A 
ATOM     25  C   UNL d   1      45.360 -12.440  40.249  0.00  0.00     0.100 A 
BRANCH  23  26
ATOM     26  C   UNL d   1      45.244 -12.091  42.418  0.00  0.00     0.080 C 
BRANCH  26  27
ATOM     27  C   UNL d   1      45.145 -12.665  43.007  0.00  0.00     0.018 A 
ATOM     28  C   UNL d   1      44.383 -12.868  43.249  0.00  0.00     0.002 A 
ATOM     29  C   UNL d   1      44.279 -13.448  43.844  0.00  0.00     0.000 A 
ATOM     30  C   UNL d   1      44.935 -13.811  44.182  0.00  0.00     0.000 A 
ATOM     31  C   UNL d   1      45.702 -13.601  43.933  0.00  0.00     0.000 A 
ATOM     32  C   UNL d   1      45.801 -13.026  43.343  0.00  0.00     0.002 A 
ENDBRANCH  26  27
ENDBRANCH  23  26
ENDBRANCH  19  20
ENDBRANCH  17  19
ENDBRANCH  16  17
ENDBRANCH   3  16
BRANCH   4  33
ATOM     33  C   UNL d   1      45.886 -13.961  37.464  0.00  0.00     0.125 C 
ATOM     34  N   UNL d   1      46.303 -13.471  36.952  0.00  0.00    -0.146 N 
ENDBRANCH   4  33
TORSDOF 7
ENDMDL
