MODEL 1
REMARK VINA RESULT:      14.5      0.000      0.000
REMARK  0 active torsions:
REMARK  status: ('A' for Active; 'I' for Inactive)
REMARK       I    between atoms: C_3  and  N_1 
REMARK       I    between atoms: N_6  and  C_3 
ROOT
ATOM      1  N   UNL d   1     -51.905  24.934  33.307  0.00  0.00    -0.160 N 
ATOM      2  N   UNL d   1     -51.305  24.386  33.307  0.00  0.00    -0.056 NA
ATOM      3  C   UNL d   1     -51.778  25.774  33.306  0.00  0.00     0.357 C 
ATOM      4  N   UNL d   1     -51.654  23.639  33.307  0.00  0.00    -0.128 NA
ATOM      5  C   UNL d   1     -52.619  24.543  33.307  0.00  0.00     0.108 A 
ATOM      6  N   UNL d   1     -51.018  26.084  33.306  0.00  0.00    -0.252 N 
ATOM      7  C   UNL d   1     -52.464  23.738  33.307  0.00  0.00     0.122 A 
ATOM      8  O   UNL d   1     -52.450  26.269  33.306  0.00  0.00    -0.244 OA
ATOM      9  O   UNL d   1     -49.494  26.706  33.306  0.00  0.00    -0.300 OA
ATOM     10  C   UNL d   1     -53.387  24.812  33.307  0.00  0.00     0.021 A 
ATOM     11  C   UNL d   1     -50.359  25.565  33.306  0.00  0.00     0.111 A 
ATOM     12  C   UNL d   1     -50.903  26.888  33.306  0.00  0.00     0.111 A 
ATOM     13  C   UNL d   1     -53.087  23.189  33.307  0.00  0.00     0.022 A 
ATOM     14  C   UNL d   1     -49.591  25.879  33.306  0.00  0.00     0.142 A 
ATOM     15  C   UNL d   1     -50.139  27.200  33.306  0.00  0.00     0.142 A 
ATOM     16  C   UNL d   1     -54.014  24.274  33.307  0.00  0.00     0.002 A 
ATOM     17  C   UNL d   1     -53.873  23.468  33.307  0.00  0.00     0.002 A 
ENDROOT
TORSDOF 0
ENDMDL
MODEL 2
REMARK VINA RESULT:      17.0      0.927      3.398
REMARK  0 active torsions:
REMARK  status: ('A' for Active; 'I' for Inactive)
REMARK       I    between atoms: C_3  and  N_1 
REMARK       I    between atoms: N_6  and  C_3 
ROOT
ATOM      1  N   UNL d   1     -51.287  25.155  33.313  0.00  0.00    -0.160 N 
ATOM      2  N   UNL d   1     -50.927  24.427  33.313  0.00  0.00    -0.056 NA
ATOM      3  C   UNL d   1     -52.129  25.266  33.312  0.00  0.00     0.357 C 
ATOM      4  N   UNL d   1     -50.112  24.554  33.314  0.00  0.00    -0.128 NA
ATOM      5  C   UNL d   1     -50.713  25.733  33.314  0.00  0.00     0.108 A 
ATOM      6  N   UNL d   1     -52.638  24.621  33.311  0.00  0.00    -0.252 N 
ATOM      7  C   UNL d   1     -49.982  25.361  33.314  0.00  0.00     0.122 A 
ATOM      8  O   UNL d   1     -52.418  26.049  33.313  0.00  0.00    -0.244 OA
ATOM      9  O   UNL d   1     -53.658  23.330  33.309  0.00  0.00    -0.300 OA
ATOM     10  C   UNL d   1     -50.758  26.545  33.315  0.00  0.00     0.021 A 
ATOM     11  C   UNL d   1     -52.322  23.845  33.311  0.00  0.00     0.111 A 
ATOM     12  C   UNL d   1     -53.442  24.734  33.311  0.00  0.00     0.111 A 
ATOM     13  C   UNL d   1     -49.282  25.807  33.315  0.00  0.00     0.022 A 
ATOM     14  C   UNL d   1     -52.836  23.194  33.310  0.00  0.00     0.142 A 
ATOM     15  C   UNL d   1     -53.953  24.087  33.310  0.00  0.00     0.142 A 
ATOM     16  C   UNL d   1     -50.068  26.998  33.316  0.00  0.00     0.002 A 
ATOM     17  C   UNL d   1     -49.332  26.639  33.316  0.00  0.00     0.002 A 
ENDROOT
TORSDOF 0
ENDMDL
