MODEL 1
REMARK VINA RESULT:       0.6      0.000      0.000
REMARK  4 active torsions:
REMARK  status: ('A' for Active; 'I' for Inactive)
REMARK    1  A    between atoms: C_5  and  N_1 
REMARK    2  A    between atoms: C_7  and  C_3 
REMARK    3  A    between atoms: C_8  and  C_4 
REMARK    4  A    between atoms: N_10  and  C_5 
ROOT
ATOM      1  N   UNL d   1      58.451  -0.118  30.781  0.00  0.00    -0.203 N 
ATOM      2  N   UNL d   1      57.978   0.257  31.348  0.00  0.00    -0.163 NA
ATOM      3  C   UNL d   1      57.359  -0.219  31.549  0.00  0.00     0.103 A 
ATOM      4  C   UNL d   1      58.116  -0.864  30.616  0.00  0.00     0.087 A 
ATOM      5  C   UNL d   1      57.440  -0.934  31.088  0.00  0.00     0.040 A 
ENDROOT
BRANCH   3   6
ATOM      6  C   UNL d   1      56.766  -0.028  32.103  0.00  0.00     0.019 A 
ATOM      7  C   UNL d   1      56.155   0.488  31.908  0.00  0.00     0.002 A 
ATOM      8  C   UNL d   1      55.571   0.667  32.478  0.00  0.00     0.000 A 
ATOM      9  C   UNL d   1      55.607   0.329  33.223  0.00  0.00     0.000 A 
ATOM     10  C   UNL d   1      56.227  -0.186  33.401  0.00  0.00     0.000 A 
ATOM     11  C   UNL d   1      55.095   0.517  33.647  0.00  0.00     0.000 C 
ATOM     12  C   UNL d   1      56.796  -0.362  32.853  0.00  0.00     0.002 A 
ENDBRANCH   3   6
BRANCH   1  13
ATOM     13  C   UNL d   1      59.150   0.192  30.427  0.00  0.00     0.222 C 
ATOM     14  S   UNL d   1      59.892   0.084  30.820  0.00  0.00    -0.037 SA
BRANCH  13  15
ATOM     15  N   UNL d   1      59.126   0.608  29.690  0.00  0.00    -0.214 NA
ATOM     16  C   UNL d   1      59.812   0.667  29.223  0.00  0.00     0.122 C 
ENDBRANCH  13  15
ENDBRANCH   1  13
BRANCH   4  17
ATOM     17  C   UNL d   1      58.381  -1.446  30.091  0.00  0.00     0.018 A 
ATOM     18  C   UNL d   1      57.915  -1.691  29.462  0.00  0.00     0.002 A 
ATOM     19  C   UNL d   1      58.179  -2.270  28.940  0.00  0.00     0.011 A 
ATOM     20  C   UNL d   1      58.921  -2.607  29.049  0.00  0.00     0.058 A 
ATOM     21  C   UNL d   1      59.387  -2.375  29.661  0.00  0.00     0.011 A 
ATOM     22 CL   UNL d   1      59.172  -3.195  28.505  0.00  0.00    -0.082 Cl
ATOM     23  C   UNL d   1      59.122  -1.794  30.186  0.00  0.00     0.002 A 
ENDBRANCH   4  17
TORSDOF 4
ENDMDL
MODEL 2
REMARK VINA RESULT:       1.4      1.714      4.333
REMARK  4 active torsions:
REMARK  status: ('A' for Active; 'I' for Inactive)
REMARK    1  A    between atoms: C_5  and  N_1 
REMARK    2  A    between atoms: C_7  and  C_3 
REMARK    3  A    between atoms: C_8  and  C_4 
REMARK    4  A    between atoms: N_10  and  C_5 
ROOT
ATOM      1  N   UNL d   1      58.472  -0.578  29.798  0.00  0.00    -0.203 N 
ATOM      2  N   UNL d   1      58.869  -1.163  29.368  0.00  0.00    -0.163 NA
ATOM      3  C   UNL d   1      58.646  -1.895  29.625  0.00  0.00     0.103 A 
ATOM      4  C   UNL d   1      57.974  -0.956  30.352  0.00  0.00     0.087 A 
ATOM      5  C   UNL d   1      58.077  -1.771  30.251  0.00  0.00     0.040 A 
ENDROOT
BRANCH   3   6
ATOM      6  C   UNL d   1      58.929  -2.618  29.323  0.00  0.00     0.019 A 
ATOM      7  C   UNL d   1      59.653  -2.923  29.568  0.00  0.00     0.002 A 
ATOM      8  C   UNL d   1      59.920  -3.650  29.253  0.00  0.00     0.000 A 
ATOM      9  C   UNL d   1      59.463  -4.053  28.706  0.00  0.00     0.000 A 
ATOM     10  C   UNL d   1      58.740  -3.731  28.472  0.00  0.00     0.000 A 
ATOM     11  C   UNL d   1      59.739  -4.646  28.485  0.00  0.00     0.000 C 
ATOM     12  C   UNL d   1      58.477  -3.027  28.773  0.00  0.00     0.002 A 
ENDBRANCH   3   6
BRANCH   1  13
ATOM     13  C   UNL d   1      58.549   0.256  29.700  0.00  0.00     0.222 C 
ATOM     14  S   UNL d   1      57.935   0.681  29.302  0.00  0.00    -0.037 SA
BRANCH  13  15
ATOM     15  N   UNL d   1      59.225   0.674  29.991  0.00  0.00    -0.214 NA
ATOM     16  C   UNL d   1      59.961   0.591  29.612  0.00  0.00     0.122 C 
ENDBRANCH  13  15
ENDBRANCH   1  13
BRANCH   4  17
ATOM     17  C   UNL d   1      57.466  -0.614  30.908  0.00  0.00     0.018 A 
ATOM     18  C   UNL d   1      57.187  -1.047  31.547  0.00  0.00     0.002 A 
ATOM     19  C   UNL d   1      56.681  -0.706  32.100  0.00  0.00     0.011 A 
ATOM     20  C   UNL d   1      56.452   0.078  32.011  0.00  0.00     0.058 A 
ATOM     21  C   UNL d   1      56.718   0.512  31.390  0.00  0.00     0.011 A 
ATOM     22 CL   UNL d   1      55.935   0.407  32.586  0.00  0.00    -0.082 Cl
ATOM     23  C   UNL d   1      57.226   0.171  30.834  0.00  0.00     0.002 A 
ENDBRANCH   4  17
TORSDOF 4
ENDMDL
MODEL 3
REMARK VINA RESULT:       1.7      2.239      4.499
REMARK  4 active torsions:
REMARK  status: ('A' for Active; 'I' for Inactive)
REMARK    1  A    between atoms: C_5  and  N_1 
REMARK    2  A    between atoms: C_7  and  C_3 
REMARK    3  A    between atoms: C_8  and  C_4 
REMARK    4  A    between atoms: N_10  and  C_5 
ROOT
ATOM      1  N   UNL d   1      57.562   0.260  32.669  0.00  0.00    -0.203 N 
ATOM      2  N   UNL d   1      58.082   0.186  32.029  0.00  0.00    -0.163 NA
ATOM      3  C   UNL d   1      57.686  -0.090  31.382  0.00  0.00     0.103 A 
ATOM      4  C   UNL d   1      56.803   0.021  32.416  0.00  0.00     0.087 A 
ATOM      5  C   UNL d   1      56.872  -0.197  31.621  0.00  0.00     0.040 A 
ENDROOT
BRANCH   3   6
ATOM      6  C   UNL d   1      58.027  -0.234  30.635  0.00  0.00     0.019 A 
ATOM      7  C   UNL d   1      58.391   0.371  30.213  0.00  0.00     0.002 A 
ATOM      8  C   UNL d   1      58.727   0.206  29.465  0.00  0.00     0.000 A 
ATOM      9  C   UNL d   1      58.692  -0.552  29.159  0.00  0.00     0.000 A 
ATOM     10  C   UNL d   1      58.323  -1.146  29.596  0.00  0.00     0.000 A 
ATOM     11  C   UNL d   1      58.988  -0.623  28.539  0.00  0.00     0.000 C 
ATOM     12  C   UNL d   1      57.996  -0.992  30.321  0.00  0.00     0.002 A 
ENDBRANCH   3   6
BRANCH   1  13
ATOM     13  C   UNL d   1      57.756   0.529  33.444  0.00  0.00     0.222 C 
ATOM     14  S   UNL d   1      57.130   0.682  33.994  0.00  0.00    -0.037 SA
BRANCH  13  15
ATOM     15  N   UNL d   1      58.559   0.650  33.682  0.00  0.00    -0.214 NA
ATOM     16  C   UNL d   1      58.752   0.682  34.490  0.00  0.00     0.122 C 
ENDBRANCH  13  15
ENDBRANCH   1  13
BRANCH   4  17
ATOM     17  C   UNL d   1      56.098  -0.007  32.848  0.00  0.00     0.018 A 
ATOM     18  C   UNL d   1      55.845  -0.702  33.201  0.00  0.00     0.002 A 
ATOM     19  C   UNL d   1      55.144  -0.728  33.631  0.00  0.00     0.011 A 
ATOM     20  C   UNL d   1      54.690  -0.047  33.708  0.00  0.00     0.058 A 
ATOM     21  C   UNL d   1      54.927   0.640  33.367  0.00  0.00     0.011 A 
ATOM     22 CL   UNL d   1      53.978  -0.095  34.150  0.00  0.00    -0.082 Cl
ATOM     23  C   UNL d   1      55.631   0.668  32.936  0.00  0.00     0.002 A 
ENDBRANCH   4  17
TORSDOF 4
ENDMDL
MODEL 4
REMARK VINA RESULT:       2.7      2.792      4.987
REMARK  4 active torsions:
REMARK  status: ('A' for Active; 'I' for Inactive)
REMARK    1  A    between atoms: C_5  and  N_1 
REMARK    2  A    between atoms: C_7  and  C_3 
REMARK    3  A    between atoms: C_8  and  C_4 
REMARK    4  A    between atoms: N_10  and  C_5 
ROOT
ATOM      1  N   UNL d   1      56.238  -0.937  32.566  0.00  0.00    -0.203 N 
ATOM      2  N   UNL d   1      56.680  -0.904  31.866  0.00  0.00    -0.163 NA
ATOM      3  C   UNL d   1      57.097  -0.214  31.836  0.00  0.00     0.103 A 
ATOM      4  C   UNL d   1      56.383  -0.238  32.998  0.00  0.00     0.087 A 
ATOM      5  C   UNL d   1      56.914   0.215  32.552  0.00  0.00     0.040 A 
ENDROOT
BRANCH   3   6
ATOM      6  C   UNL d   1      57.604   0.014  31.215  0.00  0.00     0.019 A 
ATOM      7  C   UNL d   1      57.431  -0.182  30.434  0.00  0.00     0.002 A 
ATOM      8  C   UNL d   1      57.952   0.057  29.826  0.00  0.00     0.000 A 
ATOM      9  C   UNL d   1      58.628   0.481  30.007  0.00  0.00     0.000 A 
ATOM     10  C   UNL d   1      58.785   0.669  30.795  0.00  0.00     0.000 A 
ATOM     11  C   UNL d   1      59.016   0.648  29.461  0.00  0.00     0.000 C 
ATOM     12  C   UNL d   1      58.284   0.440  31.389  0.00  0.00     0.002 A 
ENDBRANCH   3   6
BRANCH   1  13
ATOM     13  C   UNL d   1      55.729  -1.564  32.808  0.00  0.00     0.222 C 
ATOM     14  S   UNL d   1      54.898  -1.496  32.663  0.00  0.00    -0.037 SA
BRANCH  13  15
ATOM     15  N   UNL d   1      56.031  -2.256  33.190  0.00  0.00    -0.214 NA
ATOM     16  C   UNL d   1      55.510  -2.859  33.429  0.00  0.00     0.122 C 
ENDBRANCH  13  15
ENDBRANCH   1  13
BRANCH   4  17
ATOM     17  C   UNL d   1      56.074  -0.009  33.730  0.00  0.00     0.018 A 
ATOM     18  C   UNL d   1      56.538  -0.018  34.406  0.00  0.00     0.002 A 
ATOM     19  C   UNL d   1      56.229   0.210  35.134  0.00  0.00     0.011 A 
ATOM     20  C   UNL d   1      55.445   0.452  35.185  0.00  0.00     0.058 A 
ATOM     21  C   UNL d   1      54.980   0.466  34.530  0.00  0.00     0.011 A 
ATOM     22 CL   UNL d   1      55.150   0.680  35.937  0.00  0.00    -0.082 Cl
ATOM     23  C   UNL d   1      55.289   0.236  33.798  0.00  0.00     0.002 A 
ENDBRANCH   4  17
TORSDOF 4
ENDMDL
