MODEL 1
REMARK VINA RESULT:      -9.7      0.000      0.000
REMARK  5 active torsions:
REMARK  status: ('A' for Active; 'I' for Inactive)
REMARK    1  A    between atoms: C_2  and  S_1 
REMARK    2  A    between atoms: N_3  and  S_1 
REMARK    3  A    between atoms: C_6  and  C_7 
REMARK    4  A    between atoms: C_7  and  C_8 
REMARK    5  A    between atoms: C_8  and  C_12 
ROOT
ATOM      1  C   UNL d   1      52.883  32.602  53.314  0.00  0.00     0.104 A 
ATOM      2  C   UNL d   1      53.565  32.956  53.568  0.00  0.00     0.012 A 
ATOM      3  C   UNL d   1      52.820  31.794  53.276  0.00  0.00     0.013 A 
ATOM      4  C   UNL d   1      53.473  31.318  53.505  0.00  0.00     0.001 A 
ATOM      5  C   UNL d   1      54.218  32.480  53.797  0.00  0.00     0.001 A 
ATOM      6  C   UNL d   1      54.155  31.675  53.759  0.00  0.00     0.000 A 
ATOM      7  C   UNL d   1      53.622  33.793  53.604  0.00  0.00     0.001 C 
ENDROOT
BRANCH   1   8
ATOM      8  S   UNL d   1      52.230  33.078  53.086  0.00  0.00     0.271 S 
ATOM      9  O   UNL d   1      52.393  32.923  52.299  0.00  0.00    -0.200 OA
ATOM     10  O   UNL d   1      52.063  33.236  53.894  0.00  0.00    -0.200 OA
BRANCH   8  11
ATOM     11  N   UNL d   1      51.596  33.539  52.856  0.00  0.00    -0.229 N 
ATOM     12  C   UNL d   1      51.624  33.933  52.135  0.00  0.00     0.092 A 
ATOM     13  C   UNL d   1      50.980  34.401  51.903  0.00  0.00     0.020 A 
ATOM     14  C   UNL d   1      50.311  34.472  52.395  0.00  0.00     0.003 A 
ATOM     15  C   UNL d   1      50.311  34.071  53.105  0.00  0.00     0.020 A 
ATOM     16  C   UNL d   1      50.949  33.604  53.340  0.00  0.00     0.092 A 
ENDBRANCH   8  11
ENDBRANCH   1   8
BRANCH   4  17
ATOM     17  C   UNL d   1      53.399  30.470  53.463  0.00  0.00     0.006 C 
BRANCH  17  18
ATOM     18  C   UNL d   1      53.345  30.001  54.152  0.00  0.00     0.070 C 
BRANCH  18  19
ATOM     19  C   UNL d   1      53.141  29.210  54.098  0.00  0.00     0.211 C 
ATOM     20  O   UNL d   1      53.397  28.670  54.678  0.00  0.00    -0.644 OA
ATOM     21  O   UNL d   1      52.686  28.943  53.474  0.00  0.00    -0.644 OA
ENDBRANCH  18  19
ENDBRANCH  17  18
ENDBRANCH   4  17
TORSDOF 5
ENDMDL
MODEL 2
REMARK VINA RESULT:      -9.0      1.796      2.844
REMARK  5 active torsions:
REMARK  status: ('A' for Active; 'I' for Inactive)
REMARK    1  A    between atoms: C_2  and  S_1 
REMARK    2  A    between atoms: N_3  and  S_1 
REMARK    3  A    between atoms: C_6  and  C_7 
REMARK    4  A    between atoms: C_7  and  C_8 
REMARK    5  A    between atoms: C_8  and  C_12 
ROOT
ATOM      1  C   UNL d   1      53.570  31.774  53.711  0.00  0.00     0.104 A 
ATOM      2  C   UNL d   1      53.014  31.983  53.162  0.00  0.00     0.012 A 
ATOM      3  C   UNL d   1      53.695  30.996  53.906  0.00  0.00     0.013 A 
ATOM      4  C   UNL d   1      53.240  30.399  53.530  0.00  0.00     0.001 A 
ATOM      5  C   UNL d   1      52.559  31.386  52.786  0.00  0.00     0.001 A 
ATOM      6  C   UNL d   1      52.684  30.611  52.980  0.00  0.00     0.000 A 
ATOM      7  C   UNL d   1      52.891  32.790  52.966  0.00  0.00     0.001 C 
ENDROOT
BRANCH   1   8
ATOM      8  S   UNL d   1      54.025  32.372  54.087  0.00  0.00     0.271 S 
ATOM      9  O   UNL d   1      53.458  32.435  54.673  0.00  0.00    -0.200 OA
ATOM     10  O   UNL d   1      54.607  32.307  53.485  0.00  0.00    -0.200 OA
BRANCH   8  11
ATOM     11  N   UNL d   1      54.462  32.953  54.458  0.00  0.00    -0.229 N 
ATOM     12  C   UNL d   1      55.082  33.312  54.055  0.00  0.00     0.092 A 
ATOM     13  C   UNL d   1      55.525  33.902  54.433  0.00  0.00     0.020 A 
ATOM     14  C   UNL d   1      55.345  34.131  55.214  0.00  0.00     0.003 A 
ATOM     15  C   UNL d   1      54.724  33.758  55.590  0.00  0.00     0.020 A 
ATOM     16  C   UNL d   1      54.280  33.170  55.218  0.00  0.00     0.092 A 
ENDBRANCH   8  11
ENDBRANCH   1   8
BRANCH   4  17
ATOM     17  C   UNL d   1      53.377  29.584  53.739  0.00  0.00     0.006 C 
BRANCH  17  18
ATOM     18  C   UNL d   1      52.967  29.220  54.369  0.00  0.00     0.070 C 
BRANCH  18  19
ATOM     19  C   UNL d   1      53.294  28.578  54.757  0.00  0.00     0.211 C 
ATOM     20  O   UNL d   1      53.281  28.539  55.589  0.00  0.00    -0.644 OA
ATOM     21  O   UNL d   1      53.635  27.969  54.333  0.00  0.00    -0.644 OA
ENDBRANCH  18  19
ENDBRANCH  17  18
ENDBRANCH   4  17
TORSDOF 5
ENDMDL
MODEL 3
REMARK VINA RESULT:      -8.9      1.434      4.104
REMARK  5 active torsions:
REMARK  status: ('A' for Active; 'I' for Inactive)
REMARK    1  A    between atoms: C_2  and  S_1 
REMARK    2  A    between atoms: N_3  and  S_1 
REMARK    3  A    between atoms: C_6  and  C_7 
REMARK    4  A    between atoms: C_7  and  C_8 
REMARK    5  A    between atoms: C_8  and  C_12 
ROOT
ATOM      1  C   UNL d   1      52.653  33.101  53.181  0.00  0.00     0.104 A 
ATOM      2  C   UNL d   1      53.185  33.656  53.434  0.00  0.00     0.012 A 
ATOM      3  C   UNL d   1      51.939  33.319  52.864  0.00  0.00     0.013 A 
ATOM      4  C   UNL d   1      51.750  34.135  52.796  0.00  0.00     0.001 A 
ATOM      5  C   UNL d   1      52.996  34.471  53.366  0.00  0.00     0.001 A 
ATOM      6  C   UNL d   1      52.285  34.689  53.050  0.00  0.00     0.000 A 
ATOM      7  C   UNL d   1      53.922  33.421  53.762  0.00  0.00     0.001 C 
ENDROOT
BRANCH   1   8
ATOM      8  S   UNL d   1      52.842  32.286  53.249  0.00  0.00     0.271 S 
ATOM      9  O   UNL d   1      53.040  32.266  52.456  0.00  0.00    -0.200 OA
ATOM     10  O   UNL d   1      52.638  32.306  54.064  0.00  0.00    -0.200 OA
BRANCH   8  11
ATOM     11  N   UNL d   1      53.028  31.492  53.307  0.00  0.00    -0.229 N 
ATOM     12  C   UNL d   1      52.583  30.942  52.890  0.00  0.00     0.092 A 
ATOM     13  C   UNL d   1      52.773  30.137  52.950  0.00  0.00     0.020 A 
ATOM     14  C   UNL d   1      53.408  29.887  53.428  0.00  0.00     0.003 A 
ATOM     15  C   UNL d   1      53.832  30.455  53.832  0.00  0.00     0.020 A 
ATOM     16  C   UNL d   1      53.647  31.257  53.775  0.00  0.00     0.092 A 
ENDBRANCH   8  11
ENDBRANCH   1   8
BRANCH   4  17
ATOM     17  C   UNL d   1      50.998  34.358  52.461  0.00  0.00     0.006 C 
BRANCH  17  18
ATOM     18  C   UNL d   1      50.313  34.429  52.934  0.00  0.00     0.070 C 
BRANCH  18  19
ATOM     19  C   UNL d   1      49.622  34.731  52.615  0.00  0.00     0.211 C 
ATOM     20  O   UNL d   1      49.158  35.267  53.052  0.00  0.00    -0.644 OA
ATOM     21  O   UNL d   1      49.382  34.509  51.866  0.00  0.00    -0.644 OA
ENDBRANCH  18  19
ENDBRANCH  17  18
ENDBRANCH   4  17
TORSDOF 5
ENDMDL
MODEL 4
REMARK VINA RESULT:      -8.8      1.624      2.722
REMARK  5 active torsions:
REMARK  status: ('A' for Active; 'I' for Inactive)
REMARK    1  A    between atoms: C_2  and  S_1 
REMARK    2  A    between atoms: N_3  and  S_1 
REMARK    3  A    between atoms: C_6  and  C_7 
REMARK    4  A    between atoms: C_7  and  C_8 
REMARK    5  A    between atoms: C_8  and  C_12 
ROOT
ATOM      1  C   UNL d   1      52.778  32.793  53.295  0.00  0.00     0.104 A 
ATOM      2  C   UNL d   1      52.811  31.990  53.207  0.00  0.00     0.012 A 
ATOM      3  C   UNL d   1      53.385  33.202  53.645  0.00  0.00     0.013 A 
ATOM      4  C   UNL d   1      54.060  32.784  53.920  0.00  0.00     0.001 A 
ATOM      5  C   UNL d   1      53.486  31.571  53.481  0.00  0.00     0.001 A 
ATOM      6  C   UNL d   1      54.091  31.979  53.830  0.00  0.00     0.000 A 
ATOM      7  C   UNL d   1      52.179  31.574  52.844  0.00  0.00     0.001 C 
ENDROOT
BRANCH   1   8
ATOM      8  S   UNL d   1      52.103  33.211  53.021  0.00  0.00     0.271 S 
ATOM      9  O   UNL d   1      51.822  33.260  53.787  0.00  0.00    -0.200 OA
ATOM     10  O   UNL d   1      52.392  33.161  52.234  0.00  0.00    -0.200 OA
BRANCH   8  11
ATOM     11  N   UNL d   1      51.444  33.619  52.761  0.00  0.00    -0.229 N 
ATOM     12  C   UNL d   1      50.786  33.676  53.250  0.00  0.00     0.092 A 
ATOM     13  C   UNL d   1      50.118  34.090  52.986  0.00  0.00     0.020 A 
ATOM     14  C   UNL d   1      50.112  34.444  52.232  0.00  0.00     0.003 A 
ATOM     15  C   UNL d   1      50.780  34.371  51.767  0.00  0.00     0.020 A 
ATOM     16  C   UNL d   1      51.446  33.961  52.026  0.00  0.00     0.092 A 
ENDBRANCH   8  11
ENDBRANCH   1   8
BRANCH   4  17
ATOM     17  C   UNL d   1      54.694  33.220  54.286  0.00  0.00     0.006 C 
BRANCH  17  18
ATOM     18  C   UNL d   1      54.759  33.281  55.117  0.00  0.00     0.070 C 
BRANCH  18  19
ATOM     19  C   UNL d   1      55.255  33.839  55.451  0.00  0.00     0.211 C 
ATOM     20  O   UNL d   1      55.149  34.074  56.244  0.00  0.00    -0.644 OA
ATOM     21  O   UNL d   1      55.858  34.172  55.012  0.00  0.00    -0.644 OA
ENDBRANCH  18  19
ENDBRANCH  17  18
ENDBRANCH   4  17
TORSDOF 5
ENDMDL
MODEL 5
REMARK VINA RESULT:      -8.1      1.806      4.120
REMARK  5 active torsions:
REMARK  status: ('A' for Active; 'I' for Inactive)
REMARK    1  A    between atoms: C_2  and  S_1 
REMARK    2  A    between atoms: N_3  and  S_1 
REMARK    3  A    between atoms: C_6  and  C_7 
REMARK    4  A    between atoms: C_7  and  C_8 
REMARK    5  A    between atoms: C_8  and  C_12 
ROOT
ATOM      1  C   UNL d   1      52.882  32.828  53.627  0.00  0.00     0.104 A 
ATOM      2  C   UNL d   1      52.893  32.113  53.250  0.00  0.00     0.012 A 
ATOM      3  C   UNL d   1      52.225  33.304  53.607  0.00  0.00     0.013 A 
ATOM      4  C   UNL d   1      51.545  33.048  53.186  0.00  0.00     0.001 A 
ATOM      5  C   UNL d   1      52.213  31.857  52.830  0.00  0.00     0.001 A 
ATOM      6  C   UNL d   1      51.558  32.330  52.809  0.00  0.00     0.000 A 
ATOM      7  C   UNL d   1      53.578  31.627  53.277  0.00  0.00     0.001 C 
ENDROOT
BRANCH   1   8
ATOM      8  S   UNL d   1      53.563  33.084  54.048  0.00  0.00     0.271 S 
ATOM      9  O   UNL d   1      53.301  32.687  54.713  0.00  0.00    -0.200 OA
ATOM     10  O   UNL d   1      53.832  33.492  53.365  0.00  0.00    -0.200 OA
BRANCH   8  11
ATOM     11  N   UNL d   1      54.222  33.329  54.464  0.00  0.00    -0.229 N 
ATOM     12  C   UNL d   1      54.893  33.567  54.054  0.00  0.00     0.092 A 
ATOM     13  C   UNL d   1      55.562  33.815  54.477  0.00  0.00     0.020 A 
ATOM     14  C   UNL d   1      55.554  33.825  55.310  0.00  0.00     0.003 A 
ATOM     15  C   UNL d   1      54.874  33.584  55.692  0.00  0.00     0.020 A 
ATOM     16  C   UNL d   1      54.207  33.336  55.274  0.00  0.00     0.092 A 
ENDBRANCH   8  11
ENDBRANCH   1   8
BRANCH   4  17
ATOM     17  C   UNL d   1      50.858  33.551  53.168  0.00  0.00     0.006 C 
BRANCH  17  18
ATOM     18  C   UNL d   1      50.726  34.089  52.542  0.00  0.00     0.070 C 
BRANCH  18  19
ATOM     19  C   UNL d   1      50.018  34.497  52.491  0.00  0.00     0.211 C 
ATOM     20  O   UNL d   1      49.564  34.461  51.794  0.00  0.00    -0.644 OA
ATOM     21  O   UNL d   1      49.751  34.941  53.122  0.00  0.00    -0.644 OA
ENDBRANCH  18  19
ENDBRANCH  17  18
ENDBRANCH   4  17
TORSDOF 5
ENDMDL
