MODEL 1
REMARK VINA RESULT:      10.6      0.000      0.000
REMARK  5 active torsions:
REMARK  status: ('A' for Active; 'I' for Inactive)
REMARK    1  A    between atoms: N_9  and  C_2 
REMARK    2  A    between atoms: N_12  and  C_6 
REMARK    3  A    between atoms: C_13  and  N_11 
REMARK    4  A    between atoms: C_18  and  N_12 
REMARK    5  A    between atoms: O_28  and  C_23 
ROOT
ATOM      1  N   UNL d   1     -41.624-121.570 -51.359  0.00  0.00    -0.041 NA
ATOM      2  C   UNL d   1     -41.871-122.206 -51.733  0.00  0.00     0.738 A 
ATOM      3  C   UNL d   1     -41.499-121.594 -50.590  0.00  0.00     0.187 A 
ATOM      4  N   UNL d   1     -41.994-122.872 -51.337  0.00  0.00    -0.041 NA
ATOM      5  C   UNL d   1     -41.621-122.259 -50.190  0.00  0.00     0.094 A 
ATOM      6  C   UNL d   1     -41.871-122.904 -50.565  0.00  0.00     0.185 A 
ATOM      7  N   UNL d   1     -41.123-120.975 -49.434  0.00  0.00    -0.162 NA
ATOM      8  N   UNL d   1     -41.250-120.949 -50.217  0.00  0.00    -0.208 N 
ATOM      9  C   UNL d   1     -41.246-121.642 -49.038  0.00  0.00     0.127 A 
ATOM     10  C   UNL d   1     -41.127-120.286 -50.612  0.00  0.00     0.123 C 
ENDROOT
BRANCH   2  11
ATOM     11  N   UNL d   1     -42.005-122.184 -52.548  0.00  0.00    -0.134 N 
ATOM     12  C   UNL d   1     -42.599-121.701 -52.858  0.00  0.00     0.117 A 
ATOM     13  C   UNL d   1     -42.726-121.684 -53.675  0.00  0.00     0.100 A 
ATOM     14  N   UNL d   1     -42.262-122.147 -54.180  0.00  0.00    -0.301 N 
ATOM     15  C   UNL d   1     -41.670-122.627 -53.869  0.00  0.00     0.100 A 
ATOM     16  C   UNL d   1     -41.540-122.647 -53.054  0.00  0.00     0.117 A 
BRANCH  14  17
ATOM     17  C   UNL d   1     -42.393-122.127 -54.998  0.00  0.00     0.064 A 
ATOM     18  C   UNL d   1     -43.003-122.590 -55.322  0.00  0.00     0.020 A 
ATOM     19  C   UNL d   1     -43.134-122.569 -56.139  0.00  0.00     0.031 A 
ATOM     20  C   UNL d   1     -42.656-122.088 -56.627  0.00  0.00     0.140 A 
ATOM     21  C   UNL d   1     -42.050-121.632 -56.279  0.00  0.00     0.031 A 
ATOM     22  F   UNL d   1     -42.786-122.066 -57.442  0.00  0.00    -0.204 F 
ATOM     23  C   UNL d   1     -41.922-121.654 -55.468  0.00  0.00     0.020 A 
ENDBRANCH  14  17
ENDBRANCH   2  11
BRANCH   6  24
ATOM     24  N   UNL d   1     -42.000-123.600 -50.158  0.00  0.00    -0.226 NA
BRANCH  24  25
ATOM     25  C   UNL d   1     -42.645-123.672 -49.660  0.00  0.00     0.085 A 
ATOM     26  C   UNL d   1     -42.546-123.701 -48.838  0.00  0.00     0.043 A 
ATOM     27  C   UNL d   1     -43.191-123.773 -48.337  0.00  0.00     0.096 A 
ATOM     28  C   UNL d   1     -43.953-123.817 -48.659  0.00  0.00     0.024 A 
ATOM     29  C   UNL d   1     -44.057-123.789 -49.469  0.00  0.00     0.004 A 
ATOM     30  C   UNL d   1     -43.402-123.716 -49.972  0.00  0.00     0.019 A 
BRANCH  27  31
ATOM     31  O   UNL d   1     -43.089-123.801 -47.522  0.00  0.00    -0.328 OA
ATOM     32  C   UNL d   1     -42.787-123.272 -46.967  0.00  0.00     0.181 C 
ENDBRANCH  27  31
ENDBRANCH  24  25
ENDBRANCH   6  24
TORSDOF 5
ENDMDL
