MODEL 1
REMARK VINA RESULT:       4.4      0.000      0.000
REMARK  0 active torsions:
REMARK  status: ('A' for Active; 'I' for Inactive)
ROOT
ATOM      1  C   UNL d   1     -50.930  24.037  33.309  0.00  0.00     0.282 A 
ATOM      2  N   UNL d   1     -51.548  23.488  33.311  0.00  0.00    -0.189 NA
ATOM      3  N   UNL d   1     -52.494  24.561  33.314  0.00  0.00    -0.227 NA
ATOM      4  C   UNL d   1     -51.094  24.843  33.311  0.00  0.00     0.076 A 
ATOM      5  C   UNL d   1     -52.330  23.750  33.313  0.00  0.00     0.166 A 
ATOM      6  C   UNL d   1     -51.877  25.105  33.313  0.00  0.00     0.088 A 
ATOM      7  O   UNL d   1     -50.147  23.775  33.307  0.00  0.00    -0.265 OA
ATOM      8  C   UNL d   1     -50.477  25.389  33.309  0.00  0.00     0.006 A 
ATOM      9  C   UNL d   1     -52.951  23.197  33.314  0.00  0.00     0.042 C 
ATOM     10  C   UNL d   1     -52.042  25.912  33.314  0.00  0.00     0.019 A 
ATOM     11  C   UNL d   1     -50.640  26.202  33.311  0.00  0.00     0.000 A 
ATOM     12  C   UNL d   1     -51.422  26.464  33.313  0.00  0.00     0.002 A 
ENDROOT
TORSDOF 0
ENDMDL
MODEL 2
REMARK VINA RESULT:       6.9      1.093      1.681
REMARK  0 active torsions:
REMARK  status: ('A' for Active; 'I' for Inactive)
ROOT
ATOM      1  C   UNL d   1     -52.347  25.167  33.345  0.00  0.00     0.282 A 
ATOM      2  N   UNL d   1     -52.954  24.605  33.341  0.00  0.00    -0.189 NA
ATOM      3  N   UNL d   1     -51.979  23.558  33.314  0.00  0.00    -0.227 NA
ATOM      4  C   UNL d   1     -51.561  24.924  33.334  0.00  0.00     0.076 A 
ATOM      5  C   UNL d   1     -52.770  23.801  33.325  0.00  0.00     0.166 A 
ATOM      6  C   UNL d   1     -51.377  24.120  33.318  0.00  0.00     0.088 A 
ATOM      7  O   UNL d   1     -52.531  25.971  33.361  0.00  0.00    -0.265 OA
ATOM      8  C   UNL d   1     -50.958  25.485  33.338  0.00  0.00     0.006 A 
ATOM      9  C   UNL d   1     -53.380  23.237  33.321  0.00  0.00     0.042 C 
ATOM     10  C   UNL d   1     -50.590  23.877  33.306  0.00  0.00     0.019 A 
ATOM     11  C   UNL d   1     -50.164  25.244  33.326  0.00  0.00     0.000 A 
ATOM     12  C   UNL d   1     -49.980  24.440  33.310  0.00  0.00     0.002 A 
ENDROOT
TORSDOF 0
ENDMDL
