MODEL 1
REMARK VINA RESULT:       0.8      0.000      0.000
REMARK  7 active torsions:
REMARK  status: ('A' for Active; 'I' for Inactive)
REMARK       I    between atoms: C_3  and  N_1 
REMARK    1  A    between atoms: C_4  and  N_1 
REMARK    2  A    between atoms: C_5  and  N_1 
REMARK    3  A    between atoms: N_2  and  C_7 
REMARK    4  A    between atoms: C_8  and  C_3 
REMARK    5  A    between atoms: C_6  and  C_5 
REMARK    6  A    between atoms: C_9  and  C_6 
REMARK    7  A    between atoms: O_19  and  C_9 
ROOT
ATOM      1  N   UNL d   1      32.381  17.805 -23.882  0.00  0.00    -0.258 N 
ATOM      2  C   UNL d   1      32.829  17.995 -23.208  0.00  0.00     0.266 C 
ATOM      3  O   UNL d   1      33.240  17.440 -22.785  0.00  0.00    -0.267 OA
ENDROOT
BRANCH   1   4
ATOM      4  C   UNL d   1      32.360  17.008 -24.125  0.00  0.00     0.150 A 
ATOM      5  N   UNL d   1      31.935  16.467 -23.689  0.00  0.00    -0.227 NA
ATOM      6  C   UNL d   1      31.922  15.696 -23.936  0.00  0.00     0.101 A 
ATOM      7  C   UNL d   1      32.347  15.453 -24.641  0.00  0.00     0.021 A 
ATOM      8  C   UNL d   1      32.768  15.990 -25.071  0.00  0.00     0.005 A 
ATOM      9  C   UNL d   1      32.785  16.765 -24.829  0.00  0.00     0.037 A 
ENDBRANCH   1   4
BRANCH   1  10
ATOM     10  C   UNL d   1      31.975  18.397 -24.288  0.00  0.00     0.090 C 
BRANCH  10  11
ATOM     11  C   UNL d   1      31.360  18.164 -24.828  0.00  0.00     0.087 C 
BRANCH  11  12
ATOM     12  C   UNL d   1      30.647  18.590 -24.863  0.00  0.00     0.297 C 
ATOM     13  O   UNL d   1      30.643  19.353 -25.097  0.00  0.00    -0.259 OA
BRANCH  12  14
ATOM     14  O   UNL d   1      29.949  18.210 -24.654  0.00  0.00    -0.296 OA
ATOM     15  C   UNL d   1      29.219  18.579 -24.761  0.00  0.00     0.185 C 
ENDBRANCH  12  14
ENDBRANCH  11  12
ENDBRANCH  10  11
ENDBRANCH   1  10
BRANCH   2  16
ATOM     16  C   UNL d   1      32.849  18.797 -22.966  0.00  0.00     0.057 A 
ATOM     17  C   UNL d   1      33.183  19.357 -23.422  0.00  0.00     0.006 A 
ATOM     18  C   UNL d   1      33.205  20.158 -23.184  0.00  0.00     0.024 A 
ATOM     19  C   UNL d   1      32.882  20.368 -22.480  0.00  0.00     0.127 A 
ATOM     20  C   UNL d   1      32.531  19.783 -21.999  0.00  0.00     0.024 A 
ATOM     21  C   UNL d   1      32.517  19.013 -22.242  0.00  0.00     0.006 A 
BRANCH  19  22
ATOM     22  N   UNL d   1      32.911  21.158 -22.259  0.00  0.00    -0.114 N 
ATOM     23  O   UNL d   1      32.986  21.804 -22.785  0.00  0.00    -0.532 OA
ATOM     24  O   UNL d   1      32.870  21.416 -21.476  0.00  0.00    -0.532 OA
ENDBRANCH  19  22
ENDBRANCH   2  16
TORSDOF 7
ENDMDL
MODEL 2
REMARK VINA RESULT:       2.8      1.990      4.765
REMARK  7 active torsions:
REMARK  status: ('A' for Active; 'I' for Inactive)
REMARK       I    between atoms: C_3  and  N_1 
REMARK    1  A    between atoms: C_4  and  N_1 
REMARK    2  A    between atoms: C_5  and  N_1 
REMARK    3  A    between atoms: N_2  and  C_7 
REMARK    4  A    between atoms: C_8  and  C_3 
REMARK    5  A    between atoms: C_6  and  C_5 
REMARK    6  A    between atoms: C_9  and  C_6 
REMARK    7  A    between atoms: O_19  and  C_9 
ROOT
ATOM      1  N   UNL d   1      32.745  21.184 -21.892  0.00  0.00    -0.258 N 
ATOM      2  C   UNL d   1      32.682  20.366 -21.763  0.00  0.00     0.266 C 
ATOM      3  O   UNL d   1      32.583  20.046 -21.026  0.00  0.00    -0.267 OA
ENDROOT
BRANCH   1   4
ATOM      4  C   UNL d   1      32.705  21.689 -21.230  0.00  0.00     0.150 A 
ATOM      5  N   UNL d   1      32.246  22.361 -21.264  0.00  0.00    -0.227 NA
ATOM      6  C   UNL d   1      32.216  22.842 -20.614  0.00  0.00     0.101 A 
ATOM      7  C   UNL d   1      32.657  22.650 -19.904  0.00  0.00     0.021 A 
ATOM      8  C   UNL d   1      33.112  21.984 -19.871  0.00  0.00     0.005 A 
ATOM      9  C   UNL d   1      33.147  21.497 -20.519  0.00  0.00     0.037 A 
ENDBRANCH   1   4
BRANCH   1  10
ATOM     10  C   UNL d   1      32.845  21.475 -22.658  0.00  0.00     0.090 C 
BRANCH  10  11
ATOM     11  C   UNL d   1      32.506  22.232 -22.847  0.00  0.00     0.087 C 
BRANCH  11  12
ATOM     12  C   UNL d   1      32.758  22.649 -23.521  0.00  0.00     0.297 C 
ATOM     13  O   UNL d   1      33.221  23.295 -23.447  0.00  0.00    -0.259 OA
BRANCH  12  14
ATOM     14  O   UNL d   1      32.521  22.384 -24.262  0.00  0.00    -0.296 OA
ATOM     15  C   UNL d   1      32.573  22.875 -24.923  0.00  0.00     0.185 C 
ENDBRANCH  12  14
ENDBRANCH  11  12
ENDBRANCH  10  11
ENDBRANCH   1  10
BRANCH   2  16
ATOM     16  C   UNL d   1      32.722  19.861 -22.431  0.00  0.00     0.057 A 
ATOM     17  C   UNL d   1      33.197  20.030 -23.047  0.00  0.00     0.006 A 
ATOM     18  C   UNL d   1      33.240  19.529 -23.714  0.00  0.00     0.024 A 
ATOM     19  C   UNL d   1      32.794  18.862 -23.735  0.00  0.00     0.127 A 
ATOM     20  C   UNL d   1      32.295  18.682 -23.090  0.00  0.00     0.024 A 
ATOM     21  C   UNL d   1      32.264  19.175 -22.453  0.00  0.00     0.006 A 
BRANCH  19  22
ATOM     22  N   UNL d   1      32.847  18.379 -24.398  0.00  0.00    -0.114 N 
ATOM     23  O   UNL d   1      32.528  17.609 -24.461  0.00  0.00    -0.532 OA
ATOM     24  O   UNL d   1      33.230  18.601 -25.094  0.00  0.00    -0.532 OA
ENDBRANCH  19  22
ENDBRANCH   2  16
TORSDOF 7
ENDMDL
MODEL 3
REMARK VINA RESULT:       3.1      1.628      4.552
REMARK  7 active torsions:
REMARK  status: ('A' for Active; 'I' for Inactive)
REMARK       I    between atoms: C_3  and  N_1 
REMARK    1  A    between atoms: C_4  and  N_1 
REMARK    2  A    between atoms: C_5  and  N_1 
REMARK    3  A    between atoms: N_2  and  C_7 
REMARK    4  A    between atoms: C_8  and  C_3 
REMARK    5  A    between atoms: C_6  and  C_5 
REMARK    6  A    between atoms: C_9  and  C_6 
REMARK    7  A    between atoms: O_19  and  C_9 
ROOT
ATOM      1  N   UNL d   1      32.915  20.734 -23.616  0.00  0.00    -0.258 N 
ATOM      2  C   UNL d   1      32.718  20.194 -24.215  0.00  0.00     0.266 C 
ATOM      3  O   UNL d   1      32.629  20.413 -24.990  0.00  0.00    -0.267 OA
ENDROOT
BRANCH   1   4
ATOM      4  C   UNL d   1      33.024  21.533 -23.830  0.00  0.00     0.150 A 
ATOM      5  N   UNL d   1      33.026  21.741 -24.618  0.00  0.00    -0.227 NA
ATOM      6  C   UNL d   1      33.133  22.519 -24.812  0.00  0.00     0.101 A 
ATOM      7  C   UNL d   1      33.240  23.114 -24.202  0.00  0.00     0.021 A 
ATOM      8  C   UNL d   1      33.237  22.907 -23.422  0.00  0.00     0.005 A 
ATOM      9  C   UNL d   1      33.131  22.127 -23.221  0.00  0.00     0.037 A 
ENDBRANCH   1   4
BRANCH   1  10
ATOM     10  C   UNL d   1      32.998  20.475 -22.837  0.00  0.00     0.090 C 
BRANCH  10  11
ATOM     11  C   UNL d   1      32.768  21.004 -22.212  0.00  0.00     0.087 C 
BRANCH  11  12
ATOM     12  C   UNL d   1      32.590  20.709 -21.455  0.00  0.00     0.297 C 
ATOM     13  O   UNL d   1      33.009  20.103 -21.148  0.00  0.00    -0.259 OA
BRANCH  12  14
ATOM     14  O   UNL d   1      31.976  21.054 -21.031  0.00  0.00    -0.296 OA
ATOM     15  C   UNL d   1      32.055  21.212 -20.225  0.00  0.00     0.185 C 
ENDBRANCH  12  14
ENDBRANCH  11  12
ENDBRANCH  10  11
ENDBRANCH   1  10
BRANCH   2  16
ATOM     16  C   UNL d   1      32.610  19.392 -23.998  0.00  0.00     0.057 A 
ATOM     17  C   UNL d   1      31.907  19.031 -24.094  0.00  0.00     0.006 A 
ATOM     18  C   UNL d   1      31.795  18.231 -23.879  0.00  0.00     0.024 A 
ATOM     19  C   UNL d   1      32.408  17.817 -23.568  0.00  0.00     0.127 A 
ATOM     20  C   UNL d   1      33.147  18.193 -23.466  0.00  0.00     0.024 A 
ATOM     21  C   UNL d   1      33.240  18.966 -23.678  0.00  0.00     0.006 A 
BRANCH  19  22
ATOM     22  N   UNL d   1      32.283  17.032 -23.361  0.00  0.00    -0.114 N 
ATOM     23  O   UNL d   1      31.535  16.672 -23.266  0.00  0.00    -0.532 OA
ATOM     24  O   UNL d   1      32.893  16.494 -23.220  0.00  0.00    -0.532 OA
ENDBRANCH  19  22
ENDBRANCH   2  16
TORSDOF 7
ENDMDL
