MODEL 1
REMARK VINA RESULT:      14.2      0.000      0.000
REMARK  5 active torsions:
REMARK  status: ('A' for Active; 'I' for Inactive)
REMARK       I    between atoms: C_2  and  N_1 
REMARK    1  A    between atoms: C_5  and  C_2 
REMARK    2  A    between atoms: S_7  and  C_3 
REMARK    3  A    between atoms: N_4  and  C_8 
REMARK    4  A    between atoms: C_17  and  S_7 
REMARK    5  A    between atoms: C_18  and  C_17 
ROOT
ATOM      1  N   UNL d   1      46.165 -18.345  43.647  0.00  0.00    -0.251 N 
ATOM      2  C   UNL d   1      46.161 -18.247  42.828  0.00  0.00     0.266 C 
ATOM      3  C   UNL d   1      46.015 -17.758  44.213  0.00  0.00     0.182 A 
ATOM      4  N   UNL d   1      46.078 -18.104  44.955  0.00  0.00    -0.219 NA
ATOM      5  O   UNL d   1      45.998 -17.507  42.498  0.00  0.00    -0.267 OA
ATOM      6  C   UNL d   1      46.320 -19.058  44.049  0.00  0.00     0.106 A 
ATOM      7  C   UNL d   1      46.265 -18.902  44.862  0.00  0.00     0.120 A 
ENDROOT
BRANCH   3   8
ATOM      8  S   UNL d   1      45.837 -16.972  44.047  0.00  0.00    -0.049 SA
BRANCH   8   9
ATOM      9  C   UNL d   1      45.865 -16.414  44.644  0.00  0.00     0.038 C 
BRANCH   9  10
ATOM     10  C   UNL d   1      45.710 -15.626  44.478  0.00  0.00     0.007 A 
ATOM     11  C   UNL d   1      46.319 -15.117  44.260  0.00  0.00     0.002 A 
ATOM     12  C   UNL d   1      46.165 -14.324  44.093  0.00  0.00     0.024 A 
ATOM     13  C   UNL d   1      45.395 -14.044  44.146  0.00  0.00     0.127 A 
ATOM     14  C   UNL d   1      44.779 -14.541  44.363  0.00  0.00     0.024 A 
ATOM     15  C   UNL d   1      44.933 -15.337  44.530  0.00  0.00     0.002 A 
BRANCH  13  16
ATOM     16  N   UNL d   1      45.233 -13.248  43.980  0.00  0.00    -0.114 N 
ATOM     17  O   UNL d   1      44.487 -13.026  43.661  0.00  0.00    -0.532 OA
ATOM     18  O   UNL d   1      45.802 -12.657  44.125  0.00  0.00    -0.532 OA
ENDBRANCH  13  16
ENDBRANCH   9  10
ENDBRANCH   8   9
ENDBRANCH   3   8
BRANCH   2  19
ATOM     19  C   UNL d   1      46.323 -18.892  42.332  0.00  0.00     0.057 A 
ATOM     20  C   UNL d   1      46.485 -18.759  41.528  0.00  0.00     0.005 A 
ATOM     21  C   UNL d   1      46.485 -17.991  41.227  0.00  0.00     0.000 C 
ATOM     22  C   UNL d   1      46.642 -19.399  41.048  0.00  0.00     0.000 A 
ATOM     23  C   UNL d   1      46.640 -20.172  41.360  0.00  0.00     0.000 A 
ATOM     24  C   UNL d   1      46.480 -20.301  42.152  0.00  0.00     0.000 A 
ATOM     25  C   UNL d   1      46.321 -19.657  42.641  0.00  0.00     0.005 A 
ENDBRANCH   2  19
TORSDOF 5
ENDMDL
