MODEL 1
REMARK VINA RESULT:      91.6      0.000      0.000
REMARK  8 active torsions:
REMARK  status: ('A' for Active; 'I' for Inactive)
REMARK    1  A    between atoms: C_22  and  N_1 
REMARK       I    between atoms: N_8  and  C_12 
REMARK    2  A    between atoms: C_12  and  C_27 
REMARK    3  A    between atoms: C_23  and  N_13 
REMARK    4  A    between atoms: C_30  and  C_22 
REMARK    5  A    between atoms: C_26  and  C_23 
REMARK    6  A    between atoms: C_27  and  C_31 
REMARK    7  A    between atoms: C_32  and  C_30 
REMARK    8  A    between atoms: C_31  and  C_32 
ROOT
ATOM      1  C   UNL d   1     -55.001-102.202 -42.167  0.00  0.00     0.002 C 
ENDROOT
BRANCH   1   2
ATOM      2  C   UNL d   1     -55.346-101.458 -42.288  0.00  0.00     0.005 C 
BRANCH   2   3
ATOM      3  C   UNL d   1     -54.871-100.805 -42.483  0.00  0.00     0.061 C 
BRANCH   3   4
ATOM      4  C   UNL d   1     -55.213-100.048 -42.535  0.00  0.00     0.265 C 
ATOM      5  N   UNL d   1     -55.768 -99.877 -43.132  0.00  0.00    -0.269 N 
ATOM      6  C   UNL d   1     -56.102 -99.125 -43.177  0.00  0.00     0.102 A 
ATOM      7  C   UNL d   1     -55.984-100.454 -43.678  0.00  0.00     0.102 A 
ATOM      8  C   UNL d   1     -56.655 -98.951 -43.770  0.00  0.00     0.100 A 
ATOM      9  N   UNL d   1     -56.870 -99.529 -44.316  0.00  0.00    -0.300 N 
ATOM     10  C   UNL d   1     -56.536-100.279 -44.271  0.00  0.00     0.100 A 
ATOM     11  O   UNL d   1     -55.003 -99.461 -41.992  0.00  0.00    -0.267 OA
BRANCH   9  12
ATOM     12  C   UNL d   1     -57.420 -99.355 -44.906  0.00  0.00     0.080 C 
BRANCH  12  13
ATOM     13  C   UNL d   1     -58.224 -99.349 -44.732  0.00  0.00     0.018 A 
ATOM     14  C   UNL d   1     -58.722 -99.907 -45.077  0.00  0.00     0.002 A 
ATOM     15  C   UNL d   1     -59.534 -99.904 -44.904  0.00  0.00     0.000 A 
ATOM     16  C   UNL d   1     -59.841 -99.340 -44.386  0.00  0.00     0.000 A 
ATOM     17  C   UNL d   1     -59.336 -98.779 -44.041  0.00  0.00     0.000 A 
ATOM     18  C   UNL d   1     -58.531 -98.785 -44.214  0.00  0.00     0.002 A 
ENDBRANCH  12  13
ENDBRANCH   9  12
ENDBRANCH   3   4
ENDBRANCH   2   3
ENDBRANCH   1   2
BRANCH   1  19
ATOM     19  C   UNL d   1     -55.128-102.613 -41.462  0.00  0.00     0.019 C 
BRANCH  19  20
ATOM     20  C   UNL d   1     -55.888-102.840 -41.240  0.00  0.00     0.085 C 
BRANCH  20  21
ATOM     21  N   UNL d   1     -56.102-102.844 -40.441  0.00  0.00    -0.249 N 
ATOM     22  C   UNL d   1     -55.516-102.853 -39.851  0.00  0.00     0.268 A 
ATOM     23  C   UNL d   1     -55.731-102.857 -39.057  0.00  0.00     0.076 A 
ATOM     24  O   UNL d   1     -54.719-102.858 -40.065  0.00  0.00    -0.267 OA
ATOM     25  C   UNL d   1     -55.148-102.866 -38.475  0.00  0.00     0.033 A 
ATOM     26  C   UNL d   1     -56.528-102.852 -38.843  0.00  0.00     0.090 A 
ATOM     27  C   UNL d   1     -55.361-102.871 -37.676  0.00  0.00     0.119 A 
ATOM     28  O   UNL d   1     -54.912-102.879 -36.985  0.00  0.00    -0.300 OA
ATOM     29  C   UNL d   1     -56.158-102.866 -37.463  0.00  0.00     0.121 A 
ATOM     30  C   UNL d   1     -55.432-102.880 -36.350  0.00  0.00     0.304 A 
ATOM     31  O   UNL d   1     -56.197-102.871 -36.641  0.00  0.00    -0.299 OA
ATOM     32  C   UNL d   1     -56.741-102.856 -38.048  0.00  0.00     0.046 A 
ATOM     33  N   UNL d   1     -57.110-102.843 -39.424  0.00  0.00    -0.218 NA
ATOM     34  C   UNL d   1     -56.899-102.839 -40.227  0.00  0.00     0.208 A 
ATOM     35  S   UNL d   1     -57.490-102.830 -40.811  0.00  0.00    -0.038 SA
ENDBRANCH  20  21
ENDBRANCH  19  20
ENDBRANCH   1  19
TORSDOF 8
ENDMDL
