MODEL 1
REMARK VINA RESULT:      20.2      0.000      0.000
REMARK  5 active torsions:
REMARK  status: ('A' for Active; 'I' for Inactive)
REMARK    1  A    between atoms: N_2  and  C_1 
REMARK    2  A    between atoms: C_6  and  C_1 
REMARK    3  A    between atoms: O_4  and  N_2 
REMARK    4  A    between atoms: C_3  and  O_4 
REMARK    5  A    between atoms: C_5  and  C_3 
ROOT
ATOM      1  O   UNL d   1     -56.087 -99.415 -44.900  0.00  0.00    -0.168 OA
ENDROOT
BRANCH   1   2
ATOM      2  C   UNL d   1     -55.291 -99.562 -44.484  0.00  0.00     0.319 C 
ATOM      3  O   UNL d   1     -54.711 -98.889 -44.356  0.00  0.00    -0.257 OA
BRANCH   2   4
ATOM      4  C   UNL d   1     -55.097-100.324 -44.222  0.00  0.00     0.066 A 
ATOM      5  C   UNL d   1     -55.075-100.945 -44.774  0.00  0.00     0.012 A 
ATOM      6  C   UNL d   1     -54.879-101.705 -44.500  0.00  0.00     0.035 A 
ATOM      7 BR   UNL d   1     -54.858-102.324 -45.051  0.00  0.00    -0.049 Br
ATOM      8  C   UNL d   1     -54.712-101.845 -43.706  0.00  0.00     0.007 A 
ATOM      9  C   UNL d   1     -54.742-101.208 -43.185  0.00  0.00     0.001 A 
ATOM     10  C   UNL d   1     -54.930-100.463 -43.431  0.00  0.00     0.005 A 
ENDBRANCH   2   4
ENDBRANCH   1   2
BRANCH   1  11
ATOM     11  N   UNL d   1     -56.599 -98.839 -44.637  0.00  0.00    -0.100 NA
BRANCH  11  12
ATOM     12  C   UNL d   1     -57.371 -98.794 -44.908  0.00  0.00     0.228 C 
ATOM     13  N   UNL d   1     -57.510 -98.762 -45.719  0.00  0.00    -0.123 N 
BRANCH  12  14
ATOM     14  C   UNL d   1     -58.006 -98.782 -44.394  0.00  0.00     0.121 A 
ATOM     15  N   UNL d   1     -57.883 -98.781 -43.589  0.00  0.00    -0.241 NA
ATOM     16  C   UNL d   1     -58.535 -98.767 -43.070  0.00  0.00     0.099 A 
ATOM     17  C   UNL d   1     -59.302 -98.756 -43.376  0.00  0.00     0.021 A 
ATOM     18  C   UNL d   1     -59.424 -98.757 -44.196  0.00  0.00     0.003 A 
ATOM     19  C   UNL d   1     -58.773 -98.770 -44.700  0.00  0.00     0.022 A 
ENDBRANCH  12  14
ENDBRANCH  11  12
ENDBRANCH   1  11
TORSDOF 5
ENDMDL
MODEL 2
REMARK VINA RESULT:      21.4      1.667      4.152
REMARK  5 active torsions:
REMARK  status: ('A' for Active; 'I' for Inactive)
REMARK    1  A    between atoms: N_2  and  C_1 
REMARK    2  A    between atoms: C_6  and  C_1 
REMARK    3  A    between atoms: O_4  and  N_2 
REMARK    4  A    between atoms: C_3  and  O_4 
REMARK    5  A    between atoms: C_5  and  C_3 
ROOT
ATOM      1  O   UNL d   1     -56.774 -99.025 -44.546  0.00  0.00    -0.168 OA
ENDROOT
BRANCH   1   2
ATOM      2  C   UNL d   1     -57.537 -98.869 -45.018  0.00  0.00     0.319 C 
ATOM      3  O   UNL d   1     -57.509 -98.756 -45.907  0.00  0.00    -0.257 OA
BRANCH   2   4
ATOM      4  C   UNL d   1     -58.265 -98.831 -44.624  0.00  0.00     0.066 A 
ATOM      5  C   UNL d   1     -58.271 -98.812 -43.793  0.00  0.00     0.012 A 
ATOM      6  C   UNL d   1     -59.007 -98.774 -43.408  0.00  0.00     0.035 A 
ATOM      7 BR   UNL d   1     -59.012 -98.755 -42.579  0.00  0.00    -0.049 Br
ATOM      8  C   UNL d   1     -59.712 -98.755 -43.831  0.00  0.00     0.007 A 
ATOM      9  C   UNL d   1     -59.671 -98.775 -44.654  0.00  0.00     0.001 A 
ATOM     10  C   UNL d   1     -58.968 -98.812 -45.046  0.00  0.00     0.005 A 
ENDBRANCH   2   4
ENDBRANCH   1   2
BRANCH   1  11
ATOM     11  N   UNL d   1     -56.042 -98.969 -44.898  0.00  0.00    -0.100 NA
BRANCH  11  12
ATOM     12  C   UNL d   1     -55.370 -99.274 -44.541  0.00  0.00     0.228 C 
ATOM     13  N   UNL d   1     -54.834 -98.757 -44.191  0.00  0.00    -0.123 N 
BRANCH  12  14
ATOM     14  C   UNL d   1     -55.220-100.077 -44.524  0.00  0.00     0.121 A 
ATOM     15  N   UNL d   1     -54.901-100.449 -45.174  0.00  0.00    -0.241 NA
ATOM     16  C   UNL d   1     -54.750-101.268 -45.151  0.00  0.00     0.099 A 
ATOM     17  C   UNL d   1     -54.926-101.697 -44.467  0.00  0.00     0.021 A 
ATOM     18  C   UNL d   1     -55.251-101.316 -43.807  0.00  0.00     0.003 A 
ATOM     19  C   UNL d   1     -55.396-100.506 -43.841  0.00  0.00     0.022 A 
ENDBRANCH  12  14
ENDBRANCH  11  12
ENDBRANCH   1  11
TORSDOF 5
ENDMDL
