MODEL 1
REMARK VINA RESULT:      -0.3      0.000      0.000
REMARK  4 active torsions:
REMARK  status: ('A' for Active; 'I' for Inactive)
REMARK    1  A    between atoms: C_11  and  C_4 
REMARK    2  A    between atoms: N_10  and  C_7 
REMARK    3  A    between atoms: C_14  and  N_10 
REMARK    4  A    between atoms: C_21  and  C_14 
ROOT
ATOM      1  C   UNL d   1      33.190  20.751 -23.756  0.00  0.00     0.186 A 
ATOM      2  N   UNL d   1      33.170  21.241 -24.427  0.00  0.00    -0.193 N 
ATOM      3  N   UNL d   1      33.214  21.099 -22.995  0.00  0.00    -0.206 NA
ATOM      4  C   UNL d   1      33.182  19.968 -24.009  0.00  0.00     0.140 A 
ATOM      5  N   UNL d   1      33.149  20.751 -25.096  0.00  0.00    -0.058 NA
ATOM      6  N   UNL d   1      33.156  19.961 -24.841  0.00  0.00    -0.127 NA
ATOM      7  C   UNL d   1      33.217  21.923 -22.910  0.00  0.00     0.166 A 
ATOM      8  C   UNL d   1      33.196  22.401 -23.588  0.00  0.00     0.054 A 
ATOM      9  C   UNL d   1      33.173  22.061 -24.340  0.00  0.00     0.089 A 
ATOM     10  C   UNL d   1      33.200  23.219 -23.502  0.00  0.00     0.005 A 
ATOM     11  C   UNL d   1      33.153  22.546 -25.008  0.00  0.00     0.019 A 
ATOM     12  C   UNL d   1      33.179  23.702 -24.169  0.00  0.00     0.000 A 
ATOM     13  C   UNL d   1      33.156  23.366 -24.922  0.00  0.00     0.002 A 
ENDROOT
BRANCH   7  14
ATOM     14  N   UNL d   1      33.240  22.267 -22.161  0.00  0.00    -0.225 NA
BRANCH  14  15
ATOM     15  C   UNL d   1      32.622  22.139 -21.638  0.00  0.00     0.101 C 
BRANCH  15  16
ATOM     16  C   UNL d   1      32.702  22.345 -20.843  0.00  0.00     0.019 A 
ATOM     17  C   UNL d   1      33.125  21.859 -20.327  0.00  0.00     0.002 A 
ATOM     18  C   UNL d   1      33.205  22.065 -19.532  0.00  0.00     0.000 A 
ATOM     19  C   UNL d   1      32.857  22.764 -19.255  0.00  0.00     0.000 A 
ATOM     20  C   UNL d   1      32.432  23.252 -19.775  0.00  0.00     0.000 A 
ATOM     21  C   UNL d   1      32.358  23.036 -20.567  0.00  0.00     0.002 A 
ENDBRANCH  15  16
ENDBRANCH  14  15
ENDBRANCH   7  14
BRANCH   4  22
ATOM     22  C   UNL d   1      33.197  19.309 -23.523  0.00  0.00     0.023 A 
ATOM     23  C   UNL d   1      33.187  18.557 -23.859  0.00  0.00     0.004 A 
ATOM     24  C   UNL d   1      33.202  17.886 -23.368  0.00  0.00     0.030 A 
ATOM     25  C   UNL d   1      33.226  17.975 -22.554  0.00  0.00     0.140 A 
ATOM     26  C   UNL d   1      33.235  18.739 -22.225  0.00  0.00     0.030 A 
ATOM     27  F   UNL d   1      33.240  17.316 -22.069  0.00  0.00    -0.204 F 
ATOM     28  C   UNL d   1      33.220  19.398 -22.710  0.00  0.00     0.004 A 
ENDBRANCH   4  22
TORSDOF 4
ENDMDL
MODEL 2
REMARK VINA RESULT:      -0.2      3.608      5.450
REMARK  4 active torsions:
REMARK  status: ('A' for Active; 'I' for Inactive)
REMARK    1  A    between atoms: C_11  and  C_4 
REMARK    2  A    between atoms: N_10  and  C_7 
REMARK    3  A    between atoms: C_14  and  N_10 
REMARK    4  A    between atoms: C_21  and  C_14 
ROOT
ATOM      1  C   UNL d   1      30.349  16.617 -24.232  0.00  0.00     0.186 A 
ATOM      2  N   UNL d   1      30.763  16.032 -24.654  0.00  0.00    -0.193 N 
ATOM      3  N   UNL d   1      30.779  17.206 -23.821  0.00  0.00    -0.206 NA
ATOM      4  C   UNL d   1      29.543  16.476 -24.319  0.00  0.00     0.140 A 
ATOM      5  N   UNL d   1      30.201  15.529 -25.002  0.00  0.00    -0.058 NA
ATOM      6  N   UNL d   1      29.445  15.801 -24.796  0.00  0.00    -0.127 NA
ATOM      7  C   UNL d   1      31.607  17.207 -23.833  0.00  0.00     0.166 A 
ATOM      8  C   UNL d   1      32.007  16.618 -24.259  0.00  0.00     0.054 A 
ATOM      9  C   UNL d   1      31.587  16.036 -24.665  0.00  0.00     0.089 A 
ATOM     10  C   UNL d   1      32.830  16.620 -24.270  0.00  0.00     0.005 A 
ATOM     11  C   UNL d   1      31.996  15.453 -25.086  0.00  0.00     0.019 A 
ATOM     12  C   UNL d   1      33.237  16.040 -24.689  0.00  0.00     0.000 A 
ATOM     13  C   UNL d   1      32.820  15.456 -25.097  0.00  0.00     0.002 A 
ENDROOT
BRANCH   7  14
ATOM     14  N   UNL d   1      32.031  17.787 -23.428  0.00  0.00    -0.225 NA
BRANCH  14  15
ATOM     15  C   UNL d   1      31.805  18.573 -23.493  0.00  0.00     0.101 C 
BRANCH  15  16
ATOM     16  C   UNL d   1      32.284  19.169 -23.182  0.00  0.00     0.019 A 
ATOM     17  C   UNL d   1      32.545  19.128 -22.400  0.00  0.00     0.002 A 
ATOM     18  C   UNL d   1      33.023  19.724 -22.089  0.00  0.00     0.000 A 
ATOM     19  C   UNL d   1      33.240  20.365 -22.567  0.00  0.00     0.000 A 
ATOM     20  C   UNL d   1      32.977  20.404 -23.354  0.00  0.00     0.000 A 
ATOM     21  C   UNL d   1      32.499  19.803 -23.654  0.00  0.00     0.002 A 
ENDBRANCH  15  16
ENDBRANCH  14  15
ENDBRANCH   7  14
BRANCH   4  22
ATOM     22  C   UNL d   1      28.942  16.924 -23.991  0.00  0.00     0.023 A 
ATOM     23  C   UNL d   1      28.564  16.660 -23.308  0.00  0.00     0.004 A 
ATOM     24  C   UNL d   1      27.953  17.113 -22.973  0.00  0.00     0.030 A 
ATOM     25  C   UNL d   1      27.729  17.819 -23.322  0.00  0.00     0.140 A 
ATOM     26  C   UNL d   1      28.116  18.077 -24.012  0.00  0.00     0.030 A 
ATOM     27  F   UNL d   1      27.127  18.267 -22.994  0.00  0.00    -0.204 F 
ATOM     28  C   UNL d   1      28.717  17.629 -24.340  0.00  0.00     0.004 A 
ENDBRANCH   4  22
TORSDOF 4
ENDMDL
