MODEL 1
REMARK VINA RESULT:      -5.5      0.000      0.000
REMARK  2 active torsions:
REMARK  status: ('A' for Active; 'I' for Inactive)
REMARK    1  A    between atoms: C_6  and  C_3 
REMARK    2  A    between atoms: C_9  and  C_6 
ROOT
ATOM      1  N   UNL d   1     -41.420-123.346 -53.341  0.00  0.00    -0.225 NA
ATOM      2  N   UNL d   1     -41.419-122.013 -53.217  0.00  0.00    -0.225 NA
ATOM      3  C   UNL d   1     -41.484-122.635 -53.751  0.00  0.00     0.163 A 
ATOM      4  C   UNL d   1     -41.316-123.169 -52.564  0.00  0.00     0.101 A 
ATOM      5  C   UNL d   1     -41.316-122.332 -52.486  0.00  0.00     0.101 A 
ATOM      6  C   UNL d   1     -41.222-123.635 -51.904  0.00  0.00     0.021 A 
ATOM      7  C   UNL d   1     -41.220-121.996 -51.752  0.00  0.00     0.021 A 
ATOM      8  C   UNL d   1     -41.123-123.301 -51.148  0.00  0.00     0.002 A 
ATOM      9  C   UNL d   1     -41.123-122.463 -51.070  0.00  0.00     0.002 A 
ENDROOT
BRANCH   3  10
ATOM     10  C   UNL d   1     -41.595-122.559 -54.565  0.00  0.00     0.039 C 
BRANCH  10  11
ATOM     11  C   UNL d   1     -42.192-122.082 -54.864  0.00  0.00     0.003 C 
ATOM     12  C   UNL d   1     -42.253-121.942 -55.674  0.00  0.00     0.000 C 
ENDBRANCH  10  11
ENDBRANCH   3  10
TORSDOF 2
ENDMDL
MODEL 2
REMARK VINA RESULT:      -5.0      0.564      3.141
REMARK  2 active torsions:
REMARK  status: ('A' for Active; 'I' for Inactive)
REMARK    1  A    between atoms: C_6  and  C_3 
REMARK    2  A    between atoms: C_9  and  C_6 
ROOT
ATOM      1  N   UNL d   1     -41.775-121.785 -53.051  0.00  0.00    -0.225 NA
ATOM      2  N   UNL d   1     -41.133-122.950 -53.206  0.00  0.00    -0.225 NA
ATOM      3  C   UNL d   1     -41.333-122.362 -52.666  0.00  0.00     0.163 A 
ATOM      4  C   UNL d   1     -41.851-122.010 -53.820  0.00  0.00     0.101 A 
ATOM      5  C   UNL d   1     -41.448-122.741 -53.917  0.00  0.00     0.101 A 
ATOM      6  C   UNL d   1     -42.224-121.667 -54.456  0.00  0.00     0.021 A 
ATOM      7  C   UNL d   1     -41.435-123.099 -54.646  0.00  0.00     0.021 A 
ATOM      8  C   UNL d   1     -42.216-122.027 -55.207  0.00  0.00     0.002 A 
ATOM      9  C   UNL d   1     -41.813-122.758 -55.305  0.00  0.00     0.002 A 
ENDROOT
BRANCH   3  10
ATOM     10  C   UNL d   1     -41.123-122.353 -51.869  0.00  0.00     0.039 C 
BRANCH  10  11
ATOM     11  C   UNL d   1     -41.504-122.838 -51.329  0.00  0.00     0.003 C 
ATOM     12  C   UNL d   1     -41.292-122.831 -50.532  0.00  0.00     0.000 C 
ENDBRANCH  10  11
ENDBRANCH   3  10
TORSDOF 2
ENDMDL
MODEL 3
REMARK VINA RESULT:      -4.2      1.993      2.866
REMARK  2 active torsions:
REMARK  status: ('A' for Active; 'I' for Inactive)
REMARK    1  A    between atoms: C_6  and  C_3 
REMARK    2  A    between atoms: C_9  and  C_6 
ROOT
ATOM      1  N   UNL d   1     -42.363-122.321 -50.749  0.00  0.00    -0.225 NA
ATOM      2  N   UNL d   1     -41.146-122.815 -50.490  0.00  0.00    -0.225 NA
ATOM      3  C   UNL d   1     -41.609-122.439 -51.056  0.00  0.00     0.163 A 
ATOM      4  C   UNL d   1     -42.370-122.620 -50.002  0.00  0.00     0.101 A 
ATOM      5  C   UNL d   1     -41.605-122.930 -49.840  0.00  0.00     0.101 A 
ATOM      6  C   UNL d   1     -42.951-122.662 -49.435  0.00  0.00     0.021 A 
ATOM      7  C   UNL d   1     -41.454-123.269 -49.117  0.00  0.00     0.021 A 
ATOM      8  C   UNL d   1     -42.806-123.007 -48.691  0.00  0.00     0.002 A 
ATOM      9  C   UNL d   1     -42.041-123.318 -48.529  0.00  0.00     0.002 A 
ENDROOT
BRANCH   3  10
ATOM     10  C   UNL d   1     -41.359-122.216 -51.810  0.00  0.00     0.039 C 
BRANCH  10  11
ATOM     11  C   UNL d   1     -41.189-122.782 -52.379  0.00  0.00     0.003 C 
ATOM     12  C   UNL d   1     -41.124-122.573 -53.175  0.00  0.00     0.000 C 
ENDBRANCH  10  11
ENDBRANCH   3  10
TORSDOF 2
ENDMDL
MODEL 4
REMARK VINA RESULT:      -3.9      1.598      3.353
REMARK  2 active torsions:
REMARK  status: ('A' for Active; 'I' for Inactive)
REMARK    1  A    between atoms: C_6  and  C_3 
REMARK    2  A    between atoms: C_9  and  C_6 
ROOT
ATOM      1  N   UNL d   1     -41.661-123.610 -50.984  0.00  0.00    -0.225 NA
ATOM      2  N   UNL d   1     -41.684-122.272 -51.039  0.00  0.00    -0.225 NA
ATOM      3  C   UNL d   1     -41.790-122.923 -50.549  0.00  0.00     0.163 A 
ATOM      4  C   UNL d   1     -41.477-123.389 -51.735  0.00  0.00     0.101 A 
ATOM      5  C   UNL d   1     -41.491-122.549 -51.770  0.00  0.00     0.101 A 
ATOM      6  C   UNL d   1     -41.296-123.817 -52.402  0.00  0.00     0.021 A 
ATOM      7  C   UNL d   1     -41.323-122.173 -52.470  0.00  0.00     0.021 A 
ATOM      8  C   UNL d   1     -41.123-123.441 -53.125  0.00  0.00     0.002 A 
ATOM      9  C   UNL d   1     -41.137-122.601 -53.159  0.00  0.00     0.002 A 
ENDROOT
BRANCH   3  10
ATOM     10  C   UNL d   1     -41.994-122.893 -49.750  0.00  0.00     0.039 C 
BRANCH  10  11
ATOM     11  C   UNL d   1     -42.775-122.974 -49.513  0.00  0.00     0.003 C 
ATOM     12  C   UNL d   1     -42.966-123.065 -48.715  0.00  0.00     0.000 C 
ENDBRANCH  10  11
ENDBRANCH   3  10
TORSDOF 2
ENDMDL
