MODEL 1
REMARK VINA RESULT:      22.1      0.000      0.000
REMARK  1 active torsions:
REMARK  status: ('A' for Active; 'I' for Inactive)
REMARK    1  A    between atoms: C_7  and  C_6 
ROOT
ATOM      1  C   UNL d   1      58.721  49.704  50.357  0.00  0.00     0.045 A 
ATOM      2  C   UNL d   1      58.478  49.703  49.568  0.00  0.00     0.196 A 
ATOM      3  C   UNL d   1      58.056  49.705  50.846  0.00  0.00     0.003 A 
ATOM      4  C   UNL d   1      57.650  49.704  49.571  0.00  0.00     0.039 A 
ATOM      5  C   UNL d   1      57.393  49.706  50.352  0.00  0.00     0.003 A 
ATOM      6  C   UNL d   1      59.482  49.703  50.699  0.00  0.00     0.068 A 
ATOM      7  O   UNL d   1      58.962  49.702  48.906  0.00  0.00    -0.287 OA
ATOM      8  C   UNL d   1      58.143  49.706  51.661  0.00  0.00     0.000 A 
ATOM      9  C   UNL d   1      57.097  49.705  48.956  0.00  0.00     0.003 A 
ATOM     10  C   UNL d   1      56.582  49.707  50.517  0.00  0.00     0.000 A 
ATOM     11  C   UNL d   1      59.567  49.704  51.519  0.00  0.00     0.006 A 
ATOM     12  C   UNL d   1      58.887  49.705  51.999  0.00  0.00     0.000 A 
ATOM     13  C   UNL d   1      56.294  49.706  49.124  0.00  0.00     0.000 A 
ATOM     14  C   UNL d   1      56.037  49.707  49.905  0.00  0.00     0.000 A 
ENDROOT
BRANCH   6  15
ATOM     15  C   UNL d   1      60.146  49.701  50.210  0.00  0.00     0.211 C 
ATOM     16  O   UNL d   1      60.900  49.694  50.550  0.00  0.00    -0.644 OA
ATOM     17  O   UNL d   1      60.060  49.706  49.394  0.00  0.00    -0.644 OA
ENDBRANCH   6  15
TORSDOF 1
ENDMDL
MODEL 2
REMARK VINA RESULT:      23.6      1.306      1.923
REMARK  1 active torsions:
REMARK  status: ('A' for Active; 'I' for Inactive)
REMARK    1  A    between atoms: C_7  and  C_6 
ROOT
ATOM      1  C   UNL d   1      59.237  49.700  51.072  0.00  0.00     0.045 A 
ATOM      2  C   UNL d   1      58.539  49.701  51.513  0.00  0.00     0.196 A 
ATOM      3  C   UNL d   1      59.049  49.702  50.268  0.00  0.00     0.003 A 
ATOM      4  C   UNL d   1      57.912  49.703  50.973  0.00  0.00     0.039 A 
ATOM      5  C   UNL d   1      58.224  49.704  50.213  0.00  0.00     0.003 A 
ATOM      6  C   UNL d   1      60.038  49.699  51.306  0.00  0.00     0.068 A 
ATOM      7  O   UNL d   1      58.478  49.700  52.331  0.00  0.00    -0.287 OA
ATOM      8  C   UNL d   1      59.644  49.701  49.704  0.00  0.00     0.000 A 
ATOM      9  C   UNL d   1      57.092  49.705  51.081  0.00  0.00     0.003 A 
ATOM     10  C   UNL d   1      57.715  49.705  49.560  0.00  0.00     0.000 A 
ATOM     11  C   UNL d   1      60.635  49.698  50.738  0.00  0.00     0.006 A 
ATOM     12  C   UNL d   1      60.430  49.700  49.931  0.00  0.00     0.000 A 
ATOM     13  C   UNL d   1      56.591  49.706  50.432  0.00  0.00     0.000 A 
ATOM     14  C   UNL d   1      56.902  49.707  49.671  0.00  0.00     0.000 A 
ENDROOT
BRANCH   6  15
ATOM     15  C   UNL d   1      60.225  49.697  52.109  0.00  0.00     0.211 C 
ATOM     16  O   UNL d   1      61.019  49.686  52.340  0.00  0.00    -0.644 OA
ATOM     17  O   UNL d   1      59.630  49.706  52.673  0.00  0.00    -0.644 OA
ENDBRANCH   6  15
TORSDOF 1
ENDMDL
