MODEL 1
REMARK VINA RESULT:       6.9      0.000      0.000
REMARK  4 active torsions:
REMARK  status: ('A' for Active; 'I' for Inactive)
REMARK    1  A    between atoms: N_4  and  C_1 
REMARK       I    between atoms: C_6  and  N_4 
REMARK    2  A    between atoms: C_10  and  C_6 
REMARK    3  A    between atoms: C_8  and  C_11 
REMARK    4  A    between atoms: C_11  and  C_10 
ROOT
ATOM      1  N   UNL d   1      46.207 -17.639  43.501  0.00  0.00    -0.187 NA
ATOM      2  C   UNL d   1      46.048 -17.265  44.221  0.00  0.00     0.281 C 
ATOM      3  O   UNL d   1      46.002 -17.682  44.952  0.00  0.00    -0.265 OA
ENDROOT
BRANCH   2   4
ATOM      4  C   UNL d   1      45.921 -16.407  44.229  0.00  0.00     0.063 C 
BRANCH   4   5
ATOM      5  C   UNL d   1      45.574 -16.061  44.915  0.00  0.00     0.011 C 
BRANCH   5   6
ATOM      6  C   UNL d   1      45.475 -15.259  44.930  0.00  0.00     0.030 A 
ATOM      7  S   UNL d   1      44.791 -14.891  44.940  0.00  0.00    -0.086 SA
ATOM      8  C   UNL d   1      44.891 -14.073  44.955  0.00  0.00     0.035 A 
ATOM      9  C   UNL d   1      45.679 -13.932  44.954  0.00  0.00     0.007 A 
ATOM     10  C   UNL d   1      46.072 -14.656  44.939  0.00  0.00     0.007 A 
ENDBRANCH   5   6
ENDBRANCH   4   5
ENDBRANCH   2   4
BRANCH   1  11
ATOM     11  C   UNL d   1      46.328 -18.454  43.493  0.00  0.00     0.194 A 
ATOM     12  N   UNL d   1      46.397 -19.005  44.087  0.00  0.00    -0.107 NA
ATOM     13  O   UNL d   1      46.509 -19.718  43.756  0.00  0.00    -0.210 OA
ATOM     14  C   UNL d   1      46.518 -19.667  42.923  0.00  0.00     0.128 A 
ATOM     15  C   UNL d   1      46.404 -18.874  42.764  0.00  0.00     0.068 A 
ATOM     16  C   UNL d   1      46.616 -20.254  42.352  0.00  0.00     0.029 C 
ENDBRANCH   1  11
TORSDOF 4
ENDMDL
MODEL 2
REMARK VINA RESULT:       8.0      1.835      4.515
REMARK  4 active torsions:
REMARK  status: ('A' for Active; 'I' for Inactive)
REMARK    1  A    between atoms: N_4  and  C_1 
REMARK       I    between atoms: C_6  and  N_4 
REMARK    2  A    between atoms: C_10  and  C_6 
REMARK    3  A    between atoms: C_8  and  C_11 
REMARK    4  A    between atoms: C_11  and  C_10 
ROOT
ATOM      1  N   UNL d   1      46.070 -15.841  43.992  0.00  0.00    -0.187 NA
ATOM      2  C   UNL d   1      45.906 -16.593  44.295  0.00  0.00     0.281 C 
ATOM      3  O   UNL d   1      45.395 -16.718  44.954  0.00  0.00    -0.265 OA
ENDROOT
BRANCH   2   4
ATOM      4  C   UNL d   1      46.272 -17.285  43.922  0.00  0.00     0.063 C 
BRANCH   4   5
ATOM      5  C   UNL d   1      46.226 -18.025  44.321  0.00  0.00     0.011 C 
BRANCH   5   6
ATOM      6  C   UNL d   1      46.361 -18.698  43.896  0.00  0.00     0.030 A 
ATOM      7  S   UNL d   1      46.531 -19.394  44.196  0.00  0.00    -0.086 SA
ATOM      8  C   UNL d   1      46.634 -19.960  43.605  0.00  0.00     0.035 A 
ATOM      9  C   UNL d   1      46.521 -19.590  42.904  0.00  0.00     0.007 A 
ATOM     10  C   UNL d   1      46.348 -18.798  43.053  0.00  0.00     0.007 A 
ENDBRANCH   5   6
ENDBRANCH   4   5
ENDBRANCH   2   4
BRANCH   1  11
ATOM     11  C   UNL d   1      45.722 -15.184  44.347  0.00  0.00     0.194 A 
ATOM     12  N   UNL d   1      44.992 -15.062  44.683  0.00  0.00    -0.107 NA
ATOM     13  O   UNL d   1      44.955 -14.312  44.942  0.00  0.00    -0.210 OA
ATOM     14  C   UNL d   1      45.667 -13.904  44.786  0.00  0.00     0.128 A 
ATOM     15  C   UNL d   1      46.142 -14.454  44.415  0.00  0.00     0.068 A 
ATOM     16  C   UNL d   1      45.885 -13.126  44.951  0.00  0.00     0.029 C 
ENDBRANCH   1  11
TORSDOF 4
ENDMDL
