MODEL 1
REMARK VINA RESULT:      95.7      0.000      0.000
REMARK  7 active torsions:
REMARK  status: ('A' for Active; 'I' for Inactive)
REMARK    1  A    between atoms: O_8  and  C_1 
REMARK    2  A    between atoms: C_10  and  C_5 
REMARK    3  A    between atoms: C_12  and  O_8 
REMARK    4  A    between atoms: N_9  and  C_10 
REMARK    5  A    between atoms: C_25  and  N_14 
REMARK    6  A    between atoms: O_24  and  C_17 
REMARK    7  A    between atoms: C_29  and  C_25 
ROOT
ATOM      1  C   UNL d   1      61.430  46.024  50.658  0.00  0.00     0.161 A 
ATOM      2  C   UNL d   1      60.851  47.581  50.767  0.00  0.00     0.108 A 
ATOM      3  C   UNL d   1      61.436  47.386  50.201  0.00  0.00     0.064 A 
ATOM      4  C   UNL d   1      61.723  46.616  50.146  0.00  0.00     0.222 A 
ATOM      5  C   UNL d   1      60.569  48.356  50.813  0.00  0.00     0.079 A 
ATOM      6  O   UNL d   1      60.557  47.000  51.275  0.00  0.00    -0.305 OA
ATOM      7  C   UNL d   1      60.847  46.217  51.222  0.00  0.00     0.126 A 
ATOM      8  C   UNL d   1      61.726  47.980  49.692  0.00  0.00     0.009 A 
ATOM      9  C   UNL d   1      60.854  48.941  50.313  0.00  0.00     0.199 A 
ATOM     10  O   UNL d   1      62.300  46.420  49.590  0.00  0.00    -0.284 OA
ATOM     11  C   UNL d   1      61.439  48.750  49.746  0.00  0.00     0.042 A 
ATOM     12  O   UNL d   1      60.576  49.707  50.359  0.00  0.00    -0.286 OA
ATOM     13  C   UNL d   1      60.557  45.636  51.727  0.00  0.00     0.029 C 
ENDROOT
BRANCH   5  14
ATOM     14  C   UNL d   1      59.996  48.543  51.369  0.00  0.00     0.086 C 
BRANCH  14  15
ATOM     15  N   UNL d   1      59.229  48.733  51.123  0.00  0.00    -0.300 N 
ATOM     16  C   UNL d   1      59.067  49.488  50.834  0.00  0.00     0.100 A 
ATOM     17  C   UNL d   1      58.305  49.678  50.589  0.00  0.00     0.100 A 
ATOM     18  N   UNL d   1      57.703  49.113  50.634  0.00  0.00    -0.297 N 
ATOM     19  C   UNL d   1      57.868  48.358  50.924  0.00  0.00     0.100 A 
ATOM     20  C   UNL d   1      58.637  48.162  51.172  0.00  0.00     0.100 A 
BRANCH  18  21
ATOM     21  C   UNL d   1      56.940  49.303  50.389  0.00  0.00     0.126 C 
BRANCH  21  22
ATOM     22  C   UNL d   1      56.724  49.207  49.598  0.00  0.00     0.253 C 
ATOM     23  O   UNL d   1      56.150  49.704  49.264  0.00  0.00    -0.281 OA
ENDBRANCH  21  22
ENDBRANCH  18  21
ENDBRANCH  14  15
ENDBRANCH   5  14
BRANCH   1  24
ATOM     24  O   UNL d   1      61.716  45.253  50.605  0.00  0.00    -0.300 OA
BRANCH  24  25
ATOM     25  C   UNL d   1      61.442  44.760  50.015  0.00  0.00     0.122 A 
ATOM     26  C   UNL d   1      61.799  44.036  49.887  0.00  0.00     0.117 A 
ATOM     27  C   UNL d   1      61.524  43.540  49.294  0.00  0.00     0.026 A 
ATOM     28  C   UNL d   1      60.884  43.777  48.829  0.00  0.00     0.002 A 
ATOM     29  C   UNL d   1      60.526  44.501  48.956  0.00  0.00     0.002 A 
ATOM     30  C   UNL d   1      60.804  44.999  49.552  0.00  0.00     0.027 A 
BRANCH  26  31
ATOM     31  O   UNL d   1      62.436  43.811  50.358  0.00  0.00    -0.326 OA
ATOM     32  C   UNL d   1      62.380  43.140  50.836  0.00  0.00     0.181 C 
ENDBRANCH  26  31
ENDBRANCH  24  25
ENDBRANCH   1  24
TORSDOF 7
ENDMDL
