MODEL 1
REMARK VINA RESULT:      40.3      0.000      0.000
REMARK  5 active torsions:
REMARK  status: ('A' for Active; 'I' for Inactive)
REMARK    1  A    between atoms: C_2  and  S_1 
REMARK    2  A    between atoms: N_5  and  S_1 
REMARK    3  A    between atoms: C_12  and  N_5 
REMARK    4  A    between atoms: O_16  and  C_8 
REMARK    5  A    between atoms: C_13  and  C_12 
ROOT
ATOM      1  S   UNL d   1     -51.512  25.783  33.337  0.00  0.00     0.286 S 
ATOM      2  O   UNL d   1     -52.160  26.293  33.306  0.00  0.00    -0.198 OA
ATOM      3  O   UNL d   1     -50.864  25.273  33.368  0.00  0.00    -0.198 OA
ENDROOT
BRANCH   1   4
ATOM      4  C   UNL d   1     -52.022  25.135  33.364  0.00  0.00     0.117 A 
ATOM      5  C   UNL d   1     -52.838  25.255  33.404  0.00  0.00     0.027 A 
ATOM      6  C   UNL d   1     -53.348  24.608  33.432  0.00  0.00     0.081 A 
ATOM      7 CL   UNL d   1     -54.167  24.730  33.472  0.00  0.00    -0.080 Cl
ATOM      8  C   UNL d   1     -53.043  23.841  33.419  0.00  0.00     0.105 A 
ATOM      9  C   UNL d   1     -52.228  23.722  33.379  0.00  0.00     0.037 A 
ATOM     10  C   UNL d   1     -51.717  24.370  33.352  0.00  0.00     0.072 A 
ATOM     11 CL   UNL d   1     -50.910  24.256  33.312  0.00  0.00    -0.082 Cl
BRANCH   8  12
ATOM     12  O   UNL d   1     -53.554  23.193  33.447  0.00  0.00    -0.327 OA
ATOM     13  C   UNL d   1     -54.265  23.247  33.859  0.00  0.00     0.181 C 
ENDBRANCH   8  12
ENDBRANCH   1   4
BRANCH   1  14
ATOM     14  N   UNL d   1     -51.001  26.430  33.310  0.00  0.00    -0.155 NA
BRANCH  14  15
ATOM     15  C   UNL d   1     -50.795  26.824  34.006  0.00  0.00     0.131 C 
BRANCH  15  16
ATOM     16  C   UNL d   1     -50.378  27.535  33.970  0.00  0.00     0.101 A 
ATOM     17  N   UNL d   1     -49.674  27.621  34.391  0.00  0.00    -0.242 NA
ATOM     18  C   UNL d   1     -49.257  28.332  34.356  0.00  0.00     0.099 A 
ATOM     19  C   UNL d   1     -49.545  28.957  33.899  0.00  0.00     0.021 A 
ATOM     20  C   UNL d   1     -50.253  28.872  33.476  0.00  0.00     0.003 A 
ATOM     21  C   UNL d   1     -50.670  28.161  33.512  0.00  0.00     0.021 A 
ENDBRANCH  15  16
ENDBRANCH  14  15
ENDBRANCH   1  14
TORSDOF 5
ENDMDL
