MODEL 1
REMARK VINA RESULT:      30.6      0.000      0.000
REMARK  6 active torsions:
REMARK  status: ('A' for Active; 'I' for Inactive)
REMARK    1  A    between atoms: N_2  and  S_1 
REMARK    2  A    between atoms: C_16  and  S_1 
REMARK    3  A    between atoms: C_4  and  C_3 
REMARK       I    between atoms: N_6  and  C_4 
REMARK    4  A    between atoms: C_15  and  N_6 
REMARK    5  A    between atoms: C_9  and  C_15 
REMARK    6  A    between atoms: C_20  and  C_16 
ROOT
ATOM      1  N   UNL d   1     -51.373  24.474  33.306  0.00  0.00    -0.229 N 
ATOM      2  C   UNL d   1     -51.152  25.882  33.306  0.00  0.00     0.076 A 
ATOM      3  C   UNL d   1     -51.666  25.248  33.306  0.00  0.00     0.096 A 
ATOM      4  C   UNL d   1     -50.566  24.340  33.306  0.00  0.00     0.092 A 
ATOM      5  C   UNL d   1     -50.342  25.751  33.306  0.00  0.00     0.008 A 
ATOM      6  C   UNL d   1     -50.048  24.977  33.306  0.00  0.00     0.020 A 
ENDROOT
BRANCH   2   7
ATOM      7  C   UNL d   1     -51.437  26.659  33.306  0.00  0.00     0.281 C 
ATOM      8  N   UNL d   1     -50.918  27.299  33.306  0.00  0.00    -0.204 NA
ATOM      9  O   UNL d   1     -52.260  26.789  33.306  0.00  0.00    -0.265 OA
BRANCH   8  10
ATOM     10  C   UNL d   1     -50.105  27.165  33.306  0.00  0.00     0.127 C 
BRANCH  10  11
ATOM     11  C   UNL d   1     -49.617  27.608  33.803  0.00  0.00     0.119 A 
ATOM     12  O   UNL d   1     -49.730  27.722  34.613  0.00  0.00    -0.304 OA
ATOM     13  C   UNL d   1     -49.114  28.198  34.891  0.00  0.00     0.123 A 
ATOM     14  C   UNL d   1     -48.624  28.376  34.249  0.00  0.00     0.029 A 
ATOM     15  C   UNL d   1     -48.940  28.008  33.583  0.00  0.00     0.028 A 
ENDBRANCH  10  11
ENDBRANCH   8  10
ENDBRANCH   2   7
BRANCH   1  16
ATOM     16  S   UNL d   1     -51.902  23.833  33.306  0.00  0.00     0.272 S 
ATOM     17  O   UNL d   1     -51.282  23.315  33.306  0.00  0.00    -0.200 OA
ATOM     18  O   UNL d   1     -52.535  24.371  33.306  0.00  0.00    -0.200 OA
BRANCH  16  19
ATOM     19  C   UNL d   1     -52.423  23.188  33.306  0.00  0.00     0.116 C 
BRANCH  19  20
ATOM     20  C   UNL d   1     -53.235  23.300  33.420  0.00  0.00     0.014 C 
ATOM     21  C   UNL d   1     -53.544  23.287  34.183  0.00  0.00     0.001 C 
ENDBRANCH  19  20
ENDBRANCH  16  19
ENDBRANCH   1  16
TORSDOF 6
ENDMDL
