MODEL 1
REMARK VINA RESULT:      -9.1      0.000      0.000
REMARK  4 active torsions:
REMARK  status: ('A' for Active; 'I' for Inactive)
REMARK       I    between atoms: C_3  and  N_1 
REMARK    1  A    between atoms: C_7  and  C_3 
REMARK    2  A    between atoms: C_9  and  C_4 
REMARK    3  A    between atoms: C_12  and  C_5 
REMARK    4  A    between atoms: O_20  and  C_17 
ROOT
ATOM      1  N   UNL d   1      52.242  34.113  53.434  0.00  0.00    -0.194 N 
ATOM      2  N   UNL d   1      51.638  34.623  53.224  0.00  0.00    -0.163 NA
ATOM      3  C   UNL d   1      52.964  34.327  53.821  0.00  0.00     0.286 C 
ATOM      4  C   UNL d   1      52.019  33.354  53.200  0.00  0.00     0.088 A 
ATOM      5  C   UNL d   1      51.042  34.196  52.863  0.00  0.00     0.103 A 
ATOM      6  C   UNL d   1      51.282  33.410  52.849  0.00  0.00     0.040 A 
ATOM      7  O   UNL d   1      53.080  35.122  54.009  0.00  0.00    -0.265 OA
ENDROOT
BRANCH   4   8
ATOM      8  C   UNL d   1      52.521  32.701  53.336  0.00  0.00     0.018 A 
ATOM      9  C   UNL d   1      53.101  32.479  52.771  0.00  0.00     0.004 A 
ATOM     10  C   UNL d   1      53.589  31.830  52.922  0.00  0.00     0.024 A 
ATOM     11  C   UNL d   1      53.518  31.390  53.624  0.00  0.00     0.094 A 
ATOM     12  C   UNL d   1      52.937  31.611  54.190  0.00  0.00     0.024 A 
ATOM     13  C   UNL d   1      52.445  32.267  54.037  0.00  0.00     0.004 A 
BRANCH  11  14
ATOM     14  O   UNL d   1      54.019  30.736  53.762  0.00  0.00    -0.328 OA
ATOM     15  C   UNL d   1      53.714  29.958  53.671  0.00  0.00     0.181 C 
ENDBRANCH  11  14
ENDBRANCH   4   8
BRANCH   3  16
ATOM     16  C   UNL d   1      53.530  33.770  54.005  0.00  0.00     0.087 A 
ATOM     17  S   UNL d   1      54.063  33.317  53.544  0.00  0.00    -0.082 SA
ATOM     18  C   UNL d   1      54.496  32.848  54.049  0.00  0.00     0.036 A 
ATOM     19  C   UNL d   1      54.256  32.988  54.818  0.00  0.00     0.008 A 
ATOM     20  C   UNL d   1      53.666  33.549  54.796  0.00  0.00     0.012 A 
ENDBRANCH   3  16
BRANCH   5  21
ATOM     21  C   UNL d   1      50.316  34.423  52.546  0.00  0.00     0.019 A 
ATOM     22  C   UNL d   1      50.139  34.231  51.760  0.00  0.00     0.002 A 
ATOM     23  C   UNL d   1      49.415  34.460  51.450  0.00  0.00     0.000 A 
ATOM     24  C   UNL d   1      48.868  34.872  51.904  0.00  0.00     0.000 A 
ATOM     25  C   UNL d   1      49.045  35.064  52.692  0.00  0.00     0.000 A 
ATOM     26  C   UNL d   1      49.773  34.835  53.004  0.00  0.00     0.002 A 
ENDBRANCH   5  21
TORSDOF 4
ENDMDL
MODEL 2
REMARK VINA RESULT:      -8.9      1.243      4.100
REMARK  4 active torsions:
REMARK  status: ('A' for Active; 'I' for Inactive)
REMARK       I    between atoms: C_3  and  N_1 
REMARK    1  A    between atoms: C_7  and  C_3 
REMARK    2  A    between atoms: C_9  and  C_4 
REMARK    3  A    between atoms: C_12  and  C_5 
REMARK    4  A    between atoms: O_20  and  C_17 
ROOT
ATOM      1  N   UNL d   1      53.283  32.561  53.717  0.00  0.00    -0.194 N 
ATOM      2  N   UNL d   1      53.646  31.845  53.874  0.00  0.00    -0.163 NA
ATOM      3  C   UNL d   1      53.621  33.329  53.838  0.00  0.00     0.286 C 
ATOM      4  C   UNL d   1      52.531  32.399  53.420  0.00  0.00     0.088 A 
ATOM      5  C   UNL d   1      53.133  31.239  53.680  0.00  0.00     0.103 A 
ATOM      6  C   UNL d   1      52.443  31.586  53.399  0.00  0.00     0.040 A 
ATOM      7  O   UNL d   1      54.387  33.369  54.142  0.00  0.00    -0.265 OA
ENDROOT
BRANCH   4   8
ATOM      8  C   UNL d   1      52.015  33.020  53.204  0.00  0.00     0.018 A 
ATOM      9  C   UNL d   1      52.051  33.360  52.437  0.00  0.00     0.004 A 
ATOM     10  C   UNL d   1      51.533  33.973  52.240  0.00  0.00     0.024 A 
ATOM     11  C   UNL d   1      50.975  34.260  52.787  0.00  0.00     0.094 A 
ATOM     12  C   UNL d   1      50.939  33.919  53.553  0.00  0.00     0.024 A 
ATOM     13  C   UNL d   1      51.462  33.301  53.752  0.00  0.00     0.004 A 
BRANCH  11  14
ATOM     14  O   UNL d   1      50.458  34.880  52.571  0.00  0.00    -0.328 OA
ATOM     15  C   UNL d   1      49.659  34.702  52.383  0.00  0.00     0.181 C 
ENDBRANCH  11  14
ENDBRANCH   4   8
BRANCH   3  16
ATOM     16  C   UNL d   1      53.207  34.008  53.661  0.00  0.00     0.087 A 
ATOM     17  S   UNL d   1      52.961  34.363  52.944  0.00  0.00    -0.082 SA
ATOM     18  C   UNL d   1      52.561  35.048  53.126  0.00  0.00     0.036 A 
ATOM     19  C   UNL d   1      52.544  35.141  53.938  0.00  0.00     0.008 A 
ATOM     20  C   UNL d   1      52.937  34.509  54.269  0.00  0.00     0.012 A 
ENDBRANCH   3  16
BRANCH   5  21
ATOM     21  C   UNL d   1      53.207  30.419  53.724  0.00  0.00     0.019 A 
ATOM     22  C   UNL d   1      53.345  30.064  54.460  0.00  0.00     0.002 A 
ATOM     23  C   UNL d   1      53.418  29.248  54.498  0.00  0.00     0.000 A 
ATOM     24  C   UNL d   1      53.358  28.783  53.823  0.00  0.00     0.000 A 
ATOM     25  C   UNL d   1      53.220  29.139  53.086  0.00  0.00     0.000 A 
ATOM     26  C   UNL d   1      53.146  29.958  53.047  0.00  0.00     0.002 A 
ENDBRANCH   5  21
TORSDOF 4
ENDMDL
MODEL 3
REMARK VINA RESULT:      -8.5      1.066      1.952
REMARK  4 active torsions:
REMARK  status: ('A' for Active; 'I' for Inactive)
REMARK       I    between atoms: C_3  and  N_1 
REMARK    1  A    between atoms: C_7  and  C_3 
REMARK    2  A    between atoms: C_9  and  C_4 
REMARK    3  A    between atoms: C_12  and  C_5 
REMARK    4  A    between atoms: O_20  and  C_17 
ROOT
ATOM      1  N   UNL d   1      52.028  32.850  52.985  0.00  0.00    -0.194 N 
ATOM      2  N   UNL d   1      51.300  33.020  52.652  0.00  0.00    -0.163 NA
ATOM      3  C   UNL d   1      52.457  32.124  52.903  0.00  0.00     0.286 C 
ATOM      4  C   UNL d   1      52.266  33.513  53.413  0.00  0.00     0.088 A 
ATOM      5  C   UNL d   1      51.080  33.778  52.866  0.00  0.00     0.103 A 
ATOM      6  C   UNL d   1      51.682  34.080  53.338  0.00  0.00     0.040 A 
ATOM      7  O   UNL d   1      52.118  31.525  52.447  0.00  0.00    -0.265 OA
ENDROOT
BRANCH   4   8
ATOM      8  C   UNL d   1      52.994  33.517  53.823  0.00  0.00     0.018 A 
ATOM      9  C   UNL d   1      53.702  33.754  53.439  0.00  0.00     0.004 A 
ATOM     10  C   UNL d   1      54.413  33.753  53.860  0.00  0.00     0.024 A 
ATOM     11  C   UNL d   1      54.442  33.520  54.658  0.00  0.00     0.094 A 
ATOM     12  C   UNL d   1      53.734  33.283  55.042  0.00  0.00     0.024 A 
ATOM     13  C   UNL d   1      53.017  33.285  54.618  0.00  0.00     0.004 A 
BRANCH  11  14
ATOM     14  O   UNL d   1      55.170  33.524  55.069  0.00  0.00    -0.328 OA
ATOM     15  C   UNL d   1      55.370  34.188  55.544  0.00  0.00     0.181 C 
ENDBRANCH  11  14
ENDBRANCH   4   8
BRANCH   3  16
ATOM     16  C   UNL d   1      53.181  32.015  53.261  0.00  0.00     0.087 A 
ATOM     17  S   UNL d   1      53.942  32.340  53.132  0.00  0.00    -0.082 SA
ATOM     18  C   UNL d   1      54.451  32.011  53.674  0.00  0.00     0.036 A 
ATOM     19  C   UNL d   1      54.039  31.484  54.145  0.00  0.00     0.008 A 
ATOM     20  C   UNL d   1      53.263  31.483  53.897  0.00  0.00     0.012 A 
ENDBRANCH   3  16
BRANCH   5  21
ATOM     21  C   UNL d   1      50.412  34.227  52.691  0.00  0.00     0.019 A 
ATOM     22  C   UNL d   1      50.119  34.231  51.916  0.00  0.00     0.002 A 
ATOM     23  C   UNL d   1      49.453  34.680  51.747  0.00  0.00     0.000 A 
ATOM     24  C   UNL d   1      49.078  35.121  52.330  0.00  0.00     0.000 A 
ATOM     25  C   UNL d   1      49.372  35.117  53.105  0.00  0.00     0.000 A 
ATOM     26  C   UNL d   1      50.040  34.666  53.276  0.00  0.00     0.002 A 
ENDBRANCH   5  21
TORSDOF 4
ENDMDL
MODEL 4
REMARK VINA RESULT:      -6.7      2.145      4.033
REMARK  4 active torsions:
REMARK  status: ('A' for Active; 'I' for Inactive)
REMARK       I    between atoms: C_3  and  N_1 
REMARK    1  A    between atoms: C_7  and  C_3 
REMARK    2  A    between atoms: C_9  and  C_4 
REMARK    3  A    between atoms: C_12  and  C_5 
REMARK    4  A    between atoms: O_20  and  C_17 
ROOT
ATOM      1  N   UNL d   1      52.752  32.167  53.490  0.00  0.00    -0.194 N 
ATOM      2  N   UNL d   1      52.454  31.440  53.264  0.00  0.00    -0.163 NA
ATOM      3  C   UNL d   1      52.413  32.923  53.310  0.00  0.00     0.286 C 
ATOM      4  C   UNL d   1      53.439  32.031  53.924  0.00  0.00     0.088 A 
ATOM      5  C   UNL d   1      52.945  30.851  53.550  0.00  0.00     0.103 A 
ATOM      6  C   UNL d   1      53.554  31.221  53.959  0.00  0.00     0.040 A 
ATOM      7  O   UNL d   1      51.719  32.938  52.865  0.00  0.00    -0.265 OA
ENDROOT
BRANCH   4   8
ATOM      8  C   UNL d   1      53.880  32.668  54.238  0.00  0.00     0.018 A 
ATOM      9  C   UNL d   1      53.697  32.985  54.994  0.00  0.00     0.004 A 
ATOM     10  C   UNL d   1      54.143  33.615  55.288  0.00  0.00     0.024 A 
ATOM     11  C   UNL d   1      54.771  33.942  54.851  0.00  0.00     0.094 A 
ATOM     12  C   UNL d   1      54.954  33.624  54.095  0.00  0.00     0.024 A 
ATOM     13  C   UNL d   1      54.503  32.988  53.798  0.00  0.00     0.004 A 
BRANCH  11  14
ATOM     14  O   UNL d   1      55.213  34.578  55.164  0.00  0.00    -0.328 OA
ATOM     15  C   UNL d   1      55.939  34.422  55.557  0.00  0.00     0.181 C 
ENDBRANCH  11  14
ENDBRANCH   4   8
BRANCH   3  16
ATOM     16  C   UNL d   1      52.759  33.616  53.565  0.00  0.00     0.087 A 
ATOM     17  S   UNL d   1      52.853  33.969  54.318  0.00  0.00    -0.082 SA
ATOM     18  C   UNL d   1      53.251  34.671  54.219  0.00  0.00     0.036 A 
ATOM     19  C   UNL d   1      53.415  34.777  53.424  0.00  0.00     0.008 A 
ATOM     20  C   UNL d   1      53.116  34.136  53.021  0.00  0.00     0.012 A 
ENDBRANCH   3  16
BRANCH   5  21
ATOM     21  C   UNL d   1      52.912  30.030  53.490  0.00  0.00     0.019 A 
ATOM     22  C   UNL d   1      53.258  29.566  54.082  0.00  0.00     0.002 A 
ATOM     23  C   UNL d   1      53.223  28.749  54.018  0.00  0.00     0.000 A 
ATOM     24  C   UNL d   1      52.853  28.389  53.379  0.00  0.00     0.000 A 
ATOM     25  C   UNL d   1      52.506  28.853  52.785  0.00  0.00     0.000 A 
ATOM     26  C   UNL d   1      52.541  29.674  52.850  0.00  0.00     0.002 A 
ENDBRANCH   5  21
TORSDOF 4
ENDMDL
