MODEL 1
REMARK VINA RESULT:      -0.2      0.000      0.000
REMARK  6 active torsions:
REMARK  status: ('A' for Active; 'I' for Inactive)
REMARK    1  A    between atoms: N_3  and  C_1 
REMARK       I    between atoms: C_5  and  N_3 
REMARK    2  A    between atoms: C_19  and  N_3 
REMARK    3  A    between atoms: C_8  and  C_5 
REMARK    4  A    between atoms: C_20  and  C_19 
REMARK    5  A    between atoms: C_23  and  C_20 
REMARK    6  A    between atoms: N_21  and  C_23 
ROOT
ATOM      1  N   UNL d   1      57.524  -0.177  31.505  0.00  0.00    -0.253 N 
ATOM      2  C   UNL d   1      57.336  -0.793  30.986  0.00  0.00     0.266 C 
ATOM      3  O   UNL d   1      56.675  -1.254  31.112  0.00  0.00    -0.267 OA
ENDROOT
BRANCH   1   4
ATOM      4  C   UNL d   1      57.029  -0.032  32.159  0.00  0.00     0.182 A 
ATOM      5  N   UNL d   1      57.282   0.199  32.910  0.00  0.00    -0.222 NA
ATOM      6  C   UNL d   1      56.623   0.283  33.394  0.00  0.00     0.089 A 
ATOM      7  C   UNL d   1      56.535   0.496  34.175  0.00  0.00     0.018 A 
ATOM      8  C   UNL d   1      55.954   0.102  32.938  0.00  0.00     0.050 A 
ATOM      9  C   UNL d   1      55.788   0.533  34.519  0.00  0.00     0.002 A 
ATOM     10  C   UNL d   1      57.199   0.679  34.639  0.00  0.00     0.002 C 
ATOM     11  C   UNL d   1      55.131   0.354  34.065  0.00  0.00     0.001 A 
ATOM     12  C   UNL d   1      55.221   0.139  33.274  0.00  0.00     0.008 A 
ATOM     13  S   UNL d   1      56.204  -0.093  32.174  0.00  0.00    -0.048 SA
ENDBRANCH   1   4
BRANCH   1  14
ATOM     14  C   UNL d   1      58.192   0.288  31.377  0.00  0.00     0.086 C 
BRANCH  14  15
ATOM     15  C   UNL d   1      58.809   0.284  31.931  0.00  0.00     0.038 C 
BRANCH  15  16
ATOM     16  C   UNL d   1      59.511   0.681  31.764  0.00  0.00     0.082 C 
BRANCH  16  17
ATOM     17  N   UNL d   1      60.181   0.543  32.222  0.00  0.00    -0.300 N 
ATOM     18  C   UNL d   1      60.888   0.325  31.862  0.00  0.00     0.100 C 
ATOM     19  C   UNL d   1      60.142   0.624  33.038  0.00  0.00     0.100 C 
ENDBRANCH  16  17
ENDBRANCH  15  16
ENDBRANCH  14  15
ENDBRANCH   1  14
BRANCH   2  20
ATOM     20  C   UNL d   1      57.829  -0.934  30.339  0.00  0.00     0.057 A 
ATOM     21  C   UNL d   1      58.248  -1.640  30.277  0.00  0.00     0.013 A 
ATOM     22  C   UNL d   1      58.738  -1.763  29.619  0.00  0.00     0.049 A 
ATOM     23  S   UNL d   1      59.216  -2.407  29.415  0.00  0.00    -0.064 SA
ATOM     24  C   UNL d   1      58.809  -1.189  29.031  0.00  0.00     0.088 A 
ATOM     25  C   UNL d   1      59.582  -2.224  28.695  0.00  0.00     0.135 A 
ATOM     26  N   UNL d   1      59.328  -1.471  28.459  0.00  0.00    -0.236 NA
ATOM     27  C   UNL d   1      58.389  -0.483  29.092  0.00  0.00     0.020 A 
ATOM     28  C   UNL d   1      57.899  -0.350  29.743  0.00  0.00     0.006 A 
ENDBRANCH   2  20
TORSDOF 6
ENDMDL
