MODEL 1
REMARK VINA RESULT:      -4.6      0.000      0.000
REMARK  3 active torsions:
REMARK  status: ('A' for Active; 'I' for Inactive)
REMARK    1  A    between atoms: C_2  and  C_1 
REMARK    2  A    between atoms: C_4  and  C_1 
REMARK    3  A    between atoms: C_3  and  C_2 
ROOT
ATOM      1  C   UNL d   1     -41.462-122.515 -53.020  0.00  0.00     0.000 A 
ATOM      2  C   UNL d   1     -41.408-122.193 -52.256  0.00  0.00     0.000 A 
ATOM      3  C   UNL d   1     -41.243-122.674 -51.631  0.00  0.00     0.000 A 
ATOM      4  C   UNL d   1     -41.177-123.817 -52.504  0.00  0.00     0.000 A 
ATOM      5  C   UNL d   1     -41.346-123.325 -53.144  0.00  0.00     0.000 A 
ATOM      6  C   UNL d   1     -41.523-121.398 -52.144  0.00  0.00     0.000 A 
ATOM      7  C   UNL d   1     -41.123-123.500 -51.741  0.00  0.00     0.000 A 
ATOM      8  C   UNL d   1     -41.184-122.383 -50.865  0.00  0.00     0.000 A 
ATOM      9  C   UNL d   1     -41.470-121.082 -51.384  0.00  0.00     0.000 A 
ATOM     10  C   UNL d   1     -41.300-121.575 -50.744  0.00  0.00     0.000 A 
ENDROOT
BRANCH   1  11
ATOM     11  C   UNL d   1     -41.631-122.021 -53.661  0.00  0.00     0.006 C 
BRANCH  11  12
ATOM     12  C   UNL d   1     -41.789-122.335 -54.392  0.00  0.00     0.070 C 
BRANCH  12  13
ATOM     13  C   UNL d   1     -42.084-121.852 -55.007  0.00  0.00     0.211 C 
ATOM     14  O   UNL d   1     -42.860-121.602 -55.011  0.00  0.00    -0.644 OA
ATOM     15  O   UNL d   1     -41.594-121.615 -55.628  0.00  0.00    -0.644 OA
ENDBRANCH  12  13
ENDBRANCH  11  12
ENDBRANCH   1  11
TORSDOF 3
ENDMDL
MODEL 2
REMARK VINA RESULT:      -3.6      0.743      1.716
REMARK  3 active torsions:
REMARK  status: ('A' for Active; 'I' for Inactive)
REMARK    1  A    between atoms: C_2  and  C_1 
REMARK    2  A    between atoms: C_4  and  C_1 
REMARK    3  A    between atoms: C_3  and  C_2 
ROOT
ATOM      1  C   UNL d   1     -41.356-122.220 -52.320  0.00  0.00     0.000 A 
ATOM      2  C   UNL d   1     -41.299-122.617 -51.591  0.00  0.00     0.000 A 
ATOM      3  C   UNL d   1     -41.213-122.193 -50.911  0.00  0.00     0.000 A 
ATOM      4  C   UNL d   1     -41.239-120.960 -51.654  0.00  0.00     0.000 A 
ATOM      5  C   UNL d   1     -41.327-121.393 -52.350  0.00  0.00     0.000 A 
ATOM      6  C   UNL d   1     -41.329-123.427 -51.571  0.00  0.00     0.000 A 
ATOM      7  C   UNL d   1     -41.181-121.352 -50.927  0.00  0.00     0.000 A 
ATOM      8  C   UNL d   1     -41.154-122.560 -50.178  0.00  0.00     0.000 A 
ATOM      9  C   UNL d   1     -41.272-123.817 -50.847  0.00  0.00     0.000 A 
ATOM     10  C   UNL d   1     -41.184-123.384 -50.151  0.00  0.00     0.000 A 
ENDROOT
BRANCH   1  11
ATOM     11  C   UNL d   1     -41.444-122.654 -53.017  0.00  0.00     0.006 C 
BRANCH  11  12
ATOM     12  C   UNL d   1     -41.661-122.287 -53.707  0.00  0.00     0.070 C 
BRANCH  12  13
ATOM     13  C   UNL d   1     -41.753-122.727 -54.412  0.00  0.00     0.211 C 
ATOM     14  O   UNL d   1     -42.464-123.080 -54.598  0.00  0.00    -0.644 OA
ATOM     15  O   UNL d   1     -41.123-122.814 -54.938  0.00  0.00    -0.644 OA
ENDBRANCH  12  13
ENDBRANCH  11  12
ENDBRANCH   1  11
TORSDOF 3
ENDMDL
MODEL 3
REMARK VINA RESULT:      -3.4      2.562      3.795
REMARK  3 active torsions:
REMARK  status: ('A' for Active; 'I' for Inactive)
REMARK    1  A    between atoms: C_2  and  C_1 
REMARK    2  A    between atoms: C_4  and  C_1 
REMARK    3  A    between atoms: C_3  and  C_2 
ROOT
ATOM      1  C   UNL d   1     -41.510-122.492 -51.127  0.00  0.00     0.000 A 
ATOM      2  C   UNL d   1     -41.409-122.763 -51.907  0.00  0.00     0.000 A 
ATOM      3  C   UNL d   1     -41.227-122.239 -52.491  0.00  0.00     0.000 A 
ATOM      4  C   UNL d   1     -41.238-121.152 -51.547  0.00  0.00     0.000 A 
ATOM      5  C   UNL d   1     -41.424-121.689 -50.948  0.00  0.00     0.000 A 
ATOM      6  C   UNL d   1     -41.495-123.553 -52.073  0.00  0.00     0.000 A 
ATOM      7  C   UNL d   1     -41.137-121.419 -52.324  0.00  0.00     0.000 A 
ATOM      8  C   UNL d   1     -41.123-122.480 -53.270  0.00  0.00     0.000 A 
ATOM      9  C   UNL d   1     -41.395-123.817 -52.848  0.00  0.00     0.000 A 
ATOM     10  C   UNL d   1     -41.208-123.281 -53.446  0.00  0.00     0.000 A 
ENDROOT
BRANCH   1  11
ATOM     11  C   UNL d   1     -41.696-123.030 -50.528  0.00  0.00     0.006 C 
BRANCH  11  12
ATOM     12  C   UNL d   1     -41.827-122.772 -49.770  0.00  0.00     0.070 C 
BRANCH  12  13
ATOM     13  C   UNL d   1     -42.001-123.317 -49.161  0.00  0.00     0.211 C 
ATOM     14  O   UNL d   1     -42.769-123.441 -48.913  0.00  0.00    -0.644 OA
ATOM     15  O   UNL d   1     -41.398-123.745 -48.793  0.00  0.00    -0.644 OA
ENDBRANCH  12  13
ENDBRANCH  11  12
ENDBRANCH   1  11
TORSDOF 3
ENDMDL
MODEL 4
REMARK VINA RESULT:      -2.8      2.243      3.182
REMARK  3 active torsions:
REMARK  status: ('A' for Active; 'I' for Inactive)
REMARK    1  A    between atoms: C_2  and  C_1 
REMARK    2  A    between atoms: C_4  and  C_1 
REMARK    3  A    between atoms: C_3  and  C_2 
ROOT
ATOM      1  C   UNL d   1     -42.242-122.736 -50.346  0.00  0.00     0.000 A 
ATOM      2  C   UNL d   1     -42.047-123.101 -49.625  0.00  0.00     0.000 A 
ATOM      3  C   UNL d   1     -42.591-123.126 -49.031  0.00  0.00     0.000 A 
ATOM      4  C   UNL d   1     -43.546-122.425 -49.849  0.00  0.00     0.000 A 
ATOM      5  C   UNL d   1     -42.990-122.399 -50.457  0.00  0.00     0.000 A 
ATOM      6  C   UNL d   1     -41.312-123.429 -49.525  0.00  0.00     0.000 A 
ATOM      7  C   UNL d   1     -43.355-122.788 -49.129  0.00  0.00     0.000 A 
ATOM      8  C   UNL d   1     -42.425-123.481 -48.308  0.00  0.00     0.000 A 
ATOM      9  C   UNL d   1     -41.123-123.790 -48.809  0.00  0.00     0.000 A 
ATOM     10  C   UNL d   1     -41.679-123.816 -48.200  0.00  0.00     0.000 A 
ENDROOT
BRANCH   1  11
ATOM     11  C   UNL d   1     -41.685-122.710 -50.956  0.00  0.00     0.006 C 
BRANCH  11  12
ATOM     12  C   UNL d   1     -41.776-122.195 -51.575  0.00  0.00     0.070 C 
BRANCH  12  13
ATOM     13  C   UNL d   1     -41.397-122.339 -52.307  0.00  0.00     0.211 C 
ATOM     14  O   UNL d   1     -41.123-121.724 -52.767  0.00  0.00    -0.644 OA
ATOM     15  O   UNL d   1     -41.292-123.110 -52.581  0.00  0.00    -0.644 OA
ENDBRANCH  12  13
ENDBRANCH  11  12
ENDBRANCH   1  11
TORSDOF 3
ENDMDL
MODEL 5
REMARK VINA RESULT:      -2.6      2.871      3.762
REMARK  3 active torsions:
REMARK  status: ('A' for Active; 'I' for Inactive)
REMARK    1  A    between atoms: C_2  and  C_1 
REMARK    2  A    between atoms: C_4  and  C_1 
REMARK    3  A    between atoms: C_3  and  C_2 
ROOT
ATOM      1  C   UNL d   1     -41.349-123.055 -50.700  0.00  0.00     0.000 A 
ATOM      2  C   UNL d   1     -41.292-122.348 -51.134  0.00  0.00     0.000 A 
ATOM      3  C   UNL d   1     -41.183-122.377 -51.932  0.00  0.00     0.000 A 
ATOM      4  C   UNL d   1     -41.180-123.816 -51.899  0.00  0.00     0.000 A 
ATOM      5  C   UNL d   1     -41.292-123.787 -51.082  0.00  0.00     0.000 A 
ATOM      6  C   UNL d   1     -41.348-121.635 -50.751  0.00  0.00     0.000 A 
ATOM      7  C   UNL d   1     -41.124-123.113 -52.334  0.00  0.00     0.000 A 
ATOM      8  C   UNL d   1     -41.124-121.693 -52.385  0.00  0.00     0.000 A 
ATOM      9  C   UNL d   1     -41.292-120.936 -51.185  0.00  0.00     0.000 A 
ATOM     10  C   UNL d   1     -41.180-120.965 -52.002  0.00  0.00     0.000 A 
ENDROOT
BRANCH   1  11
ATOM     11  C   UNL d   1     -41.461-123.025 -49.882  0.00  0.00     0.006 C 
BRANCH  11  12
ATOM     12  C   UNL d   1     -41.717-123.680 -49.478  0.00  0.00     0.070 C 
BRANCH  12  13
ATOM     13  C   UNL d   1     -41.917-123.628 -48.668  0.00  0.00     0.211 C 
ATOM     14  O   UNL d   1     -42.684-123.742 -48.415  0.00  0.00    -0.644 OA
ATOM     15  O   UNL d   1     -41.340-123.459 -48.102  0.00  0.00    -0.644 OA
ENDBRANCH  12  13
ENDBRANCH  11  12
ENDBRANCH   1  11
TORSDOF 3
ENDMDL
