MODEL 1
REMARK VINA RESULT:      -4.8      0.000      0.000
REMARK  4 active torsions:
REMARK  status: ('A' for Active; 'I' for Inactive)
REMARK    1  A    between atoms: N_2  and  C_1 
REMARK    2  A    between atoms: C_4  and  C_8 
REMARK       I    between atoms: N_5  and  C_4 
REMARK    3  A    between atoms: C_9  and  C_7 
REMARK    4  A    between atoms: C_8  and  C_9 
ROOT
ATOM      1  C   UNL d   1      57.738  -0.418  30.699  0.00  0.00     0.062 C 
ENDROOT
BRANCH   1   2
ATOM      2  C   UNL d   1      58.190  -0.129  30.097  0.00  0.00     0.265 C 
ATOM      3  N   UNL d   1      58.574  -0.642  29.587  0.00  0.00    -0.272 N 
ATOM      4  C   UNL d   1      58.501  -1.454  29.685  0.00  0.00     0.083 A 
ATOM      5  C   UNL d   1      59.042  -0.345  28.964  0.00  0.00     0.083 A 
ATOM      6  C   UNL d   1      58.883  -1.976  29.178  0.00  0.00     0.019 A 
ATOM      7  C   UNL d   1      59.345  -1.685  28.562  0.00  0.00     0.003 A 
ATOM      8  C   UNL d   1      59.425  -0.869  28.455  0.00  0.00     0.019 A 
ATOM      9  O   UNL d   1      58.261   0.682  30.000  0.00  0.00    -0.267 OA
ENDBRANCH   1   2
BRANCH   1  10
ATOM     10  C   UNL d   1      57.306   0.146  31.200  0.00  0.00     0.011 C 
BRANCH  10  11
ATOM     11  C   UNL d   1      56.818  -0.124  31.835  0.00  0.00     0.031 A 
ATOM     12  S   UNL d   1      56.483   0.348  32.385  0.00  0.00    -0.064 SA
ATOM     13  C   UNL d   1      56.056  -0.142  32.899  0.00  0.00     0.156 A 
ATOM     14  C   UNL d   1      56.153  -0.916  32.630  0.00  0.00     0.031 A 
ATOM     15  C   UNL d   1      56.612  -0.895  31.993  0.00  0.00     0.009 A 
BRANCH  13  16
ATOM     16  N   UNL d   1      55.602   0.091  33.573  0.00  0.00    -0.107 N 
ATOM     17  O   UNL d   1      54.760   0.079  33.536  0.00  0.00    -0.531 OA
ATOM     18  O   UNL d   1      55.984   0.335  34.284  0.00  0.00    -0.531 OA
ENDBRANCH  13  16
ENDBRANCH  10  11
ENDBRANCH   1  10
TORSDOF 4
ENDMDL
MODEL 2
REMARK VINA RESULT:      -4.6      1.957      4.661
REMARK  4 active torsions:
REMARK  status: ('A' for Active; 'I' for Inactive)
REMARK    1  A    between atoms: N_2  and  C_1 
REMARK    2  A    between atoms: C_4  and  C_8 
REMARK       I    between atoms: N_5  and  C_4 
REMARK    3  A    between atoms: C_9  and  C_7 
REMARK    4  A    between atoms: C_8  and  C_9 
ROOT
ATOM      1  C   UNL d   1      57.445  -0.281  31.037  0.00  0.00     0.062 C 
ENDROOT
BRANCH   1   2
ATOM      2  C   UNL d   1      56.998  -0.766  31.501  0.00  0.00     0.265 C 
ATOM      3  N   UNL d   1      56.550  -0.454  32.112  0.00  0.00    -0.272 N 
ATOM      4  C   UNL d   1      56.553   0.355  32.255  0.00  0.00     0.083 A 
ATOM      5  C   UNL d   1      56.087  -0.954  32.592  0.00  0.00     0.083 A 
ATOM      6  C   UNL d   1      56.106   0.676  32.865  0.00  0.00     0.019 A 
ATOM      7  C   UNL d   1      55.648   0.185  33.341  0.00  0.00     0.003 A 
ATOM      8  C   UNL d   1      55.639  -0.631  33.204  0.00  0.00     0.019 A 
ATOM      9  O   UNL d   1      56.997  -1.573  31.356  0.00  0.00    -0.267 OA
ENDBRANCH   1   2
BRANCH   1  10
ATOM     10  C   UNL d   1      57.828  -0.619  30.333  0.00  0.00     0.011 C 
BRANCH  10  11
ATOM     11  C   UNL d   1      58.396  -0.174  29.893  0.00  0.00     0.031 A 
ATOM     12  S   UNL d   1      59.187  -0.254  29.960  0.00  0.00    -0.064 SA
ATOM     13  C   UNL d   1      59.532   0.285  29.433  0.00  0.00     0.156 A 
ATOM     14  C   UNL d   1      58.914   0.682  29.056  0.00  0.00     0.031 A 
ATOM     15  C   UNL d   1      58.238   0.400  29.339  0.00  0.00     0.009 A 
BRANCH  13  16
ATOM     16  N   UNL d   1      60.356   0.414  29.295  0.00  0.00    -0.107 N 
ATOM     17  O   UNL d   1      60.849   0.682  29.924  0.00  0.00    -0.531 OA
ATOM     18  O   UNL d   1      60.690   0.279  28.533  0.00  0.00    -0.531 OA
ENDBRANCH  13  16
ENDBRANCH  10  11
ENDBRANCH   1  10
TORSDOF 4
ENDMDL
MODEL 3
REMARK VINA RESULT:      -4.5      1.964      4.555
REMARK  4 active torsions:
REMARK  status: ('A' for Active; 'I' for Inactive)
REMARK    1  A    between atoms: N_2  and  C_1 
REMARK    2  A    between atoms: C_4  and  C_8 
REMARK       I    between atoms: N_5  and  C_4 
REMARK    3  A    between atoms: C_9  and  C_7 
REMARK    4  A    between atoms: C_8  and  C_9 
ROOT
ATOM      1  C   UNL d   1      57.627  -0.682  30.766  0.00  0.00     0.062 C 
ENDROOT
BRANCH   1   2
ATOM      2  C   UNL d   1      57.332  -0.096  31.234  0.00  0.00     0.265 C 
ATOM      3  N   UNL d   1      56.816  -0.275  31.845  0.00  0.00    -0.272 N 
ATOM      4  C   UNL d   1      56.595  -1.054  31.983  0.00  0.00     0.083 A 
ATOM      5  C   UNL d   1      56.511   0.330  32.329  0.00  0.00     0.083 A 
ATOM      6  C   UNL d   1      56.077  -1.243  32.593  0.00  0.00     0.019 A 
ATOM      7  C   UNL d   1      55.774  -0.647  33.073  0.00  0.00     0.003 A 
ATOM      8  C   UNL d   1      55.991   0.140  32.941  0.00  0.00     0.019 A 
ATOM      9  O   UNL d   1      57.554   0.681  31.094  0.00  0.00    -0.267 OA
ENDBRANCH   1   2
BRANCH   1  10
ATOM     10  C   UNL d   1      58.235  -0.478  30.179  0.00  0.00     0.011 C 
BRANCH  10  11
ATOM     11  C   UNL d   1      58.501  -1.048  29.615  0.00  0.00     0.031 A 
ATOM     12  S   UNL d   1      58.688  -1.805  29.785  0.00  0.00    -0.064 SA
ATOM     13  C   UNL d   1      58.920  -2.164  29.075  0.00  0.00     0.156 A 
ATOM     14  C   UNL d   1      58.863  -1.589  28.485  0.00  0.00     0.031 A 
ATOM     15  C   UNL d   1      58.611  -0.925  28.818  0.00  0.00     0.009 A 
BRANCH  13  16
ATOM     16  N   UNL d   1      59.170  -2.963  28.961  0.00  0.00    -0.107 N 
ATOM     17  O   UNL d   1      59.993  -3.144  28.921  0.00  0.00    -0.531 OA
ATOM     18  O   UNL d   1      58.605  -3.584  28.887  0.00  0.00    -0.531 OA
ENDBRANCH  13  16
ENDBRANCH  10  11
ENDBRANCH   1  10
TORSDOF 4
ENDMDL
MODEL 4
REMARK VINA RESULT:      -3.9      1.671      4.580
REMARK  4 active torsions:
REMARK  status: ('A' for Active; 'I' for Inactive)
REMARK    1  A    between atoms: N_2  and  C_1 
REMARK    2  A    between atoms: C_4  and  C_8 
REMARK       I    between atoms: N_5  and  C_4 
REMARK    3  A    between atoms: C_9  and  C_7 
REMARK    4  A    between atoms: C_8  and  C_9 
ROOT
ATOM      1  C   UNL d   1      57.641  -0.247  31.227  0.00  0.00     0.062 C 
ENDROOT
BRANCH   1   2
ATOM      2  C   UNL d   1      57.471   0.046  31.959  0.00  0.00     0.265 C 
ATOM      3  N   UNL d   1      56.873  -0.289  32.409  0.00  0.00    -0.272 N 
ATOM      4  C   UNL d   1      56.445  -0.926  32.117  0.00  0.00     0.083 A 
ATOM      5  C   UNL d   1      56.696   0.013  33.165  0.00  0.00     0.083 A 
ATOM      6  C   UNL d   1      55.844  -1.269  32.561  0.00  0.00     0.019 A 
ATOM      7  C   UNL d   1      55.667  -0.972  33.309  0.00  0.00     0.003 A 
ATOM      8  C   UNL d   1      56.093  -0.331  33.611  0.00  0.00     0.019 A 
ATOM      9  O   UNL d   1      57.899   0.682  32.248  0.00  0.00    -0.267 OA
ENDBRANCH   1   2
BRANCH   1  10
ATOM     10  C   UNL d   1      58.114   0.241  30.685  0.00  0.00     0.011 C 
BRANCH  10  11
ATOM     11  C   UNL d   1      58.378  -0.066  29.944  0.00  0.00     0.031 A 
ATOM     12  S   UNL d   1      58.950  -0.614  29.855  0.00  0.00    -0.064 SA
ATOM     13  C   UNL d   1      59.030  -0.754  29.042  0.00  0.00     0.156 A 
ATOM     14  C   UNL d   1      58.484  -0.267  28.660  0.00  0.00     0.031 A 
ATOM     15  C   UNL d   1      58.099   0.141  29.208  0.00  0.00     0.009 A 
BRANCH  13  16
ATOM     16  N   UNL d   1      59.563  -1.288  28.662  0.00  0.00    -0.107 N 
ATOM     17  O   UNL d   1      60.350  -1.041  28.484  0.00  0.00    -0.531 OA
ATOM     18  O   UNL d   1      59.317  -2.068  28.459  0.00  0.00    -0.531 OA
ENDBRANCH  13  16
ENDBRANCH  10  11
ENDBRANCH   1  10
TORSDOF 4
ENDMDL
MODEL 5
REMARK VINA RESULT:      -2.9      9.240     10.070
REMARK  4 active torsions:
REMARK  status: ('A' for Active; 'I' for Inactive)
REMARK    1  A    between atoms: N_2  and  C_1 
REMARK    2  A    between atoms: C_4  and  C_8 
REMARK       I    between atoms: N_5  and  C_4 
REMARK    3  A    between atoms: C_9  and  C_7 
REMARK    4  A    between atoms: C_8  and  C_9 
ROOT
ATOM      1  C   UNL d   1      59.337  -9.201  33.796  0.00  0.00     0.062 C 
ENDROOT
BRANCH   1   2
ATOM      2  C   UNL d   1      59.898  -9.126  34.370  0.00  0.00     0.265 C 
ATOM      3  N   UNL d   1      59.818  -8.555  34.953  0.00  0.00    -0.272 N 
ATOM      4  C   UNL d   1      59.165  -8.056  34.955  0.00  0.00     0.083 A 
ATOM      5  C   UNL d   1      60.398  -8.475  35.546  0.00  0.00     0.083 A 
ATOM      6  C   UNL d   1      59.077  -7.480  35.535  0.00  0.00     0.019 A 
ATOM      7  C   UNL d   1      59.648  -7.400  36.123  0.00  0.00     0.003 A 
ATOM      8  C   UNL d   1      60.309  -7.897  36.129  0.00  0.00     0.019 A 
ATOM      9  O   UNL d   1      60.548  -9.624  34.366  0.00  0.00    -0.267 OA
ENDBRANCH   1   2
BRANCH   1  10
ATOM     10  C   UNL d   1      59.443  -9.818  33.192  0.00  0.00     0.011 C 
BRANCH  10  11
ATOM     11  C   UNL d   1      58.981  -9.814  32.485  0.00  0.00     0.031 A 
ATOM     12  S   UNL d   1      59.281  -9.807  31.745  0.00  0.00    -0.064 SA
ATOM     13  C   UNL d   1      58.639  -9.806  31.221  0.00  0.00     0.156 A 
ATOM     14  C   UNL d   1      57.953  -9.813  31.682  0.00  0.00     0.031 A 
ATOM     15  C   UNL d   1      58.169  -9.818  32.436  0.00  0.00     0.009 A 
BRANCH  13  16
ATOM     16  N   UNL d   1      58.664  -9.799  30.377  0.00  0.00    -0.107 N 
ATOM     17  O   UNL d   1      57.945  -9.781  29.936  0.00  0.00    -0.531 OA
ATOM     18  O   UNL d   1      59.401  -9.810  29.969  0.00  0.00    -0.531 OA
ENDBRANCH  13  16
ENDBRANCH  10  11
ENDBRANCH   1  10
TORSDOF 4
ENDMDL
MODEL 6
REMARK VINA RESULT:      -2.5      1.902      4.978
REMARK  4 active torsions:
REMARK  status: ('A' for Active; 'I' for Inactive)
REMARK    1  A    between atoms: N_2  and  C_1 
REMARK    2  A    between atoms: C_4  and  C_8 
REMARK       I    between atoms: N_5  and  C_4 
REMARK    3  A    between atoms: C_9  and  C_7 
REMARK    4  A    between atoms: C_8  and  C_9 
ROOT
ATOM      1  C   UNL d   1      56.642   0.451  33.257  0.00  0.00     0.062 C 
ENDROOT
BRANCH   1   2
ATOM      2  C   UNL d   1      56.395   0.486  34.024  0.00  0.00     0.265 C 
ATOM      3  N   UNL d   1      55.597   0.551  34.199  0.00  0.00    -0.272 N 
ATOM      4  C   UNL d   1      55.043   0.580  33.592  0.00  0.00     0.083 A 
ATOM      5  C   UNL d   1      55.341   0.587  34.991  0.00  0.00     0.083 A 
ATOM      6  C   UNL d   1      54.241   0.644  33.758  0.00  0.00     0.019 A 
ATOM      7  C   UNL d   1      53.985   0.681  34.540  0.00  0.00     0.003 A 
ATOM      8  C   UNL d   1      54.535   0.652  35.157  0.00  0.00     0.019 A 
ATOM      9  O   UNL d   1      56.949   0.457  34.628  0.00  0.00    -0.267 OA
ENDBRANCH   1   2
BRANCH   1  10
ATOM     10  C   UNL d   1      57.461   0.679  33.075  0.00  0.00     0.011 C 
BRANCH  10  11
ATOM     11  C   UNL d   1      57.780   0.566  32.301  0.00  0.00     0.031 A 
ATOM     12  S   UNL d   1      57.361   0.323  31.667  0.00  0.00    -0.064 SA
ATOM     13  C   UNL d   1      57.886   0.287  31.027  0.00  0.00     0.156 A 
ATOM     14  C   UNL d   1      58.626   0.517  31.310  0.00  0.00     0.031 A 
ATOM     15  C   UNL d   1      58.552   0.682  32.074  0.00  0.00     0.009 A 
BRANCH  13  16
ATOM     16  N   UNL d   1      57.713   0.060  30.231  0.00  0.00    -0.107 N 
ATOM     17  O   UNL d   1      57.465   0.642  29.673  0.00  0.00    -0.531 OA
ATOM     18  O   UNL d   1      57.785  -0.744  29.988  0.00  0.00    -0.531 OA
ENDBRANCH  13  16
ENDBRANCH  10  11
ENDBRANCH   1  10
TORSDOF 4
ENDMDL
MODEL 7
REMARK VINA RESULT:      -2.5      1.968      2.823
REMARK  4 active torsions:
REMARK  status: ('A' for Active; 'I' for Inactive)
REMARK    1  A    between atoms: N_2  and  C_1 
REMARK    2  A    between atoms: C_4  and  C_8 
REMARK       I    between atoms: N_5  and  C_4 
REMARK    3  A    between atoms: C_9  and  C_7 
REMARK    4  A    between atoms: C_8  and  C_9 
ROOT
ATOM      1  C   UNL d   1      58.904  -1.784  29.329  0.00  0.00     0.062 C 
ENDROOT
BRANCH   1   2
ATOM      2  C   UNL d   1      58.942  -2.546  29.069  0.00  0.00     0.265 C 
ATOM      3  N   UNL d   1      59.666  -2.892  28.904  0.00  0.00    -0.272 N 
ATOM      4  C   UNL d   1      60.360  -2.462  29.003  0.00  0.00     0.083 A 
ATOM      5  C   UNL d   1      59.706  -3.679  28.635  0.00  0.00     0.083 A 
ATOM      6  C   UNL d   1      61.091  -2.800  28.840  0.00  0.00     0.019 A 
ATOM      7  C   UNL d   1      61.133  -3.578  28.574  0.00  0.00     0.003 A 
ATOM      8  C   UNL d   1      60.440  -4.018  28.471  0.00  0.00     0.019 A 
ATOM      9  O   UNL d   1      58.249  -2.973  28.971  0.00  0.00    -0.267 OA
ENDBRANCH   1   2
BRANCH   1  10
ATOM     10  C   UNL d   1      58.142  -1.482  29.617  0.00  0.00     0.011 C 
BRANCH  10  11
ATOM     11  C   UNL d   1      58.101  -0.767  30.065  0.00  0.00     0.031 A 
ATOM     12  S   UNL d   1      57.732  -0.690  30.769  0.00  0.00    -0.064 SA
ATOM     13  C   UNL d   1      57.828   0.097  31.010  0.00  0.00     0.156 A 
ATOM     14  C   UNL d   1      58.265   0.477  30.422  0.00  0.00     0.031 A 
ATOM     15  C   UNL d   1      58.424  -0.048  29.861  0.00  0.00     0.009 A 
BRANCH  13  16
ATOM     16  N   UNL d   1      57.539   0.456  31.718  0.00  0.00    -0.107 N 
ATOM     17  O   UNL d   1      58.079   0.682  32.325  0.00  0.00    -0.531 OA
ATOM     18  O   UNL d   1      56.714   0.593  31.825  0.00  0.00    -0.531 OA
ENDBRANCH  13  16
ENDBRANCH  10  11
ENDBRANCH   1  10
TORSDOF 4
ENDMDL
