MODEL 1
REMARK VINA RESULT:     125.4      0.000      0.000
REMARK  9 active torsions:
REMARK  status: ('A' for Active; 'I' for Inactive)
REMARK    1  A    between atoms: C_7  and  C_1 
REMARK    2  A    between atoms: C_9  and  N_2 
REMARK    3  A    between atoms: C_14  and  C_7 
REMARK    4  A    between atoms: C_8  and  C_9 
REMARK       I    between atoms: N_11  and  C_8 
REMARK    5  A    between atoms: C_10  and  N_11 
REMARK    6  A    between atoms: O_30  and  C_19 
REMARK    7  A    between atoms: O_31  and  C_20 
REMARK    8  A    between atoms: C_32  and  C_25 
REMARK    9  A    between atoms: C_33  and  C_29 
ROOT
ATOM      1  C   UNL d   1     -55.590-102.270 -42.025  0.00  0.00     0.095 A 
ATOM      2  N   UNL d   1     -55.389-102.496 -40.630  0.00  0.00    -0.300 N 
ATOM      3  C   UNL d   1     -56.420-102.170 -41.872  0.00  0.00     0.202 A 
ATOM      4  C   UNL d   1     -55.075-102.433 -41.404  0.00  0.00     0.087 A 
ATOM      5  C   UNL d   1     -56.708-102.238 -41.088  0.00  0.00     0.055 A 
ATOM      6  C   UNL d   1     -56.203-102.400 -40.459  0.00  0.00     0.067 A 
ATOM      7  C   UNL d   1     -56.507-102.463 -39.693  0.00  0.00     0.018 A 
ATOM      8  C   UNL d   1     -57.530-102.140 -40.926  0.00  0.00     0.005 A 
ATOM      9  O   UNL d   1     -56.927-102.010 -42.483  0.00  0.00    -0.286 OA
ATOM     10  C   UNL d   1     -57.820-102.205 -40.156  0.00  0.00     0.000 A 
ATOM     11  C   UNL d   1     -57.312-102.365 -39.545  0.00  0.00     0.002 A 
ENDROOT
BRANCH   2  12
ATOM     12  C   UNL d   1     -54.873-102.658 -40.010  0.00  0.00     0.144 C 
BRANCH  12  13
ATOM     13  C   UNL d   1     -55.073-102.444 -39.242  0.00  0.00     0.297 C 
ATOM     14  N   UNL d   1     -54.713-101.794 -38.889  0.00  0.00    -0.207 NA
ATOM     15  O   UNL d   1     -55.633-102.880 -38.828  0.00  0.00    -0.264 OA
BRANCH  14  16
ATOM     16  C   UNL d   1     -54.917-101.580 -38.115  0.00  0.00     0.089 A 
ATOM     17  C   UNL d   1     -55.177-102.149 -37.594  0.00  0.00     0.043 A 
ATOM     18  C   UNL d   1     -55.379-101.944 -36.830  0.00  0.00     0.098 A 
ATOM     19  C   UNL d   1     -55.319-101.149 -36.581  0.00  0.00     0.049 A 
ATOM     20  C   UNL d   1     -55.057-100.579 -37.111  0.00  0.00     0.098 A 
ATOM     21  C   UNL d   1     -54.853-100.792 -37.885  0.00  0.00     0.043 A 
BRANCH  18  22
ATOM     22  O   UNL d   1     -55.640-102.514 -36.304  0.00  0.00    -0.328 OA
ATOM     23  C   UNL d   1     -55.508-102.416 -35.498  0.00  0.00     0.181 C 
ENDBRANCH  18  22
BRANCH  20  24
ATOM     24  O   UNL d   1     -54.996 -99.805 -36.877  0.00  0.00    -0.328 OA
ATOM     25  C   UNL d   1     -54.893 -99.622 -36.083  0.00  0.00     0.181 C 
ENDBRANCH  20  24
ENDBRANCH  14  16
ENDBRANCH  12  13
ENDBRANCH   2  12
BRANCH   1  26
ATOM     26  C   UNL d   1     -55.297-102.205 -42.797  0.00  0.00     0.200 C 
ATOM     27  O   UNL d   1     -54.868-102.826 -43.126  0.00  0.00    -0.286 OA
BRANCH  26  28
ATOM     28  C   UNL d   1     -55.434-101.520 -43.237  0.00  0.00     0.039 A 
ATOM     29  C   UNL d   1     -56.174-101.392 -43.595  0.00  0.00     0.003 A 
ATOM     30  C   UNL d   1     -56.317-100.702 -44.040  0.00  0.00     0.000 A 
ATOM     31  C   UNL d   1     -55.720-100.142 -44.126  0.00  0.00     0.000 A 
ATOM     32  C   UNL d   1     -54.982-100.287 -43.759  0.00  0.00     0.000 A 
ATOM     33  C   UNL d   1     -54.839-100.977 -43.314  0.00  0.00     0.003 A 
BRANCH  31  34
ATOM     34  C   UNL d   1     -55.872 -99.462 -44.569  0.00  0.00     0.000 C 
ATOM     35  C   UNL d   1     -55.310 -99.230 -45.124  0.00  0.00     0.000 C 
ENDBRANCH  31  34
ENDBRANCH  26  28
ENDBRANCH   1  26
BRANCH  10  36
ATOM     36  C   UNL d   1     -58.625-102.107 -40.013  0.00  0.00     0.000 C 
ATOM     37  C   UNL d   1     -58.969-102.430 -39.329  0.00  0.00     0.000 C 
ENDBRANCH  10  36
TORSDOF 9
ENDMDL
