MODEL 1
REMARK VINA RESULT:     -10.7      0.000      0.000
REMARK  1 active torsions:
REMARK  status: ('A' for Active; 'I' for Inactive)
REMARK    1  A    between atoms: C_10  and  C_4 
ROOT
ATOM      1  C   UNL d   1      53.108  32.261  53.651  0.00  0.00     0.186 A 
ATOM      2  N   UNL d   1      52.812  32.892  53.189  0.00  0.00    -0.193 N 
ATOM      3  N   UNL d   1      53.503  32.420  54.358  0.00  0.00    -0.214 NA
ATOM      4  C   UNL d   1      52.917  31.558  53.253  0.00  0.00     0.140 A 
ATOM      5  N   UNL d   1      52.445  32.572  52.516  0.00  0.00    -0.058 NA
ATOM      6  N   UNL d   1      52.515  31.748  52.564  0.00  0.00    -0.127 NA
ATOM      7  C   UNL d   1      53.609  33.199  54.614  0.00  0.00     0.142 A 
ATOM      8  C   UNL d   1      53.313  33.821  54.151  0.00  0.00     0.046 A 
ATOM      9  C   UNL d   1      52.918  33.667  53.445  0.00  0.00     0.088 A 
ATOM     10 CL   UNL d   1      54.003  33.357  55.319  0.00  0.00    -0.061 Cl
ATOM     11  C   UNL d   1      53.420  34.595  54.408  0.00  0.00     0.004 A 
ATOM     12  C   UNL d   1      52.629  34.295  52.993  0.00  0.00     0.019 A 
ATOM     13  C   UNL d   1      53.131  35.219  53.957  0.00  0.00     0.000 A 
ATOM     14  C   UNL d   1      52.735  35.069  53.249  0.00  0.00     0.002 A 
ENDROOT
BRANCH   4  15
ATOM     15  C   UNL d   1      53.103  30.805  53.512  0.00  0.00     0.022 A 
ATOM     16  C   UNL d   1      52.548  30.369  53.939  0.00  0.00     0.002 A 
ATOM     17  C   UNL d   1      52.735  29.607  54.202  0.00  0.00     0.000 A 
ATOM     18  C   UNL d   1      53.477  29.286  54.037  0.00  0.00     0.000 A 
ATOM     19  C   UNL d   1      54.032  29.726  53.608  0.00  0.00     0.000 A 
ATOM     20  C   UNL d   1      53.664  28.529  54.298  0.00  0.00     0.000 C 
ATOM     21  C   UNL d   1      53.846  30.483  53.346  0.00  0.00     0.002 A 
ENDBRANCH   4  15
TORSDOF 1
ENDMDL
MODEL 2
REMARK VINA RESULT:     -10.5      1.934      3.872
REMARK  1 active torsions:
REMARK  status: ('A' for Active; 'I' for Inactive)
REMARK    1  A    between atoms: C_10  and  C_4 
ROOT
ATOM      1  C   UNL d   1      52.413  33.916  53.530  0.00  0.00     0.186 A 
ATOM      2  N   UNL d   1      52.979  34.249  54.047  0.00  0.00    -0.193 N 
ATOM      3  N   UNL d   1      52.443  33.111  53.352  0.00  0.00    -0.214 NA
ATOM      4  C   UNL d   1      51.907  34.531  53.295  0.00  0.00     0.140 A 
ATOM      5  N   UNL d   1      52.816  35.060  54.125  0.00  0.00    -0.058 NA
ATOM      6  N   UNL d   1      52.153  35.224  53.657  0.00  0.00    -0.127 NA
ATOM      7  C   UNL d   1      53.029  32.630  53.681  0.00  0.00     0.142 A 
ATOM      8  C   UNL d   1      53.588  32.965  54.194  0.00  0.00     0.046 A 
ATOM      9  C   UNL d   1      53.561  33.769  54.374  0.00  0.00     0.088 A 
ATOM     10 CL   UNL d   1      53.058  31.826  53.503  0.00  0.00    -0.061 Cl
ATOM     11  C   UNL d   1      54.170  32.485  54.521  0.00  0.00     0.004 A 
ATOM     12  C   UNL d   1      54.124  34.091  54.887  0.00  0.00     0.019 A 
ATOM     13  C   UNL d   1      54.729  32.807  55.031  0.00  0.00     0.000 A 
ATOM     14  C   UNL d   1      54.706  33.610  55.213  0.00  0.00     0.002 A 
ENDROOT
BRANCH   4  15
ATOM     15  C   UNL d   1      51.271  34.449  52.787  0.00  0.00     0.022 A 
ATOM     16  C   UNL d   1      50.503  34.433  53.089  0.00  0.00     0.002 A 
ATOM     17  C   UNL d   1      49.860  34.350  52.577  0.00  0.00     0.000 A 
ATOM     18  C   UNL d   1      49.988  34.284  51.764  0.00  0.00     0.000 A 
ATOM     19  C   UNL d   1      50.759  34.300  51.463  0.00  0.00     0.000 A 
ATOM     20  C   UNL d   1      49.348  34.201  51.253  0.00  0.00     0.000 C 
ATOM     21  C   UNL d   1      51.399  34.383  51.973  0.00  0.00     0.002 A 
ENDBRANCH   4  15
TORSDOF 1
ENDMDL
MODEL 3
REMARK VINA RESULT:     -10.5      2.136      3.649
REMARK  1 active torsions:
REMARK  status: ('A' for Active; 'I' for Inactive)
REMARK    1  A    between atoms: C_10  and  C_4 
ROOT
ATOM      1  C   UNL d   1      52.535  33.723  53.488  0.00  0.00     0.186 A 
ATOM      2  N   UNL d   1      53.159  33.180  53.613  0.00  0.00    -0.193 N 
ATOM      3  N   UNL d   1      52.529  34.441  53.894  0.00  0.00    -0.214 NA
ATOM      4  C   UNL d   1      52.021  33.379  52.934  0.00  0.00     0.140 A 
ATOM      5  N   UNL d   1      53.023  32.513  53.137  0.00  0.00    -0.058 NA
ATOM      6  N   UNL d   1      52.319  32.645  52.722  0.00  0.00    -0.127 NA
ATOM      7  C   UNL d   1      53.134  34.630  54.424  0.00  0.00     0.142 A 
ATOM      8  C   UNL d   1      53.751  34.088  54.544  0.00  0.00     0.046 A 
ATOM      9  C   UNL d   1      53.761  33.370  54.140  0.00  0.00     0.088 A 
ATOM     10 CL   UNL d   1      53.127  35.348  54.828  0.00  0.00    -0.061 Cl
ATOM     11  C   UNL d   1      54.353  34.278  55.071  0.00  0.00     0.004 A 
ATOM     12  C   UNL d   1      54.381  32.839  54.269  0.00  0.00     0.019 A 
ATOM     13  C   UNL d   1      54.969  33.748  55.197  0.00  0.00     0.000 A 
ATOM     14  C   UNL d   1      54.983  33.028  54.796  0.00  0.00     0.002 A 
ENDROOT
BRANCH   4  15
ATOM     15  C   UNL d   1      51.335  33.723  52.652  0.00  0.00     0.022 A 
ATOM     16  C   UNL d   1      51.336  34.098  51.917  0.00  0.00     0.002 A 
ATOM     17  C   UNL d   1      50.643  34.447  51.631  0.00  0.00     0.000 A 
ATOM     18  C   UNL d   1      49.951  34.417  52.081  0.00  0.00     0.000 A 
ATOM     19  C   UNL d   1      49.953  34.040  52.819  0.00  0.00     0.000 A 
ATOM     20  C   UNL d   1      49.261  34.764  51.797  0.00  0.00     0.000 C 
ATOM     21  C   UNL d   1      50.643  33.694  53.103  0.00  0.00     0.002 A 
ENDBRANCH   4  15
TORSDOF 1
ENDMDL
MODEL 4
REMARK VINA RESULT:      -8.8      0.870      3.906
REMARK  1 active torsions:
REMARK  status: ('A' for Active; 'I' for Inactive)
REMARK    1  A    between atoms: C_10  and  C_4 
ROOT
ATOM      1  C   UNL d   1      52.964  32.507  53.524  0.00  0.00     0.186 A 
ATOM      2  N   UNL d   1      52.758  31.892  52.996  0.00  0.00    -0.193 N 
ATOM      3  N   UNL d   1      53.355  32.329  54.229  0.00  0.00    -0.214 NA
ATOM      4  C   UNL d   1      52.701  33.218  53.184  0.00  0.00     0.140 A 
ATOM      5  N   UNL d   1      52.373  32.229  52.341  0.00  0.00    -0.058 NA
ATOM      6  N   UNL d   1      52.344  33.047  52.466  0.00  0.00    -0.127 NA
ATOM      7  C   UNL d   1      53.546  31.548  54.417  0.00  0.00     0.142 A 
ATOM      8  C   UNL d   1      53.339  30.942  53.890  0.00  0.00     0.046 A 
ATOM      9  C   UNL d   1      52.948  31.114  53.186  0.00  0.00     0.088 A 
ATOM     10 CL   UNL d   1      53.937  31.371  55.121  0.00  0.00    -0.061 Cl
ATOM     11  C   UNL d   1      53.530  30.164  54.079  0.00  0.00     0.004 A 
ATOM     12  C   UNL d   1      52.748  30.502  52.669  0.00  0.00     0.019 A 
ATOM     13  C   UNL d   1      53.329  29.556  53.563  0.00  0.00     0.000 A 
ATOM     14  C   UNL d   1      52.939  29.725  52.858  0.00  0.00     0.002 A 
ENDROOT
BRANCH   4  15
ATOM     15  C   UNL d   1      52.790  33.960  53.517  0.00  0.00     0.022 A 
ATOM     16  C   UNL d   1      52.148  34.321  53.889  0.00  0.00     0.002 A 
ATOM     17  C   UNL d   1      52.236  35.071  54.227  0.00  0.00     0.000 A 
ATOM     18  C   UNL d   1      52.965  35.456  54.189  0.00  0.00     0.000 A 
ATOM     19  C   UNL d   1      53.607  35.090  53.814  0.00  0.00     0.000 A 
ATOM     20  C   UNL d   1      53.053  36.202  54.524  0.00  0.00     0.000 C 
ATOM     21  C   UNL d   1      53.519  34.344  53.479  0.00  0.00     0.002 A 
ENDBRANCH   4  15
TORSDOF 1
ENDMDL
