MODEL 1
REMARK VINA RESULT:      -8.5      0.000      0.000
REMARK  4 active torsions:
REMARK  status: ('A' for Active; 'I' for Inactive)
REMARK    1  A    between atoms: C_7  and  C_1 
REMARK    2  A    between atoms: C_9  and  C_3 
REMARK    3  A    between atoms: O_13  and  C_7 
REMARK    4  A    between atoms: C_18  and  O_13 
ROOT
ATOM      1  C   UNL d   1     -47.667  13.487  22.874  0.00  0.00     0.099 A 
ATOM      2  C   UNL d   1     -46.912  13.775  22.946  0.00  0.00     0.093 A 
ATOM      3  C   UNL d   1     -47.831  12.684  23.076  0.00  0.00     0.093 A 
ATOM      4  C   UNL d   1     -46.467  12.494  23.414  0.00  0.00     0.369 A 
ATOM      5  N   UNL d   1     -46.295  13.270  23.221  0.00  0.00    -0.191 NA
ATOM      6  N   UNL d   1     -47.242  12.199  23.340  0.00  0.00    -0.191 NA
ATOM      7  O   UNL d   1     -45.841  12.008  23.686  0.00  0.00    -0.242 OA
ATOM      8  C   UNL d   1     -46.741  14.555  22.752  0.00  0.00     0.021 C 
ENDROOT
BRANCH   3   9
ATOM      9  C   UNL d   1     -48.609  12.387  23.003  0.00  0.00     0.018 A 
ATOM     10  C   UNL d   1     -49.094  12.320  23.687  0.00  0.00     0.002 A 
ATOM     11  C   UNL d   1     -49.858  12.029  23.615  0.00  0.00     0.000 A 
ATOM     12  C   UNL d   1     -50.142  11.801  22.858  0.00  0.00     0.000 A 
ATOM     13  C   UNL d   1     -49.664  11.870  22.203  0.00  0.00     0.000 A 
ATOM     14  C   UNL d   1     -48.890  12.165  22.276  0.00  0.00     0.002 A 
ENDBRANCH   3   9
BRANCH   1  15
ATOM     15  C   UNL d   1     -48.282  13.985  22.601  0.00  0.00     0.303 C 
ATOM     16  O   UNL d   1     -48.532  13.957  21.816  0.00  0.00    -0.259 OA
BRANCH  15  17
ATOM     17  O   UNL d   1     -48.631  14.498  23.124  0.00  0.00    -0.271 OA
BRANCH  17  18
ATOM     18  C   UNL d   1     -48.994  15.185  22.844  0.00  0.00     0.126 C 
ATOM     19  C   UNL d   1     -49.526  15.582  23.306  0.00  0.00     0.029 C 
ENDBRANCH  17  18
ENDBRANCH  15  17
ENDBRANCH   1  15
TORSDOF 4
ENDMDL
MODEL 2
REMARK VINA RESULT:      -7.5      1.010      2.359
REMARK  4 active torsions:
REMARK  status: ('A' for Active; 'I' for Inactive)
REMARK    1  A    between atoms: C_7  and  C_1 
REMARK    2  A    between atoms: C_9  and  C_3 
REMARK    3  A    between atoms: O_13  and  C_7 
REMARK    4  A    between atoms: C_18  and  O_13 
ROOT
ATOM      1  C   UNL d   1     -48.123  12.764  22.966  0.00  0.00     0.099 A 
ATOM      2  C   UNL d   1     -47.548  12.226  23.160  0.00  0.00     0.093 A 
ATOM      3  C   UNL d   1     -47.945  13.589  22.970  0.00  0.00     0.093 A 
ATOM      4  C   UNL d   1     -46.616  13.296  23.366  0.00  0.00     0.369 A 
ATOM      5  N   UNL d   1     -46.775  12.494  23.365  0.00  0.00    -0.191 NA
ATOM      6  N   UNL d   1     -47.205  13.848  23.166  0.00  0.00    -0.191 NA
ATOM      7  O   UNL d   1     -45.842  13.542  23.572  0.00  0.00    -0.242 OA
ATOM      8  C   UNL d   1     -47.711  11.420  23.160  0.00  0.00     0.021 C 
ENDROOT
BRANCH   3   9
ATOM      9  C   UNL d   1     -48.537  14.144  22.770  0.00  0.00     0.018 A 
ATOM     10  C   UNL d   1     -48.952  14.547  23.382  0.00  0.00     0.002 A 
ATOM     11  C   UNL d   1     -49.534  15.092  23.185  0.00  0.00     0.000 A 
ATOM     12  C   UNL d   1     -49.705  15.238  22.376  0.00  0.00     0.000 A 
ATOM     13  C   UNL d   1     -49.297  14.842  21.793  0.00  0.00     0.000 A 
ATOM     14  C   UNL d   1     -48.707  14.290  21.992  0.00  0.00     0.002 A 
ENDBRANCH   3   9
BRANCH   1  15
ATOM     15  C   UNL d   1     -48.892  12.502  22.762  0.00  0.00     0.303 C 
ATOM     16  O   UNL d   1     -49.124  12.442  21.973  0.00  0.00    -0.259 OA
BRANCH  15  17
ATOM     17  O   UNL d   1     -49.408  12.307  23.357  0.00  0.00    -0.271 OA
BRANCH  17  18
ATOM     18  C   UNL d   1     -50.011  11.761  23.213  0.00  0.00     0.126 C 
ATOM     19  C   UNL d   1     -50.658  11.731  23.697  0.00  0.00     0.029 C 
ENDBRANCH  17  18
ENDBRANCH  15  17
ENDBRANCH   1  15
TORSDOF 4
ENDMDL
MODEL 3
REMARK VINA RESULT:      -7.4      1.421      2.854
REMARK  4 active torsions:
REMARK  status: ('A' for Active; 'I' for Inactive)
REMARK    1  A    between atoms: C_7  and  C_1 
REMARK    2  A    between atoms: C_9  and  C_3 
REMARK    3  A    between atoms: O_13  and  C_7 
REMARK    4  A    between atoms: C_18  and  O_13 
ROOT
ATOM      1  C   UNL d   1     -47.719  12.533  23.241  0.00  0.00     0.099 A 
ATOM      2  C   UNL d   1     -47.613  11.781  23.524  0.00  0.00     0.093 A 
ATOM      3  C   UNL d   1     -48.497  12.811  23.066  0.00  0.00     0.093 A 
ATOM      4  C   UNL d   1     -49.029  11.560  23.469  0.00  0.00     0.369 A 
ATOM      5  N   UNL d   1     -48.281  11.279  23.642  0.00  0.00    -0.191 NA
ATOM      6  N   UNL d   1     -49.138  12.333  23.179  0.00  0.00    -0.191 NA
ATOM      7  O   UNL d   1     -49.681  11.048  23.593  0.00  0.00    -0.242 OA
ATOM      8  C   UNL d   1     -46.861  11.500  23.698  0.00  0.00     0.021 C 
ENDROOT
BRANCH   3   9
ATOM      9  C   UNL d   1     -48.606  13.587  22.775  0.00  0.00     0.018 A 
ATOM     10  C   UNL d   1     -48.675  13.712  21.946  0.00  0.00     0.002 A 
ATOM     11  C   UNL d   1     -48.782  14.474  21.659  0.00  0.00     0.000 A 
ATOM     12  C   UNL d   1     -48.822  15.116  22.200  0.00  0.00     0.000 A 
ATOM     13  C   UNL d   1     -48.754  14.982  23.000  0.00  0.00     0.000 A 
ATOM     14  C   UNL d   1     -48.645  14.210  23.290  0.00  0.00     0.002 A 
ENDBRANCH   3   9
BRANCH   1  15
ATOM     15  C   UNL d   1     -47.059  13.034  23.123  0.00  0.00     0.303 C 
ATOM     16  O   UNL d   1     -46.875  13.628  23.664  0.00  0.00    -0.259 OA
BRANCH  15  17
ATOM     17  O   UNL d   1     -46.600  12.926  22.462  0.00  0.00    -0.271 OA
BRANCH  17  18
ATOM     18  C   UNL d   1     -45.823  13.208  22.452  0.00  0.00     0.126 C 
ATOM     19  C   UNL d   1     -45.339  13.047  21.824  0.00  0.00     0.029 C 
ENDBRANCH  17  18
ENDBRANCH  15  17
ENDBRANCH   1  15
TORSDOF 4
ENDMDL
MODEL 4
REMARK VINA RESULT:      -7.1      1.260      2.526
REMARK  4 active torsions:
REMARK  status: ('A' for Active; 'I' for Inactive)
REMARK    1  A    between atoms: C_7  and  C_1 
REMARK    2  A    between atoms: C_9  and  C_3 
REMARK    3  A    between atoms: O_13  and  C_7 
REMARK    4  A    between atoms: C_18  and  O_13 
ROOT
ATOM      1  C   UNL d   1     -49.102  13.057  22.802  0.00  0.00     0.099 A 
ATOM      2  C   UNL d   1     -49.808  12.683  22.938  0.00  0.00     0.093 A 
ATOM      3  C   UNL d   1     -48.377  12.657  22.965  0.00  0.00     0.093 A 
ATOM      4  C   UNL d   1     -49.105  11.520  23.396  0.00  0.00     0.369 A 
ATOM      5  N   UNL d   1     -49.815  11.896  23.242  0.00  0.00    -0.191 NA
ATOM      6  N   UNL d   1     -48.380  11.904  23.256  0.00  0.00    -0.191 NA
ATOM      7  O   UNL d   1     -49.132  10.739  23.698  0.00  0.00    -0.242 OA
ATOM      8  C   UNL d   1     -50.520  13.063  22.782  0.00  0.00     0.021 C 
ENDROOT
BRANCH   3   9
ATOM      9  C   UNL d   1     -47.648  13.042  22.825  0.00  0.00     0.018 A 
ATOM     10  C   UNL d   1     -47.250  13.421  23.462  0.00  0.00     0.002 A 
ATOM     11  C   UNL d   1     -46.534  13.799  23.324  0.00  0.00     0.000 A 
ATOM     12  C   UNL d   1     -46.212  13.802  22.549  0.00  0.00     0.000 A 
ATOM     13  C   UNL d   1     -46.607  13.432  21.940  0.00  0.00     0.000 A 
ATOM     14  C   UNL d   1     -47.332  13.049  22.080  0.00  0.00     0.002 A 
ENDBRANCH   3   9
BRANCH   1  15
ATOM     15  C   UNL d   1     -49.091  13.838  22.500  0.00  0.00     0.303 C 
ATOM     16  O   UNL d   1     -48.946  13.981  21.701  0.00  0.00    -0.259 OA
BRANCH  15  17
ATOM     17  O   UNL d   1     -49.227  14.455  23.009  0.00  0.00    -0.271 OA
BRANCH  17  18
ATOM     18  C   UNL d   1     -49.511  15.173  22.715  0.00  0.00     0.126 C 
ATOM     19  C   UNL d   1     -49.693  15.777  23.221  0.00  0.00     0.029 C 
ENDBRANCH  17  18
ENDBRANCH  15  17
ENDBRANCH   1  15
TORSDOF 4
ENDMDL
MODEL 5
REMARK VINA RESULT:      -6.7      1.213      1.645
REMARK  4 active torsions:
REMARK  status: ('A' for Active; 'I' for Inactive)
REMARK    1  A    between atoms: C_7  and  C_1 
REMARK    2  A    between atoms: C_9  and  C_3 
REMARK    3  A    between atoms: O_13  and  C_7 
REMARK    4  A    between atoms: C_18  and  O_13 
ROOT
ATOM      1  C   UNL d   1     -48.374  14.084  22.738  0.00  0.00     0.099 A 
ATOM      2  C   UNL d   1     -47.995  14.796  22.659  0.00  0.00     0.093 A 
ATOM      3  C   UNL d   1     -47.924  13.373  22.806  0.00  0.00     0.093 A 
ATOM      4  C   UNL d   1     -46.728  14.126  22.711  0.00  0.00     0.369 A 
ATOM      5  N   UNL d   1     -47.152  14.822  22.645  0.00  0.00    -0.191 NA
ATOM      6  N   UNL d   1     -47.117  13.396  22.792  0.00  0.00    -0.191 NA
ATOM      7  O   UNL d   1     -45.891  14.173  22.695  0.00  0.00    -0.242 OA
ATOM      8  C   UNL d   1     -48.423  15.494  22.592  0.00  0.00     0.021 C 
ENDROOT
BRANCH   3   9
ATOM      9  C   UNL d   1     -48.316  12.639  22.887  0.00  0.00     0.018 A 
ATOM     10  C   UNL d   1     -48.439  12.157  22.209  0.00  0.00     0.002 A 
ATOM     11  C   UNL d   1     -48.824  11.436  22.289  0.00  0.00     0.000 A 
ATOM     12  C   UNL d   1     -49.087  11.192  23.048  0.00  0.00     0.000 A 
ATOM     13  C   UNL d   1     -48.962  11.666  23.697  0.00  0.00     0.000 A 
ATOM     14  C   UNL d   1     -48.573  12.397  23.616  0.00  0.00     0.002 A 
ENDBRANCH   3   9
BRANCH   1  15
ATOM     15  C   UNL d   1     -49.211  14.054  22.752  0.00  0.00     0.303 C 
ATOM     16  O   UNL d   1     -49.621  13.990  23.465  0.00  0.00    -0.259 OA
BRANCH  15  17
ATOM     17  O   UNL d   1     -49.615  14.088  22.050  0.00  0.00    -0.271 OA
BRANCH  17  18
ATOM     18  C   UNL d   1     -50.390  14.376  22.036  0.00  0.00     0.126 C 
ATOM     19  C   UNL d   1     -50.866  14.235  21.397  0.00  0.00     0.029 C 
ENDBRANCH  17  18
ENDBRANCH  15  17
ENDBRANCH   1  15
TORSDOF 4
ENDMDL
MODEL 6
REMARK VINA RESULT:      -6.6      1.574      3.301
REMARK  4 active torsions:
REMARK  status: ('A' for Active; 'I' for Inactive)
REMARK    1  A    between atoms: C_7  and  C_1 
REMARK    2  A    between atoms: C_9  and  C_3 
REMARK    3  A    between atoms: O_13  and  C_7 
REMARK    4  A    between atoms: C_18  and  O_13 
ROOT
ATOM      1  C   UNL d   1     -49.088  13.495  22.471  0.00  0.00     0.099 A 
ATOM      2  C   UNL d   1     -49.862  13.736  22.447  0.00  0.00     0.093 A 
ATOM      3  C   UNL d   1     -48.472  14.068  22.543  0.00  0.00     0.093 A 
ATOM      4  C   UNL d   1     -49.441  15.102  22.564  0.00  0.00     0.369 A 
ATOM      5  N   UNL d   1     -50.047  14.558  22.495  0.00  0.00    -0.191 NA
ATOM      6  N   UNL d   1     -48.647  14.855  22.589  0.00  0.00    -0.191 NA
ATOM      7  O   UNL d   1     -49.645  15.914  22.610  0.00  0.00    -0.242 OA
ATOM      8  C   UNL d   1     -50.470  13.187  22.377  0.00  0.00     0.021 C 
ENDROOT
BRANCH   3   9
ATOM      9  C   UNL d   1     -47.674  13.820  22.568  0.00  0.00     0.018 A 
ATOM     10  C   UNL d   1     -47.279  13.765  23.309  0.00  0.00     0.002 A 
ATOM     11  C   UNL d   1     -46.496  13.522  23.333  0.00  0.00     0.000 A 
ATOM     12  C   UNL d   1     -46.101  13.331  22.616  0.00  0.00     0.000 A 
ATOM     13  C   UNL d   1     -46.494  13.387  21.905  0.00  0.00     0.000 A 
ATOM     14  C   UNL d   1     -47.288  13.634  21.881  0.00  0.00     0.002 A 
ENDBRANCH   3   9
BRANCH   1  15
ATOM     15  C   UNL d   1     -48.900  12.680  22.424  0.00  0.00     0.303 C 
ATOM     16  O   UNL d   1     -48.677  12.338  21.709  0.00  0.00    -0.259 OA
BRANCH  15  17
ATOM     17  O   UNL d   1     -48.942  12.231  23.099  0.00  0.00    -0.271 OA
BRANCH  17  18
ATOM     18  C   UNL d   1     -49.116  11.425  23.044  0.00  0.00     0.126 C 
ATOM     19  C   UNL d   1     -49.067  10.952  23.698  0.00  0.00     0.029 C 
ENDBRANCH  17  18
ENDBRANCH  15  17
ENDBRANCH   1  15
TORSDOF 4
ENDMDL
MODEL 7
REMARK VINA RESULT:      -6.2      1.476      2.493
REMARK  4 active torsions:
REMARK  status: ('A' for Active; 'I' for Inactive)
REMARK    1  A    between atoms: C_7  and  C_1 
REMARK    2  A    between atoms: C_9  and  C_3 
REMARK    3  A    between atoms: O_13  and  C_7 
REMARK    4  A    between atoms: C_18  and  O_13 
ROOT
ATOM      1  C   UNL d   1     -47.722  13.455  22.489  0.00  0.00     0.099 A 
ATOM      2  C   UNL d   1     -46.972  13.743  22.598  0.00  0.00     0.093 A 
ATOM      3  C   UNL d   1     -48.368  13.991  22.400  0.00  0.00     0.093 A 
ATOM      4  C   UNL d   1     -47.476  15.084  22.536  0.00  0.00     0.369 A 
ATOM      5  N   UNL d   1     -46.841  14.576  22.623  0.00  0.00    -0.191 NA
ATOM      6  N   UNL d   1     -48.246  14.789  22.424  0.00  0.00    -0.191 NA
ATOM      7  O   UNL d   1     -47.327  15.908  22.563  0.00  0.00    -0.242 OA
ATOM      8  C   UNL d   1     -46.335  13.230  22.685  0.00  0.00     0.021 C 
ENDROOT
BRANCH   3   9
ATOM      9  C   UNL d   1     -49.142  13.695  22.288  0.00  0.00     0.018 A 
ATOM     10  C   UNL d   1     -49.397  13.483  21.514  0.00  0.00     0.002 A 
ATOM     11  C   UNL d   1     -50.156  13.193  21.403  0.00  0.00     0.000 A 
ATOM     12  C   UNL d   1     -50.667  13.111  22.066  0.00  0.00     0.000 A 
ATOM     13  C   UNL d   1     -50.409  13.318  22.809  0.00  0.00     0.000 A 
ATOM     14  C   UNL d   1     -49.639  13.613  22.921  0.00  0.00     0.002 A 
ENDBRANCH   3   9
BRANCH   1  15
ATOM     15  C   UNL d   1     -47.856  12.629  22.464  0.00  0.00     0.303 C 
ATOM     16  O   UNL d   1     -47.956  12.238  21.745  0.00  0.00    -0.259 OA
BRANCH  15  17
ATOM     17  O   UNL d   1     -47.885  12.217  23.162  0.00  0.00    -0.271 OA
BRANCH  17  18
ATOM     18  C   UNL d   1     -47.621  11.434  23.187  0.00  0.00     0.126 C 
ATOM     19  C   UNL d   1     -47.967  10.904  23.691  0.00  0.00     0.029 C 
ENDBRANCH  17  18
ENDBRANCH  15  17
ENDBRANCH   1  15
TORSDOF 4
ENDMDL
MODEL 8
REMARK VINA RESULT:      -5.7      8.499     10.001
REMARK  4 active torsions:
REMARK  status: ('A' for Active; 'I' for Inactive)
REMARK    1  A    between atoms: C_7  and  C_1 
REMARK    2  A    between atoms: C_9  and  C_3 
REMARK    3  A    between atoms: O_13  and  C_7 
REMARK    4  A    between atoms: C_18  and  O_13 
ROOT
ATOM      1  C   UNL d   1     -39.727  14.917  17.875  0.00  0.00     0.099 A 
ATOM      2  C   UNL d   1     -39.695  14.924  17.065  0.00  0.00     0.093 A 
ATOM      3  C   UNL d   1     -40.443  15.131  18.269  0.00  0.00     0.093 A 
ATOM      4  C   UNL d   1     -41.064  15.350  17.014  0.00  0.00     0.369 A 
ATOM      5  N   UNL d   1     -40.377  15.145  16.620  0.00  0.00    -0.191 NA
ATOM      6  N   UNL d   1     -41.097  15.343  17.846  0.00  0.00    -0.191 NA
ATOM      7  O   UNL d   1     -41.730  15.566  16.555  0.00  0.00    -0.242 OA
ATOM      8  C   UNL d   1     -39.004  14.717  16.672  0.00  0.00     0.021 C 
ENDROOT
BRANCH   3   9
ATOM      9  C   UNL d   1     -40.476  15.124  19.104  0.00  0.00     0.018 A 
ATOM     10  C   UNL d   1     -40.773  14.445  19.502  0.00  0.00     0.002 A 
ATOM     11  C   UNL d   1     -40.805  14.438  20.323  0.00  0.00     0.000 A 
ATOM     12  C   UNL d   1     -40.541  15.111  20.751  0.00  0.00     0.000 A 
ATOM     13  C   UNL d   1     -40.256  15.762  20.356  0.00  0.00     0.000 A 
ATOM     14  C   UNL d   1     -40.223  15.769  19.524  0.00  0.00     0.002 A 
ENDBRANCH   3   9
BRANCH   1  15
ATOM     15  C   UNL d   1     -39.052  14.698  18.321  0.00  0.00     0.303 C 
ATOM     16  O   UNL d   1     -38.567  15.270  18.663  0.00  0.00    -0.259 OA
BRANCH  15  17
ATOM     17  O   UNL d   1     -38.883  13.910  18.410  0.00  0.00    -0.271 OA
BRANCH  17  18
ATOM     18  C   UNL d   1     -38.106  13.673  18.564  0.00  0.00     0.126 C 
ATOM     19  C   UNL d   1     -37.940  12.897  18.718  0.00  0.00     0.029 C 
ENDBRANCH  17  18
ENDBRANCH  15  17
ENDBRANCH   1  15
TORSDOF 4
ENDMDL
