MODEL 1
REMARK VINA RESULT:      90.8      0.000      0.000
REMARK  5 active torsions:
REMARK  status: ('A' for Active; 'I' for Inactive)
REMARK    1  A    between atoms: S_3  and  C_17 
REMARK    2  A    between atoms: N_11  and  S_3 
REMARK    3  A    between atoms: C_13  and  C_10 
REMARK    4  A    between atoms: C_12  and  N_11 
REMARK       I    between atoms: N_19  and  C_13 
REMARK    5  A    between atoms: C_31  and  N_19 
ROOT
ATOM      1  C   UNL d   1     -50.928  25.767  33.523  0.00  0.00     0.105 A 
ATOM      2  C   UNL d   1     -51.231  26.461  33.310  0.00  0.00     0.015 A 
ATOM      3  C   UNL d   1     -50.187  25.729  33.844  0.00  0.00     0.015 A 
ATOM      4  C   UNL d   1     -50.093  27.083  33.723  0.00  0.00     0.085 A 
ATOM      5  C   UNL d   1     -49.789  26.392  33.936  0.00  0.00     0.020 A 
ATOM      6  C   UNL d   1     -50.803  27.144  33.412  0.00  0.00     0.020 A 
ENDROOT
BRANCH   4   7
ATOM      7  N   UNL d   1     -49.706  27.743  33.811  0.00  0.00    -0.208 NA
ATOM      8  C   UNL d   1     -49.348  27.920  34.539  0.00  0.00     0.285 C 
ATOM      9  O   UNL d   1     -49.408  27.382  35.178  0.00  0.00    -0.265 OA
BRANCH   8  10
ATOM     10  C   UNL d   1     -48.925  28.635  34.643  0.00  0.00     0.089 A 
ATOM     11  C   UNL d   1     -49.056  29.343  34.239  0.00  0.00     0.018 A 
ATOM     12  C   UNL d   1     -48.503  29.907  34.522  0.00  0.00     0.081 A 
ATOM     13  C   UNL d   1     -48.033  29.534  35.105  0.00  0.00     0.117 A 
ATOM     14  C   UNL d   1     -48.373  30.702  34.325  0.00  0.00     0.268 A 
ATOM     15  N   UNL d   1     -47.436  29.964  35.482  0.00  0.00    -0.221 NA
ATOM     16  S   UNL d   1     -48.293  28.748  35.179  0.00  0.00    -0.063 SA
ATOM     17  C   UNL d   1     -47.299  30.764  35.289  0.00  0.00     0.151 A 
ATOM     18  N   UNL d   1     -47.769  31.127  34.711  0.00  0.00    -0.258 N 
ATOM     19  C   UNL d   1     -46.702  31.189  35.668  0.00  0.00     0.038 A 
ATOM     20  C   UNL d   1     -47.639  31.932  34.509  0.00  0.00     0.084 A 
ATOM     21  C   UNL d   1     -47.033  32.350  34.900  0.00  0.00     0.019 A 
ATOM     22  C   UNL d   1     -46.567  31.980  35.477  0.00  0.00     0.005 A 
ATOM     23  O   UNL d   1     -48.844  31.076  33.742  0.00  0.00    -0.267 OA
ENDBRANCH   8  10
ENDBRANCH   4   7
BRANCH   1  24
ATOM     24  S   UNL d   1     -51.336  25.140  33.422  0.00  0.00     0.287 S 
ATOM     25  O   UNL d   1     -51.376  24.073  33.307  0.00  0.00    -0.198 OA
ATOM     26  O   UNL d   1     -50.417  24.574  33.441  0.00  0.00    -0.198 OA
BRANCH  24  27
ATOM     27  N   UNL d   1     -52.336  25.177  33.341  0.00  0.00    -0.139 NA
BRANCH  27  28
ATOM     28  C   UNL d   1     -52.766  24.655  33.716  0.00  0.00     0.178 A 
ATOM     29  N   UNL d   1     -52.657  24.603  34.530  0.00  0.00    -0.207 NA
ATOM     30  C   UNL d   1     -53.117  24.049  34.913  0.00  0.00     0.164 A 
ATOM     31  C   UNL d   1     -53.024  23.992  35.663  0.00  0.00     0.042 C 
ATOM     32  N   UNL d   1     -53.668  23.560  34.509  0.00  0.00    -0.227 NA
ATOM     33  C   UNL d   1     -53.765  23.624  33.702  0.00  0.00     0.086 A 
ATOM     34  C   UNL d   1     -53.313  24.172  33.308  0.00  0.00     0.059 A 
ATOM     35  C   UNL d   1     -54.258  23.188  33.336  0.00  0.00     0.021 C 
ENDBRANCH  27  28
ENDBRANCH  24  27
ENDBRANCH   1  24
TORSDOF 5
ENDMDL
