MODEL 1
REMARK VINA RESULT:      61.7      0.000      0.000
REMARK  4 active torsions:
REMARK  status: ('A' for Active; 'I' for Inactive)
REMARK    1  A    between atoms: C_7  and  C_1 
REMARK    2  A    between atoms: N_6  and  C_3 
REMARK       I    between atoms: C_8  and  N_6 
REMARK    3  A    between atoms: C_12  and  C_8 
REMARK    4  A    between atoms: C_15  and  C_12 
ROOT
ATOM      1  C   UNL d   1     -49.901  26.811  33.957  0.00  0.00     0.206 A 
ATOM      2  O   UNL d   1     -49.631  26.938  34.724  0.00  0.00    -0.253 OA
ATOM      3  C   UNL d   1     -48.958  27.445  34.687  0.00  0.00     0.297 A 
ATOM      4  N   UNL d   1     -49.401  27.238  33.436  0.00  0.00    -0.119 NA
ATOM      5  N   UNL d   1     -48.828  27.621  33.893  0.00  0.00    -0.101 NA
ENDROOT
BRANCH   3   6
ATOM      6  N   UNL d   1     -48.530  27.703  35.317  0.00  0.00    -0.165 NA
ATOM      7  C   UNL d   1     -48.307  28.489  35.355  0.00  0.00     0.282 C 
ATOM      8  O   UNL d   1     -47.863  28.760  36.007  0.00  0.00    -0.265 OA
BRANCH   7   9
ATOM      9  C   UNL d   1     -48.512  29.019  34.762  0.00  0.00     0.063 C 
BRANCH   9  10
ATOM     10  C   UNL d   1     -48.254  29.801  34.788  0.00  0.00     0.005 A 
ATOM     11  C   UNL d   1     -47.596  30.008  35.255  0.00  0.00     0.003 A 
ATOM     12  C   UNL d   1     -47.345  30.795  35.275  0.00  0.00     0.030 A 
ATOM     13  C   UNL d   1     -47.732  31.374  34.843  0.00  0.00     0.140 A 
ATOM     14  C   UNL d   1     -48.384  31.169  34.381  0.00  0.00     0.030 A 
ATOM     15  F   UNL d   1     -47.481  32.153  34.865  0.00  0.00    -0.204 F 
ATOM     16  C   UNL d   1     -48.649  30.385  34.350  0.00  0.00     0.003 A 
ENDBRANCH   9  10
ENDBRANCH   7   9
ENDBRANCH   3   6
BRANCH   1  17
ATOM     17  C   UNL d   1     -50.539  26.355  33.743  0.00  0.00     0.043 A 
ATOM     18  C   UNL d   1     -51.282  26.723  33.601  0.00  0.00     0.004 A 
ATOM     19  C   UNL d   1     -51.932  26.267  33.384  0.00  0.00     0.000 A 
ATOM     20  C   UNL d   1     -51.361  27.533  33.677  0.00  0.00     0.000 C 
ATOM     21  C   UNL d   1     -51.858  25.445  33.306  0.00  0.00     0.000 A 
ATOM     22  C   UNL d   1     -51.115  25.089  33.450  0.00  0.00     0.000 A 
ATOM     23  C   UNL d   1     -50.465  25.558  33.667  0.00  0.00     0.004 A 
ATOM     24  C   UNL d   1     -51.017  24.274  33.378  0.00  0.00     0.000 C 
ENDBRANCH   1  17
TORSDOF 4
ENDMDL
