MODEL 1
REMARK VINA RESULT:      -0.1      0.000      0.000
REMARK  5 active torsions:
REMARK  status: ('A' for Active; 'I' for Inactive)
REMARK    1  A    between atoms: N_6  and  C_1 
REMARK    2  A    between atoms: C_8  and  C_4 
REMARK       I    between atoms: C_7  and  N_6 
REMARK    3  A    between atoms: C_13  and  C_7 
REMARK    4  A    between atoms: O_14  and  C_8 
REMARK    5  A    between atoms: C_18  and  O_14 
ROOT
ATOM      1  C   UNL d   1     -41.385-122.090 -51.184  0.00  0.00     0.124 A 
ATOM      2  C   UNL d   1     -41.345-121.471 -51.740  0.00  0.00     0.093 A 
ATOM      3  S   UNL d   1     -41.498-122.791 -51.602  0.00  0.00    -0.062 SA
ATOM      4  C   UNL d   1     -41.527-122.606 -52.405  0.00  0.00     0.095 A 
ATOM      5  C   UNL d   1     -41.433-121.797 -52.492  0.00  0.00     0.023 A 
ATOM      6  C   UNL d   1     -41.234-120.659 -51.554  0.00  0.00     0.103 C 
ATOM      7  N   UNL d   1     -41.125-119.867 -51.383  0.00  0.00    -0.191 NA
ATOM      8  C   UNL d   1     -41.427-121.377 -53.208  0.00  0.00     0.001 C 
ENDROOT
BRANCH   1   9
ATOM      9  N   UNL d   1     -41.323-122.009 -50.367  0.00  0.00    -0.201 NA
ATOM     10  C   UNL d   1     -41.890-122.360 -49.878  0.00  0.00     0.280 C 
ATOM     11  O   UNL d   1     -41.820-122.274 -49.067  0.00  0.00    -0.265 OA
BRANCH  10  12
ATOM     12  C   UNL d   1     -42.511-122.786 -50.200  0.00  0.00     0.058 C 
ATOM     13  C   UNL d   1     -43.196-122.396 -50.438  0.00  0.00     0.005 C 
ATOM     14  C   UNL d   1     -42.459-123.612 -50.290  0.00  0.00     0.005 C 
ENDBRANCH  10  12
ENDBRANCH   1   9
BRANCH   4  15
ATOM     15  C   UNL d   1     -41.632-123.145 -53.017  0.00  0.00     0.306 C 
ATOM     16  O   UNL d   1     -41.123-123.803 -53.093  0.00  0.00    -0.258 OA
BRANCH  15  17
ATOM     17  O   UNL d   1     -42.245-123.051 -53.572  0.00  0.00    -0.271 OA
BRANCH  17  18
ATOM     18  C   UNL d   1     -42.199-123.741 -54.029  0.00  0.00     0.126 C 
ATOM     19  C   UNL d   1     -42.335-123.707 -54.841  0.00  0.00     0.029 C 
ENDBRANCH  17  18
ENDBRANCH  15  17
ENDBRANCH   4  15
TORSDOF 5
ENDMDL
MODEL 2
REMARK VINA RESULT:       0.9      1.211      3.091
REMARK  5 active torsions:
REMARK  status: ('A' for Active; 'I' for Inactive)
REMARK    1  A    between atoms: N_6  and  C_1 
REMARK    2  A    between atoms: C_8  and  C_4 
REMARK       I    between atoms: C_7  and  N_6 
REMARK    3  A    between atoms: C_13  and  C_7 
REMARK    4  A    between atoms: O_14  and  C_8 
REMARK    5  A    between atoms: C_18  and  O_14 
ROOT
ATOM      1  C   UNL d   1     -42.023-121.955 -52.184  0.00  0.00     0.124 A 
ATOM      2  C   UNL d   1     -41.646-121.423 -51.665  0.00  0.00     0.093 A 
ATOM      3  S   UNL d   1     -42.186-122.642 -51.760  0.00  0.00    -0.062 SA
ATOM      4  C   UNL d   1     -41.913-122.535 -50.989  0.00  0.00     0.095 A 
ATOM      5  C   UNL d   1     -41.582-121.788 -50.928  0.00  0.00     0.023 A 
ATOM      6  C   UNL d   1     -41.383-120.652 -51.869  0.00  0.00     0.103 C 
ATOM      7  N   UNL d   1     -41.123-119.900 -52.057  0.00  0.00    -0.191 NA
ATOM      8  C   UNL d   1     -41.242-121.455 -50.249  0.00  0.00     0.001 C 
ENDROOT
BRANCH   1   9
ATOM      9  N   UNL d   1     -42.197-121.813 -52.976  0.00  0.00    -0.201 NA
ATOM     10  C   UNL d   1     -42.146-122.432 -53.522  0.00  0.00     0.280 C 
ATOM     11  O   UNL d   1     -42.320-122.282 -54.308  0.00  0.00    -0.265 OA
BRANCH  10  12
ATOM     12  C   UNL d   1     -41.924-123.182 -53.281  0.00  0.00     0.058 C 
ATOM     13  C   UNL d   1     -42.497-123.762 -53.166  0.00  0.00     0.005 C 
ATOM     14  C   UNL d   1     -41.123-123.369 -53.151  0.00  0.00     0.005 C 
ENDBRANCH  10  12
ENDBRANCH   1   9
BRANCH   4  15
ATOM     15  C   UNL d   1     -41.966-123.086 -50.382  0.00  0.00     0.306 C 
ATOM     16  O   UNL d   1     -41.277-123.353 -49.992  0.00  0.00    -0.258 OA
BRANCH  15  17
ATOM     17  O   UNL d   1     -42.701-123.393 -50.141  0.00  0.00    -0.271 OA
BRANCH  17  18
ATOM     18  C   UNL d   1     -42.520-123.810 -49.449  0.00  0.00     0.126 C 
ATOM     19  C   UNL d   1     -43.039-123.794 -48.809  0.00  0.00     0.029 C 
ENDBRANCH  17  18
ENDBRANCH  15  17
ENDBRANCH   4  15
TORSDOF 5
ENDMDL
MODEL 3
REMARK VINA RESULT:       2.0      1.396      3.263
REMARK  5 active torsions:
REMARK  status: ('A' for Active; 'I' for Inactive)
REMARK    1  A    between atoms: N_6  and  C_1 
REMARK    2  A    between atoms: C_8  and  C_4 
REMARK       I    between atoms: C_7  and  N_6 
REMARK    3  A    between atoms: C_13  and  C_7 
REMARK    4  A    between atoms: O_14  and  C_8 
REMARK    5  A    between atoms: C_18  and  O_14 
ROOT
ATOM      1  C   UNL d   1     -42.090-121.851 -53.242  0.00  0.00     0.124 A 
ATOM      2  C   UNL d   1     -41.663-121.366 -52.716  0.00  0.00     0.093 A 
ATOM      3  S   UNL d   1     -42.214-122.574 -52.868  0.00  0.00    -0.062 SA
ATOM      4  C   UNL d   1     -41.868-122.535 -52.120  0.00  0.00     0.095 A 
ATOM      5  C   UNL d   1     -41.529-121.796 -52.025  0.00  0.00     0.023 A 
ATOM      6  C   UNL d   1     -41.417-120.579 -52.874  0.00  0.00     0.103 C 
ATOM      7  N   UNL d   1     -41.173-119.811 -53.019  0.00  0.00    -0.191 NA
ATOM      8  C   UNL d   1     -41.123-121.523 -51.354  0.00  0.00     0.001 C 
ENDROOT
BRANCH   1   9
ATOM      9  N   UNL d   1     -42.339-121.640 -53.998  0.00  0.00    -0.201 NA
ATOM     10  C   UNL d   1     -42.266-122.181 -54.618  0.00  0.00     0.280 C 
ATOM     11  O   UNL d   1     -42.516-121.962 -55.366  0.00  0.00    -0.265 OA
BRANCH  10  12
ATOM     12  C   UNL d   1     -41.948-122.924 -54.486  0.00  0.00     0.058 C 
ATOM     13  C   UNL d   1     -42.440-123.549 -54.274  0.00  0.00     0.005 C 
ATOM     14  C   UNL d   1     -41.130-123.058 -54.565  0.00  0.00     0.005 C 
ENDBRANCH  10  12
ENDBRANCH   1   9
BRANCH   4  15
ATOM     15  C   UNL d   1     -41.863-123.140 -51.563  0.00  0.00     0.306 C 
ATOM     16  O   UNL d   1     -41.388-123.817 -51.677  0.00  0.00    -0.258 OA
BRANCH  15  17
ATOM     17  O   UNL d   1     -42.330-123.094 -50.875  0.00  0.00    -0.271 OA
BRANCH  17  18
ATOM     18  C   UNL d   1     -41.869-123.478 -50.304  0.00  0.00     0.126 C 
ATOM     19  C   UNL d   1     -42.223-123.779 -49.622  0.00  0.00     0.029 C 
ENDBRANCH  17  18
ENDBRANCH  15  17
ENDBRANCH   4  15
TORSDOF 5
ENDMDL
