MODEL 1
REMARK VINA RESULT:      21.5      0.000      0.000
REMARK  6 active torsions:
REMARK  status: ('A' for Active; 'I' for Inactive)
REMARK    1  A    between atoms: C_12  and  N_4 
REMARK    2  A    between atoms: C_10  and  N_6 
REMARK    3  A    between atoms: C_11  and  C_10 
REMARK    4  A    between atoms: O_15  and  C_11 
REMARK    5  A    between atoms: C_16  and  O_15 
REMARK    6  A    between atoms: C_17  and  C_16 
ROOT
ATOM      1  C   UNL d   1      46.407 -18.497  42.787  0.00  0.00     0.172 A 
ATOM      2  C   UNL d   1      46.429 -18.838  43.537  0.00  0.00     0.113 A 
ATOM      3  N   UNL d   1      46.268 -17.693  42.703  0.00  0.00    -0.206 NA
ATOM      4  N   UNL d   1      46.543 -19.102  42.235  0.00  0.00    -0.212 N 
ATOM      5  C   UNL d   1      46.312 -18.375  44.204  0.00  0.00     0.271 A 
ATOM      6  N   UNL d   1      46.172 -17.563  44.125  0.00  0.00    -0.250 N 
ATOM      7  N   UNL d   1      46.647 -19.799  42.650  0.00  0.00    -0.162 NA
ATOM      8  C   UNL d   1      46.149 -17.222  43.374  0.00  0.00     0.187 A 
ATOM      9  C   UNL d   1      46.579 -19.648  43.436  0.00  0.00     0.129 A 
ATOM     10  O   UNL d   1      46.335 -18.717  44.955  0.00  0.00    -0.266 OA
ENDROOT
BRANCH   6  11
ATOM     11  C   UNL d   1      46.052 -17.085  44.798  0.00  0.00     0.153 C 
BRANCH  11  12
ATOM     12  C   UNL d   1      45.543 -16.430  44.758  0.00  0.00     0.318 C 
ATOM     13  O   UNL d   1      44.737 -16.535  44.840  0.00  0.00    -0.257 OA
BRANCH  12  14
ATOM     14  O   UNL d   1      45.865 -15.680  44.635  0.00  0.00    -0.270 OA
BRANCH  14  15
ATOM     15  C   UNL d   1      45.477 -15.017  44.952  0.00  0.00     0.126 C 
BRANCH  15  16
ATOM     16  C   UNL d   1      45.496 -14.313  44.537  0.00  0.00     0.025 A 
ATOM     17  C   UNL d   1      44.905 -14.167  43.971  0.00  0.00     0.002 A 
ATOM     18  C   UNL d   1      44.918 -13.453  43.544  0.00  0.00     0.000 A 
ATOM     19  C   UNL d   1      45.510 -12.907  43.685  0.00  0.00     0.000 A 
ATOM     20  C   UNL d   1      46.101 -13.053  44.251  0.00  0.00     0.000 A 
ATOM     21  C   UNL d   1      46.084 -13.762  44.672  0.00  0.00     0.002 A 
ENDBRANCH  15  16
ENDBRANCH  14  15
ENDBRANCH  12  14
ENDBRANCH  11  12
ENDBRANCH   6  11
BRANCH   4  22
ATOM     22  C   UNL d   1      46.577 -19.053  41.423  0.00  0.00     0.085 A 
ATOM     23  C   UNL d   1      46.607 -19.748  40.964  0.00  0.00     0.019 A 
ATOM     24  C   UNL d   1      46.640 -19.693  40.149  0.00  0.00     0.002 A 
ATOM     25  C   UNL d   1      46.644 -18.939  39.773  0.00  0.00     0.000 A 
ATOM     26  C   UNL d   1      46.614 -18.269  40.232  0.00  0.00     0.002 A 
ATOM     27  C   UNL d   1      46.580 -18.315  41.052  0.00  0.00     0.019 A 
ENDBRANCH   4  22
TORSDOF 6
ENDMDL
