MODEL 1
REMARK VINA RESULT:      -0.4      0.000      0.000
REMARK  5 active torsions:
REMARK  status: ('A' for Active; 'I' for Inactive)
REMARK    1  A    between atoms: C_3  and  S_1 
REMARK    2  A    between atoms: N_6  and  S_1 
REMARK    3  A    between atoms: S_2  and  N_4 
REMARK    4  A    between atoms: C_10  and  S_2 
REMARK    5  A    between atoms: N_4  and  C_5 
ROOT
ATOM      1  C   UNL d   1     -41.761-122.331 -51.046  0.00  0.00     0.105 A 
ATOM      2  C   UNL d   1     -41.535-122.517 -52.440  0.00  0.00     0.076 A 
ATOM      3  C   UNL d   1     -41.745-122.827 -51.715  0.00  0.00     0.031 A 
ATOM      4  C   UNL d   1     -41.565-121.536 -51.128  0.00  0.00     0.012 A 
ATOM      5  C   UNL d   1     -41.338-121.719 -52.521  0.00  0.00     0.017 A 
ATOM      6  C   UNL d   1     -41.351-121.224 -51.868  0.00  0.00     0.002 A 
ATOM      7  C   UNL d   1     -41.124-121.406 -53.263  0.00  0.00     0.002 C 
ATOM      8  C   UNL d   1     -41.581-121.040 -50.459  0.00  0.00     0.001 C 
ENDROOT
BRANCH   2   9
ATOM      9  N   UNL d   1     -41.526-123.031 -53.089  0.00  0.00    -0.229 N 
ATOM     10  C   UNL d   1     -41.180-123.759 -53.012  0.00  0.00     0.111 C 
BRANCH   9  11
ATOM     11  S   UNL d   1     -41.865-122.798 -53.791  0.00  0.00     0.271 S 
ATOM     12  O   UNL d   1     -41.125-122.793 -54.147  0.00  0.00    -0.200 OA
ATOM     13  O   UNL d   1     -42.622-122.798 -53.447  0.00  0.00    -0.200 OA
BRANCH  11  14
ATOM     14  C   UNL d   1     -42.207-122.558 -54.518  0.00  0.00     0.104 A 
ATOM     15  C   UNL d   1     -42.995-122.315 -54.544  0.00  0.00     0.013 A 
ATOM     16  C   UNL d   1     -43.322-122.083 -55.252  0.00  0.00     0.001 A 
ATOM     17  C   UNL d   1     -42.854-122.096 -55.938  0.00  0.00     0.000 A 
ATOM     18  C   UNL d   1     -42.086-122.333 -55.912  0.00  0.00     0.001 A 
ATOM     19  C   UNL d   1     -43.182-121.859 -56.672  0.00  0.00     0.000 C 
ATOM     20  C   UNL d   1     -41.747-122.569 -55.203  0.00  0.00     0.013 A 
ENDBRANCH  11  14
ENDBRANCH   9  11
ENDBRANCH   2   9
BRANCH   1  21
ATOM     21  S   UNL d   1     -41.972-122.628 -50.302  0.00  0.00     0.271 S 
ATOM     22  O   UNL d   1     -42.782-122.480 -50.461  0.00  0.00    -0.200 OA
ATOM     23  O   UNL d   1     -41.161-122.779 -50.137  0.00  0.00    -0.200 OA
BRANCH  21  24
ATOM     24  N   UNL d   1     -42.180-122.926 -49.557  0.00  0.00    -0.229 N 
ATOM     25  C   UNL d   1     -41.664-123.414 -49.147  0.00  0.00     0.092 A 
ATOM     26  C   UNL d   1     -41.859-123.720 -48.398  0.00  0.00     0.020 A 
ATOM     27  C   UNL d   1     -42.583-123.528 -48.066  0.00  0.00     0.003 A 
ATOM     28  C   UNL d   1     -43.103-123.034 -48.481  0.00  0.00     0.020 A 
ATOM     29  C   UNL d   1     -42.789-123.817 -47.337  0.00  0.00     0.000 C 
ATOM     30  C   UNL d   1     -42.901-122.746 -49.204  0.00  0.00     0.092 A 
ENDBRANCH  21  24
ENDBRANCH   1  21
TORSDOF 5
ENDMDL
