MODEL 1
REMARK VINA RESULT:      -7.0      0.000      0.000
REMARK  3 active torsions:
REMARK  status: ('A' for Active; 'I' for Inactive)
REMARK    1  A    between atoms: C_8  and  C_2 
REMARK    2  A    between atoms: O_6  and  C_8 
REMARK    3  A    between atoms: C_7  and  O_6 
ROOT
ATOM      1  N   UNL d   1     -49.527  13.951  22.471  0.00  0.00    -0.224 NA
ATOM      2  C   UNL d   1     -48.754  14.025  22.743  0.00  0.00     0.188 A 
ATOM      3  N   UNL d   1     -48.736  14.702  23.212  0.00  0.00    -0.224 NA
ATOM      4  C   UNL d   1     -49.969  14.561  22.763  0.00  0.00     0.101 A 
ATOM      5  C   UNL d   1     -49.474  15.030  23.226  0.00  0.00     0.101 A 
ATOM      6  C   UNL d   1     -50.745  14.780  22.691  0.00  0.00     0.021 A 
ATOM      7  C   UNL d   1     -49.773  15.701  23.601  0.00  0.00     0.021 A 
ATOM      8  C   UNL d   1     -50.569  15.903  23.511  0.00  0.00     0.002 A 
ATOM      9  C   UNL d   1     -51.064  15.433  23.048  0.00  0.00     0.002 A 
ENDROOT
BRANCH   2  10
ATOM     10  C   UNL d   1     -47.978  13.839  22.837  0.00  0.00     0.161 C 
BRANCH  10  11
ATOM     11  O   UNL d   1     -47.778  13.104  22.869  0.00  0.00    -0.302 OA
BRANCH  11  12
ATOM     12  C   UNL d   1     -46.959  12.875  22.841  0.00  0.00     0.100 A 
ATOM     13  C   UNL d   1     -46.713  12.223  23.232  0.00  0.00     0.023 A 
ATOM     14  C   UNL d   1     -47.239  11.764  23.664  0.00  0.00     0.002 C 
ATOM     15  C   UNL d   1     -45.912  12.009  23.198  0.00  0.00     0.002 A 
ATOM     16  C   UNL d   1     -45.383  12.469  22.763  0.00  0.00     0.000 A 
ATOM     17  C   UNL d   1     -45.636  13.160  22.347  0.00  0.00     0.002 A 
ATOM     18  C   UNL d   1     -46.452  13.353  22.399  0.00  0.00     0.025 A 
ENDBRANCH  11  12
ENDBRANCH  10  11
ENDBRANCH   2  10
TORSDOF 3
ENDMDL
MODEL 2
REMARK VINA RESULT:      -6.9      0.971      4.251
REMARK  3 active torsions:
REMARK  status: ('A' for Active; 'I' for Inactive)
REMARK    1  A    between atoms: C_8  and  C_2 
REMARK    2  A    between atoms: O_6  and  C_8 
REMARK    3  A    between atoms: C_7  and  O_6 
ROOT
ATOM      1  N   UNL d   1     -47.440  12.896  23.265  0.00  0.00    -0.224 NA
ATOM      2  C   UNL d   1     -47.821  13.603  23.087  0.00  0.00     0.188 A 
ATOM      3  N   UNL d   1     -47.279  14.060  22.667  0.00  0.00    -0.224 NA
ATOM      4  C   UNL d   1     -46.690  12.917  22.966  0.00  0.00     0.101 A 
ATOM      5  C   UNL d   1     -46.589  13.646  22.592  0.00  0.00     0.101 A 
ATOM      6  C   UNL d   1     -46.069  12.399  22.964  0.00  0.00     0.021 A 
ATOM      7  C   UNL d   1     -45.871  13.828  22.230  0.00  0.00     0.021 A 
ATOM      8  C   UNL d   1     -45.252  13.282  22.243  0.00  0.00     0.002 A 
ATOM      9  C   UNL d   1     -45.353  12.553  22.617  0.00  0.00     0.002 A 
ENDROOT
BRANCH   2  10
ATOM     10  C   UNL d   1     -48.416  14.143  23.068  0.00  0.00     0.161 C 
BRANCH  10  11
ATOM     11  O   UNL d   1     -49.110  13.932  23.303  0.00  0.00    -0.302 OA
BRANCH  11  12
ATOM     12  C   UNL d   1     -49.722  14.511  23.421  0.00  0.00     0.100 A 
ATOM     13  C   UNL d   1     -50.468  14.275  23.585  0.00  0.00     0.023 A 
ATOM     14  C   UNL d   1     -50.658  13.478  23.642  0.00  0.00     0.002 C 
ATOM     15  C   UNL d   1     -51.058  14.848  23.698  0.00  0.00     0.002 A 
ATOM     16  C   UNL d   1     -50.868  15.649  23.640  0.00  0.00     0.000 A 
ATOM     17  C   UNL d   1     -50.081  15.905  23.467  0.00  0.00     0.002 A 
ATOM     18  C   UNL d   1     -49.505  15.305  23.358  0.00  0.00     0.025 A 
ENDBRANCH  11  12
ENDBRANCH  10  11
ENDBRANCH   2  10
TORSDOF 3
ENDMDL
MODEL 3
REMARK VINA RESULT:      -6.5      1.031      4.387
REMARK  3 active torsions:
REMARK  status: ('A' for Active; 'I' for Inactive)
REMARK    1  A    between atoms: C_8  and  C_2 
REMARK    2  A    between atoms: O_6  and  C_8 
REMARK    3  A    between atoms: C_7  and  O_6 
ROOT
ATOM      1  N   UNL d   1     -46.869  13.982  22.398  0.00  0.00    -0.224 NA
ATOM      2  C   UNL d   1     -47.538  13.755  22.819  0.00  0.00     0.188 A 
ATOM      3  N   UNL d   1     -47.353  13.039  23.184  0.00  0.00    -0.224 NA
ATOM      4  C   UNL d   1     -46.292  13.426  22.499  0.00  0.00     0.101 A 
ATOM      5  C   UNL d   1     -46.595  12.836  22.991  0.00  0.00     0.101 A 
ATOM      6  C   UNL d   1     -45.533  13.345  22.230  0.00  0.00     0.021 A 
ATOM      7  C   UNL d   1     -46.127  12.188  23.195  0.00  0.00     0.021 A 
ATOM      8  C   UNL d   1     -45.356  12.130  22.907  0.00  0.00     0.002 A 
ATOM      9  C   UNL d   1     -45.053  12.719  22.415  0.00  0.00     0.002 A 
ENDROOT
BRANCH   2  10
ATOM     10  C   UNL d   1     -48.288  13.802  23.105  0.00  0.00     0.161 C 
BRANCH  10  11
ATOM     11  O   UNL d   1     -48.694  14.432  22.970  0.00  0.00    -0.302 OA
BRANCH  11  12
ATOM     12  C   UNL d   1     -49.506  14.487  23.218  0.00  0.00     0.100 A 
ATOM     13  C   UNL d   1     -49.857  15.203  23.279  0.00  0.00     0.023 A 
ATOM     14  C   UNL d   1     -49.447  15.892  23.105  0.00  0.00     0.002 C 
ATOM     15  C   UNL d   1     -50.649  15.245  23.522  0.00  0.00     0.002 A 
ATOM     16  C   UNL d   1     -51.062  14.552  23.697  0.00  0.00     0.000 A 
ATOM     17  C   UNL d   1     -50.697  13.793  23.635  0.00  0.00     0.002 A 
ATOM     18  C   UNL d   1     -49.895  13.779  23.387  0.00  0.00     0.025 A 
ENDBRANCH  11  12
ENDBRANCH  10  11
ENDBRANCH   2  10
TORSDOF 3
ENDMDL
MODEL 4
REMARK VINA RESULT:      -6.5      2.058      4.953
REMARK  3 active torsions:
REMARK  status: ('A' for Active; 'I' for Inactive)
REMARK    1  A    between atoms: C_8  and  C_2 
REMARK    2  A    between atoms: O_6  and  C_8 
REMARK    3  A    between atoms: C_7  and  O_6 
ROOT
ATOM      1  N   UNL d   1     -45.929  11.054  23.634  0.00  0.00    -0.224 NA
ATOM      2  C   UNL d   1     -46.005  11.819  23.342  0.00  0.00     0.188 A 
ATOM      3  N   UNL d   1     -45.265  12.031  23.049  0.00  0.00    -0.224 NA
ATOM      4  C   UNL d   1     -45.169  10.804  23.526  0.00  0.00     0.101 A 
ATOM      5  C   UNL d   1     -44.754  11.416  23.160  0.00  0.00     0.101 A 
ATOM      6  C   UNL d   1     -44.771  10.120  23.695  0.00  0.00     0.021 A 
ATOM      7  C   UNL d   1     -43.955  11.320  22.977  0.00  0.00     0.021 A 
ATOM      8  C   UNL d   1     -43.572  10.613  23.161  0.00  0.00     0.002 A 
ATOM      9  C   UNL d   1     -43.987  10.001  23.527  0.00  0.00     0.002 A 
ENDROOT
BRANCH   2  10
ATOM     10  C   UNL d   1     -46.368  12.512  23.158  0.00  0.00     0.161 C 
BRANCH  10  11
ATOM     11  O   UNL d   1     -47.127  12.556  23.215  0.00  0.00    -0.302 OA
BRANCH  11  12
ATOM     12  C   UNL d   1     -47.535  13.282  23.041  0.00  0.00     0.100 A 
ATOM     13  C   UNL d   1     -48.333  13.291  22.996  0.00  0.00     0.023 A 
ATOM     14  C   UNL d   1     -48.772  12.608  23.116  0.00  0.00     0.002 C 
ATOM     15  C   UNL d   1     -48.720  14.005  22.826  0.00  0.00     0.002 A 
ATOM     16  C   UNL d   1     -48.279  14.692  22.706  0.00  0.00     0.000 A 
ATOM     17  C   UNL d   1     -47.436  14.689  22.752  0.00  0.00     0.002 A 
ATOM     18  C   UNL d   1     -47.070  13.953  22.925  0.00  0.00     0.025 A 
ENDBRANCH  11  12
ENDBRANCH  10  11
ENDBRANCH   2  10
TORSDOF 3
ENDMDL
MODEL 5
REMARK VINA RESULT:      -6.1      1.714      2.036
REMARK  3 active torsions:
REMARK  status: ('A' for Active; 'I' for Inactive)
REMARK    1  A    between atoms: C_8  and  C_2 
REMARK    2  A    between atoms: O_6  and  C_8 
REMARK    3  A    between atoms: C_7  and  O_6 
ROOT
ATOM      1  N   UNL d   1     -48.879  12.057  23.690  0.00  0.00    -0.224 NA
ATOM      2  C   UNL d   1     -48.373  12.492  23.208  0.00  0.00     0.188 A 
ATOM      3  N   UNL d   1     -48.850  12.880  22.660  0.00  0.00    -0.224 NA
ATOM      4  C   UNL d   1     -49.640  12.174  23.447  0.00  0.00     0.101 A 
ATOM      5  C   UNL d   1     -49.622  12.689  22.803  0.00  0.00     0.101 A 
ATOM      6  C   UNL d   1     -50.360  11.903  23.698  0.00  0.00     0.021 A 
ATOM      7  C   UNL d   1     -50.325  12.914  22.434  0.00  0.00     0.021 A 
ATOM      8  C   UNL d   1     -51.046  12.622  22.710  0.00  0.00     0.002 A 
ATOM      9  C   UNL d   1     -51.064  12.107  23.354  0.00  0.00     0.002 A 
ENDROOT
BRANCH   2  10
ATOM     10  C   UNL d   1     -47.676  12.781  22.931  0.00  0.00     0.161 C 
BRANCH  10  11
ATOM     11  O   UNL d   1     -47.027  12.546  23.253  0.00  0.00    -0.302 OA
BRANCH  11  12
ATOM     12  C   UNL d   1     -46.275  12.736  22.903  0.00  0.00     0.100 A 
ATOM     13  C   UNL d   1     -45.669  12.218  22.954  0.00  0.00     0.023 A 
ATOM     14  C   UNL d   1     -45.757  11.499  23.342  0.00  0.00     0.002 C 
ATOM     15  C   UNL d   1     -44.940  12.413  22.609  0.00  0.00     0.002 A 
ATOM     16  C   UNL d   1     -44.851  13.134  22.220  0.00  0.00     0.000 A 
ATOM     17  C   UNL d   1     -45.488  13.687  22.162  0.00  0.00     0.002 A 
ATOM     18  C   UNL d   1     -46.214  13.464  22.520  0.00  0.00     0.025 A 
ENDBRANCH  11  12
ENDBRANCH  10  11
ENDBRANCH   2  10
TORSDOF 3
ENDMDL
MODEL 6
REMARK VINA RESULT:      -5.5      8.379     10.417
REMARK  3 active torsions:
REMARK  status: ('A' for Active; 'I' for Inactive)
REMARK    1  A    between atoms: C_8  and  C_2 
REMARK    2  A    between atoms: O_6  and  C_8 
REMARK    3  A    between atoms: C_7  and  O_6 
ROOT
ATOM      1  N   UNL d   1     -39.037  13.392  18.082  0.00  0.00    -0.224 NA
ATOM      2  C   UNL d   1     -39.437  14.071  18.320  0.00  0.00     0.188 A 
ATOM      3  N   UNL d   1     -39.376  14.608  17.699  0.00  0.00    -0.224 NA
ATOM      4  C   UNL d   1     -38.740  13.508  17.340  0.00  0.00     0.101 A 
ATOM      5  C   UNL d   1     -38.952  14.269  17.100  0.00  0.00     0.101 A 
ATOM      6  C   UNL d   1     -38.308  13.054  16.828  0.00  0.00     0.021 A 
ATOM      7  C   UNL d   1     -38.723  14.547  16.358  0.00  0.00     0.021 A 
ATOM      8  C   UNL d   1     -38.282  14.063  15.855  0.00  0.00     0.002 A 
ATOM      9  C   UNL d   1     -38.071  13.303  16.094  0.00  0.00     0.002 A 
ENDROOT
BRANCH   2  10
ATOM     10  C   UNL d   1     -39.866  14.550  18.802  0.00  0.00     0.161 C 
BRANCH  10  11
ATOM     11  O   UNL d   1     -39.848  14.426  19.554  0.00  0.00    -0.302 OA
BRANCH  11  12
ATOM     12  C   UNL d   1     -40.288  14.922  20.086  0.00  0.00     0.100 A 
ATOM     13  C   UNL d   1     -40.142  14.895  20.872  0.00  0.00     0.023 A 
ATOM     14  C   UNL d   1     -39.569  14.393  21.178  0.00  0.00     0.002 C 
ATOM     15  C   UNL d   1     -40.578  15.383  21.382  0.00  0.00     0.002 A 
ATOM     16  C   UNL d   1     -41.153  15.887  21.074  0.00  0.00     0.000 A 
ATOM     17  C   UNL d   1     -41.313  15.922  20.245  0.00  0.00     0.002 A 
ATOM     18  C   UNL d   1     -40.858  15.417  19.752  0.00  0.00     0.025 A 
ENDBRANCH  11  12
ENDBRANCH  10  11
ENDBRANCH   2  10
TORSDOF 3
ENDMDL
MODEL 7
REMARK VINA RESULT:      -5.5      9.024      9.372
REMARK  3 active torsions:
REMARK  status: ('A' for Active; 'I' for Inactive)
REMARK    1  A    between atoms: C_8  and  C_2 
REMARK    2  A    between atoms: O_6  and  C_8 
REMARK    3  A    between atoms: C_7  and  O_6 
ROOT
ATOM      1  N   UNL d   1     -40.535  15.688  19.293  0.00  0.00    -0.224 NA
ATOM      2  C   UNL d   1     -40.132  15.087  19.686  0.00  0.00     0.188 A 
ATOM      3  N   UNL d   1     -39.949  14.519  19.118  0.00  0.00    -0.224 NA
ATOM      4  C   UNL d   1     -40.598  15.496  18.511  0.00  0.00     0.101 A 
ATOM      5  C   UNL d   1     -40.232  14.765  18.402  0.00  0.00     0.101 A 
ATOM      6  C   UNL d   1     -40.927  15.857  17.867  0.00  0.00     0.021 A 
ATOM      7  C   UNL d   1     -40.208  14.423  17.651  0.00  0.00     0.021 A 
ATOM      8  C   UNL d   1     -40.552  14.813  17.010  0.00  0.00     0.002 A 
ATOM      9  C   UNL d   1     -40.918  15.544  17.120  0.00  0.00     0.002 A 
ENDROOT
BRANCH   2  10
ATOM     10  C   UNL d   1     -39.794  14.699  20.303  0.00  0.00     0.161 C 
BRANCH  10  11
ATOM     11  O   UNL d   1     -39.732  15.057  20.973  0.00  0.00    -0.302 OA
BRANCH  11  12
ATOM     12  C   UNL d   1     -39.379  14.668  21.642  0.00  0.00     0.100 A 
ATOM     13  C   UNL d   1     -39.080  15.101  22.244  0.00  0.00     0.023 A 
ATOM     14  C   UNL d   1     -39.107  15.922  22.229  0.00  0.00     0.002 C 
ATOM     15  C   UNL d   1     -38.738  14.712  22.891  0.00  0.00     0.002 A 
ATOM     16  C   UNL d   1     -38.711  13.887  22.906  0.00  0.00     0.000 A 
ATOM     17  C   UNL d   1     -39.025  13.423  22.274  0.00  0.00     0.002 A 
ATOM     18  C   UNL d   1     -39.365  13.843  21.631  0.00  0.00     0.025 A 
ENDBRANCH  11  12
ENDBRANCH  10  11
ENDBRANCH   2  10
TORSDOF 3
ENDMDL
MODEL 8
REMARK VINA RESULT:      -5.4      9.141      9.663
REMARK  3 active torsions:
REMARK  status: ('A' for Active; 'I' for Inactive)
REMARK    1  A    between atoms: C_8  and  C_2 
REMARK    2  A    between atoms: O_6  and  C_8 
REMARK    3  A    between atoms: C_7  and  O_6 
ROOT
ATOM      1  N   UNL d   1     -39.490  14.220  20.968  0.00  0.00    -0.224 NA
ATOM      2  C   UNL d   1     -39.735  14.788  20.424  0.00  0.00     0.188 A 
ATOM      3  N   UNL d   1     -39.662  15.517  20.800  0.00  0.00    -0.224 NA
ATOM      4  C   UNL d   1     -39.275  14.588  21.654  0.00  0.00     0.101 A 
ATOM      5  C   UNL d   1     -39.383  15.399  21.549  0.00  0.00     0.101 A 
ATOM      6  C   UNL d   1     -38.996  14.330  22.368  0.00  0.00     0.021 A 
ATOM      7  C   UNL d   1     -39.207  15.922  22.162  0.00  0.00     0.021 A 
ATOM      8  C   UNL d   1     -38.923  15.632  22.882  0.00  0.00     0.002 A 
ATOM      9  C   UNL d   1     -38.816  14.821  22.987  0.00  0.00     0.002 A 
ENDROOT
BRANCH   2  10
ATOM     10  C   UNL d   1     -40.010  15.080  19.728  0.00  0.00     0.161 C 
BRANCH  10  11
ATOM     11  O   UNL d   1     -39.991  14.636  19.109  0.00  0.00    -0.302 OA
BRANCH  11  12
ATOM     12  C   UNL d   1     -40.282  14.919  18.362  0.00  0.00     0.100 A 
ATOM     13  C   UNL d   1     -40.114  14.519  17.690  0.00  0.00     0.023 A 
ATOM     14  C   UNL d   1     -39.663  13.834  17.707  0.00  0.00     0.002 C 
ATOM     15  C   UNL d   1     -40.403  14.804  16.967  0.00  0.00     0.002 A 
ATOM     16  C   UNL d   1     -40.857  15.493  16.950  0.00  0.00     0.000 A 
ATOM     17  C   UNL d   1     -41.038  15.921  17.655  0.00  0.00     0.002 A 
ATOM     18  C   UNL d   1     -40.733  15.610  18.374  0.00  0.00     0.025 A 
ENDBRANCH  11  12
ENDBRANCH  10  11
ENDBRANCH   2  10
TORSDOF 3
ENDMDL
