MODEL 1
REMARK VINA RESULT:      71.8      0.000      0.000
REMARK  3 active torsions:
REMARK  status: ('A' for Active; 'I' for Inactive)
REMARK    1  A    between atoms: C_10  and  N_1 
REMARK       I    between atoms: N_3  and  C_4 
REMARK    2  A    between atoms: C_4  and  C_10 
REMARK    3  A    between atoms: O_17  and  C_13 
ROOT
ATOM      1  N   UNL d   1     -54.787-101.394 -41.169  0.00  0.00    -0.268 N 
ATOM      2  C   UNL d   1     -54.914-102.115 -40.776  0.00  0.00     0.265 A 
ATOM      3  C   UNL d   1     -54.976-102.129 -39.953  0.00  0.00     0.059 A 
ATOM      4  C   UNL d   1     -54.911-101.432 -39.519  0.00  0.00     0.028 A 
ATOM      5  C   UNL d   1     -54.785-100.708 -39.900  0.00  0.00     0.021 A 
ATOM      6  C   UNL d   1     -54.722-100.693 -40.732  0.00  0.00     0.083 A 
ATOM      7  O   UNL d   1     -54.979-102.812 -41.210  0.00  0.00    -0.267 OA
ATOM      8  C   UNL d   1     -54.973-101.449 -38.698  0.00  0.00     0.094 A 
ATOM      9  C   UNL d   1     -55.102-102.849 -39.570  0.00  0.00     0.005 A 
ATOM     10  C   UNL d   1     -55.164-102.866 -38.750  0.00  0.00     0.002 A 
ATOM     11  C   UNL d   1     -55.099-102.169 -38.315  0.00  0.00     0.024 A 
ENDROOT
BRANCH   1  12
ATOM     12  C   UNL d   1     -54.726-101.376 -41.989  0.00  0.00     0.144 C 
BRANCH  12  13
ATOM     13  C   UNL d   1     -55.051-100.746 -42.414  0.00  0.00     0.283 C 
ATOM     14  N   UNL d   1     -55.058-100.754 -43.238  0.00  0.00    -0.272 N 
ATOM     15  C   UNL d   1     -55.382-100.128 -43.649  0.00  0.00     0.067 A 
ATOM     16  C   UNL d   1     -54.733-101.405 -43.643  0.00  0.00     0.083 A 
ATOM     17  C   UNL d   1     -55.387-100.140 -44.478  0.00  0.00     0.016 A 
ATOM     18  C   UNL d   1     -55.700 -99.492 -43.248  0.00  0.00     0.018 A 
ATOM     19  C   UNL d   1     -55.711 -99.514 -44.897  0.00  0.00     0.001 A 
ATOM     20  C   UNL d   1     -55.066-100.783 -44.890  0.00  0.00     0.003 A 
ATOM     21  C   UNL d   1     -56.032 -98.871 -44.497  0.00  0.00     0.000 A 
ATOM     22  C   UNL d   1     -56.028 -98.858 -43.664  0.00  0.00     0.002 A 
ATOM     23  C   UNL d   1     -54.742-101.410 -44.475  0.00  0.00     0.019 A 
ATOM     24  O   UNL d   1     -55.373-100.102 -42.004  0.00  0.00    -0.265 OA
ENDBRANCH  12  13
ENDBRANCH   1  12
BRANCH   8  25
ATOM     25  O   UNL d   1     -54.909-100.754 -38.260  0.00  0.00    -0.328 OA
ATOM     26  C   UNL d   1     -55.021-100.768 -37.447  0.00  0.00     0.181 C 
ENDBRANCH   8  25
TORSDOF 3
ENDMDL
