MODEL 1
REMARK VINA RESULT:      82.0      0.000      0.000
REMARK  6 active torsions:
REMARK  status: ('A' for Active; 'I' for Inactive)
REMARK    1  A    between atoms: C_13  and  C_3 
REMARK    2  A    between atoms: N_16  and  C_4 
REMARK    3  A    between atoms: N_11  and  C_17 
REMARK    4  A    between atoms: C_20  and  N_16 
REMARK    5  A    between atoms: C_17  and  C_18 
REMARK    6  A    between atoms: C_18  and  C_20 
ROOT
ATOM      1  C   UNL d   1     -54.754-101.370 -41.402  0.00  0.00     0.167 A 
ATOM      2  N   UNL d   1     -54.736-102.033 -40.913  0.00  0.00    -0.195 N 
ATOM      3  C   UNL d   1     -54.745-101.630 -42.178  0.00  0.00     0.057 A 
ATOM      4  C   UNL d   1     -54.741-101.942 -40.095  0.00  0.00     0.167 A 
ATOM      5  N   UNL d   1     -54.716-102.697 -41.391  0.00  0.00    -0.161 NA
ATOM      6  N   UNL d   1     -54.777-100.616 -41.073  0.00  0.00    -0.227 NA
ATOM      7  C   UNL d   1     -54.764-101.181 -39.766  0.00  0.00     0.058 A 
ATOM      8  C   UNL d   1     -54.721-102.455 -42.165  0.00  0.00     0.124 A 
ATOM      9  C   UNL d   1     -54.782-100.526 -40.250  0.00  0.00     0.086 A 
ATOM     10  C   UNL d   1     -54.805 -99.778 -39.899  0.00  0.00     0.021 C 
ENDROOT
BRANCH   4  11
ATOM     11  N   UNL d   1     -54.723-102.605 -39.606  0.00  0.00    -0.225 NA
BRANCH  11  12
ATOM     12  C   UNL d   1     -55.417-102.879 -39.258  0.00  0.00     0.102 C 
BRANCH  12  13
ATOM     13  C   UNL d   1     -56.041-102.350 -39.098  0.00  0.00     0.040 C 
BRANCH  13  14
ATOM     14  C   UNL d   1     -56.713-102.617 -38.710  0.00  0.00     0.083 C 
BRANCH  14  15
ATOM     15  N   UNL d   1     -57.455-102.542 -39.073  0.00  0.00    -0.285 N 
ATOM     16  C   UNL d   1     -57.781-102.874 -39.764  0.00  0.00     0.183 A 
ATOM     17  N   UNL d   1     -58.540-102.598 -39.843  0.00  0.00    -0.222 NA
ATOM     18  C   UNL d   1     -58.706-102.096 -39.216  0.00  0.00     0.120 A 
ATOM     19  C   UNL d   1     -58.034-102.061 -38.738  0.00  0.00     0.102 A 
ENDBRANCH  14  15
ENDBRANCH  13  14
ENDBRANCH  12  13
ENDBRANCH  11  12
ENDBRANCH   4  11
BRANCH   3  20
ATOM     20  C   UNL d   1     -54.759-101.090 -42.805  0.00  0.00     0.004 A 
ATOM     21  C   UNL d   1     -54.820-101.372 -43.581  0.00  0.00     0.000 A 
ATOM     22  C   UNL d   1     -54.834-100.842 -44.208  0.00  0.00     0.000 A 
ATOM     23  C   UNL d   1     -54.788-100.023 -44.064  0.00  0.00     0.000 A 
ATOM     24  C   UNL d   1     -54.727 -99.752 -43.289  0.00  0.00     0.000 A 
ATOM     25  C   UNL d   1     -54.713-100.288 -42.660  0.00  0.00     0.000 A 
ENDBRANCH   3  20
TORSDOF 6
ENDMDL
