MODEL 1
REMARK VINA RESULT:      25.7      0.000      0.000
REMARK  4 active torsions:
REMARK  status: ('A' for Active; 'I' for Inactive)
REMARK    1  A    between atoms: C_2  and  S_1 
REMARK    2  A    between atoms: N_3  and  S_1 
REMARK    3  A    between atoms: C_7  and  N_3 
REMARK    4  A    between atoms: C_8  and  C_4 
ROOT
ATOM      1  S   UNL d   1      46.266 -16.979  43.723  0.00  0.00     0.285 S 
ATOM      2  O   UNL d   1      45.888 -16.814  43.007  0.00  0.00    -0.198 OA
ATOM      3  O   UNL d   1      46.647 -17.142  44.447  0.00  0.00    -0.198 OA
ENDROOT
BRANCH   1   4
ATOM      4  C   UNL d   1      46.259 -17.793  43.544  0.00  0.00     0.105 A 
ATOM      5  C   UNL d   1      46.275 -18.345  44.157  0.00  0.00     0.012 A 
ATOM      6  C   UNL d   1      46.268 -19.151  43.987  0.00  0.00     0.001 A 
ATOM      7  C   UNL d   1      46.298 -18.094  44.955  0.00  0.00     0.001 C 
ATOM      8  C   UNL d   1      46.284 -19.703  44.600  0.00  0.00     0.000 C 
ATOM      9  C   UNL d   1      46.245 -19.407  43.189  0.00  0.00     0.000 A 
ATOM     10  C   UNL d   1      46.229 -18.846  42.579  0.00  0.00     0.001 A 
ATOM     11  C   UNL d   1      46.236 -18.041  42.756  0.00  0.00     0.012 A 
ATOM     12  C   UNL d   1      46.206 -19.098  41.781  0.00  0.00     0.000 C 
ATOM     13  C   UNL d   1      46.220 -17.480  42.151  0.00  0.00     0.001 C 
ENDBRANCH   1   4
BRANCH   1  14
ATOM     14  N   UNL d   1      46.274 -16.168  43.904  0.00  0.00    -0.158 NA
BRANCH  14  15
ATOM     15  C   UNL d   1      45.611 -15.815  44.255  0.00  0.00     0.100 A 
ATOM     16  C   UNL d   1      45.585 -14.992  44.360  0.00  0.00     0.083 A 
ATOM     17  C   UNL d   1      44.928 -14.639  44.708  0.00  0.00     0.008 A 
ATOM     18  C   UNL d   1      44.293 -15.104  44.955  0.00  0.00     0.000 A 
ATOM     19  C   UNL d   1      44.315 -15.920  44.853  0.00  0.00     0.002 A 
ATOM     20  C   UNL d   1      44.976 -16.279  44.502  0.00  0.00     0.020 A 
BRANCH  16  21
ATOM     21  C   UNL d   1      46.219 -14.524  44.114  0.00  0.00     0.212 C 
ATOM     22  O   UNL d   1      46.632 -14.063  44.658  0.00  0.00    -0.644 OA
ATOM     23  O   UNL d   1      46.443 -14.515  43.320  0.00  0.00    -0.644 OA
ENDBRANCH  16  21
ENDBRANCH  14  15
ENDBRANCH   1  14
TORSDOF 4
ENDMDL
