MODEL 1
REMARK VINA RESULT:       2.3      0.000      0.000
REMARK  2 active torsions:
REMARK  status: ('A' for Active; 'I' for Inactive)
REMARK    1  A    between atoms: N_10  and  C_3 
REMARK    2  A    between atoms: C_11  and  C_5 
ROOT
ATOM      1  N   UNL d   1     -41.852-122.631 -52.221  0.00  0.00    -0.196 N 
ATOM      2  C   UNL d   1     -41.807-122.230 -52.947  0.00  0.00     0.167 A 
ATOM      3  C   UNL d   1     -41.702-122.218 -51.527  0.00  0.00     0.152 A 
ATOM      4  N   UNL d   1     -42.188-123.817 -52.904  0.00  0.00    -0.163 NA
ATOM      5  C   UNL d   1     -41.951-122.617 -53.642  0.00  0.00     0.055 A 
ATOM      6  N   UNL d   1     -41.613-121.425 -52.961  0.00  0.00    -0.227 NA
ATOM      7  C   UNL d   1     -41.511-121.425 -51.539  0.00  0.00     0.052 A 
ATOM      8  C   UNL d   1     -42.144-123.418 -53.625  0.00  0.00     0.104 A 
ATOM      9  C   UNL d   1     -41.466-121.026 -52.260  0.00  0.00     0.086 A 
ATOM     10  C   UNL d   1     -41.363-121.028 -50.827  0.00  0.00     0.004 A 
ATOM     11  C   UNL d   1     -42.290-123.816 -54.311  0.00  0.00     0.023 C 
ATOM     12  C   UNL d   1     -41.273-120.226 -52.277  0.00  0.00     0.019 A 
ATOM     13  C   UNL d   1     -41.168-120.215 -50.848  0.00  0.00     0.000 A 
ATOM     14  C   UNL d   1     -41.123-119.816 -51.569  0.00  0.00     0.002 A 
ENDROOT
BRANCH   3  15
ATOM     15  N   UNL d   1     -41.747-122.622 -50.789  0.00  0.00    -0.285 N 
ATOM     16  C   UNL d   1     -41.127-123.152 -50.552  0.00  0.00     0.108 A 
ATOM     17  C   UNL d   1     -41.175-123.552 -49.817  0.00  0.00     0.142 A 
ATOM     18  O   UNL d   1     -41.844-123.432 -49.301  0.00  0.00    -0.300 OA
ATOM     19  C   UNL d   1     -42.455-122.902 -49.547  0.00  0.00     0.142 A 
ATOM     20  C   UNL d   1     -42.407-122.502 -50.282  0.00  0.00     0.108 A 
ENDBRANCH   3  15
BRANCH   5  21
ATOM     21  C   UNL d   1     -41.906-122.219 -54.362  0.00  0.00     0.004 A 
ATOM     22  C   UNL d   1     -42.545-121.785 -54.620  0.00  0.00     0.000 A 
ATOM     23  C   UNL d   1     -42.501-121.386 -55.341  0.00  0.00     0.000 A 
ATOM     24  C   UNL d   1     -41.818-121.427 -55.793  0.00  0.00     0.000 A 
ATOM     25  C   UNL d   1     -41.179-121.867 -55.525  0.00  0.00     0.000 A 
ATOM     26  C   UNL d   1     -41.224-122.265 -54.804  0.00  0.00     0.000 A 
ENDBRANCH   5  21
TORSDOF 2
ENDMDL
