MODEL 1
REMARK VINA RESULT:      -8.7      0.000      0.000
REMARK  3 active torsions:
REMARK  status: ('A' for Active; 'I' for Inactive)
REMARK    1  A    between atoms: C_7  and  N_1 
REMARK    2  A    between atoms: C_10  and  C_3 
REMARK    3  A    between atoms: C_8  and  C_7 
ROOT
ATOM      1  N   UNL d   1     -48.344  13.286  22.626  0.00  0.00    -0.289 N 
ATOM      2  N   UNL d   1     -48.159  12.001  23.229  0.00  0.00    -0.217 NA
ATOM      3  C   UNL d   1     -48.649  12.561  22.880  0.00  0.00     0.149 A 
ATOM      4  C   UNL d   1     -47.036  12.889  23.077  0.00  0.00     0.044 A 
ATOM      5  C   UNL d   1     -47.355  12.157  23.331  0.00  0.00     0.139 A 
ATOM      6  C   UNL d   1     -47.526  13.448  22.728  0.00  0.00     0.068 A 
ATOM      7  S   UNL d   1     -46.849  11.599  23.683  0.00  0.00    -0.057 SA
ATOM      8  C   UNL d   1     -46.226  13.050  23.178  0.00  0.00     0.004 A 
ATOM      9  C   UNL d   1     -47.224  14.177  22.472  0.00  0.00     0.018 A 
ATOM     10  C   UNL d   1     -45.926  13.782  22.920  0.00  0.00     0.000 A 
ATOM     11  C   UNL d   1     -46.416  14.342  22.571  0.00  0.00     0.002 A 
ENDROOT
BRANCH   1  12
ATOM     12  C   UNL d   1     -48.834  13.846  22.277  0.00  0.00     0.106 C 
BRANCH  12  13
ATOM     13  C   UNL d   1     -49.023  14.542  22.679  0.00  0.00     0.118 A 
ATOM     14  O   UNL d   1     -49.140  14.611  23.479  0.00  0.00    -0.304 OA
ATOM     15  C   UNL d   1     -49.316  15.394  23.643  0.00  0.00     0.123 A 
ATOM     16  C   UNL d   1     -49.306  15.812  22.930  0.00  0.00     0.029 A 
ATOM     17  C   UNL d   1     -49.123  15.280  22.327  0.00  0.00     0.028 A 
ENDBRANCH  12  13
ENDBRANCH   1  12
BRANCH   3  18
ATOM     18  C   UNL d   1     -49.455  12.407  22.777  0.00  0.00     0.035 A 
ATOM     19  C   UNL d   1     -49.782  12.378  22.023  0.00  0.00     0.003 A 
ATOM     20  C   UNL d   1     -50.585  12.225  21.938  0.00  0.00     0.000 A 
ATOM     21  C   UNL d   1     -51.064  12.100  22.588  0.00  0.00     0.000 A 
ATOM     22  C   UNL d   1     -50.732  12.129  23.355  0.00  0.00     0.000 A 
ATOM     23  C   UNL d   1     -49.928  12.283  23.444  0.00  0.00     0.003 A 
ENDBRANCH   3  18
TORSDOF 3
ENDMDL
MODEL 2
REMARK VINA RESULT:      -8.7      1.045      2.692
REMARK  3 active torsions:
REMARK  status: ('A' for Active; 'I' for Inactive)
REMARK    1  A    between atoms: C_7  and  N_1 
REMARK    2  A    between atoms: C_10  and  C_3 
REMARK    3  A    between atoms: C_8  and  C_7 
ROOT
ATOM      1  N   UNL d   1     -48.310  13.327  23.319  0.00  0.00    -0.289 N 
ATOM      2  N   UNL d   1     -47.440  14.328  22.780  0.00  0.00    -0.217 NA
ATOM      3  C   UNL d   1     -48.187  14.090  23.027  0.00  0.00     0.149 A 
ATOM      4  C   UNL d   1     -46.917  13.029  23.114  0.00  0.00     0.044 A 
ATOM      5  C   UNL d   1     -46.803  13.805  22.820  0.00  0.00     0.139 A 
ATOM      6  C   UNL d   1     -47.664  12.792  23.361  0.00  0.00     0.068 A 
ATOM      7  S   UNL d   1     -46.043  14.032  22.573  0.00  0.00    -0.057 SA
ATOM      8  C   UNL d   1     -46.277  12.499  23.156  0.00  0.00     0.004 A 
ATOM      9  C   UNL d   1     -47.792  12.027  23.654  0.00  0.00     0.018 A 
ATOM     10  C   UNL d   1     -46.408  11.731  23.451  0.00  0.00     0.000 A 
ATOM     11  C   UNL d   1     -47.155  11.494  23.698  0.00  0.00     0.002 A 
ENDROOT
BRANCH   1  12
ATOM     12  C   UNL d   1     -49.057  13.090  23.566  0.00  0.00     0.106 C 
BRANCH  12  13
ATOM     13  C   UNL d   1     -49.479  12.525  23.135  0.00  0.00     0.118 A 
ATOM     14  O   UNL d   1     -49.439  12.415  22.332  0.00  0.00    -0.304 OA
ATOM     15  C   UNL d   1     -49.943  11.801  22.135  0.00  0.00     0.123 A 
ATOM     16  C   UNL d   1     -50.299  11.530  22.830  0.00  0.00     0.029 A 
ATOM     17  C   UNL d   1     -50.009  11.983  23.456  0.00  0.00     0.028 A 
ENDBRANCH  12  13
ENDBRANCH   1  12
BRANCH   3  18
ATOM     18  C   UNL d   1     -48.828  14.613  22.988  0.00  0.00     0.035 A 
ATOM     19  C   UNL d   1     -49.189  14.882  23.675  0.00  0.00     0.003 A 
ATOM     20  C   UNL d   1     -49.824  15.401  23.619  0.00  0.00     0.000 A 
ATOM     21  C   UNL d   1     -50.103  15.653  22.893  0.00  0.00     0.000 A 
ATOM     22  C   UNL d   1     -49.736  15.378  22.194  0.00  0.00     0.000 A 
ATOM     23  C   UNL d   1     -49.099  14.859  22.247  0.00  0.00     0.003 A 
ENDBRANCH   3  18
TORSDOF 3
ENDMDL
MODEL 3
REMARK VINA RESULT:      -8.3      0.764      2.923
REMARK  3 active torsions:
REMARK  status: ('A' for Active; 'I' for Inactive)
REMARK    1  A    between atoms: C_7  and  N_1 
REMARK    2  A    between atoms: C_10  and  C_3 
REMARK    3  A    between atoms: C_8  and  C_7 
ROOT
ATOM      1  N   UNL d   1     -48.757  13.220  22.556  0.00  0.00    -0.289 N 
ATOM      2  N   UNL d   1     -48.228  12.065  23.215  0.00  0.00    -0.217 NA
ATOM      3  C   UNL d   1     -48.113  12.786  22.837  0.00  0.00     0.149 A 
ATOM      4  C   UNL d   1     -49.650  12.198  23.036  0.00  0.00     0.044 A 
ATOM      5  C   UNL d   1     -48.990  11.766  23.318  0.00  0.00     0.139 A 
ATOM      6  C   UNL d   1     -49.534  12.919  22.658  0.00  0.00     0.068 A 
ATOM      7  S   UNL d   1     -49.121  11.039  23.698  0.00  0.00    -0.057 SA
ATOM      8  C   UNL d   1     -50.420  11.900  23.137  0.00  0.00     0.004 A 
ATOM      9  C   UNL d   1     -50.178  13.358  22.374  0.00  0.00     0.018 A 
ATOM     10  C   UNL d   1     -51.064  12.343  22.851  0.00  0.00     0.000 A 
ATOM     11  C   UNL d   1     -50.949  13.064  22.473  0.00  0.00     0.002 A 
ENDROOT
BRANCH   1  12
ATOM     12  C   UNL d   1     -48.642  13.941  22.178  0.00  0.00     0.106 C 
BRANCH  12  13
ATOM     13  C   UNL d   1     -48.928  14.638  22.515  0.00  0.00     0.118 A 
ATOM     14  O   UNL d   1     -49.014  14.780  23.309  0.00  0.00    -0.304 OA
ATOM     15  C   UNL d   1     -49.314  15.536  23.401  0.00  0.00     0.123 A 
ATOM     16  C   UNL d   1     -49.415  15.864  22.649  0.00  0.00     0.029 A 
ATOM     17  C   UNL d   1     -49.173  15.302  22.094  0.00  0.00     0.028 A 
ENDBRANCH  12  13
ENDBRANCH   1  12
BRANCH   3  18
ATOM     18  C   UNL d   1     -47.349  13.088  22.733  0.00  0.00     0.035 A 
ATOM     19  C   UNL d   1     -46.992  13.073  21.993  0.00  0.00     0.003 A 
ATOM     20  C   UNL d   1     -46.234  13.378  21.907  0.00  0.00     0.000 A 
ATOM     21  C   UNL d   1     -45.828  13.694  22.542  0.00  0.00     0.000 A 
ATOM     22  C   UNL d   1     -46.191  13.708  23.295  0.00  0.00     0.000 A 
ATOM     23  C   UNL d   1     -46.952  13.404  23.385  0.00  0.00     0.003 A 
ENDBRANCH   3  18
TORSDOF 3
ENDMDL
MODEL 4
REMARK VINA RESULT:      -7.8      1.538      3.684
REMARK  3 active torsions:
REMARK  status: ('A' for Active; 'I' for Inactive)
REMARK    1  A    between atoms: C_7  and  N_1 
REMARK    2  A    between atoms: C_10  and  C_3 
REMARK    3  A    between atoms: C_8  and  C_7 
ROOT
ATOM      1  N   UNL d   1     -48.683  13.580  22.309  0.00  0.00    -0.289 N 
ATOM      2  N   UNL d   1     -48.317  14.900  22.725  0.00  0.00    -0.217 NA
ATOM      3  C   UNL d   1     -48.109  14.126  22.543  0.00  0.00     0.149 A 
ATOM      4  C   UNL d   1     -49.695  14.596  22.439  0.00  0.00     0.044 A 
ATOM      5  C   UNL d   1     -49.104  15.141  22.676  0.00  0.00     0.139 A 
ATOM      6  C   UNL d   1     -49.486  13.822  22.257  0.00  0.00     0.068 A 
ATOM      7  S   UNL d   1     -49.329  15.921  22.858  0.00  0.00    -0.057 SA
ATOM      8  C   UNL d   1     -50.490  14.835  22.388  0.00  0.00     0.004 A 
ATOM      9  C   UNL d   1     -50.059  13.271  22.022  0.00  0.00     0.018 A 
ATOM     10  C   UNL d   1     -51.064  14.280  22.152  0.00  0.00     0.000 A 
ATOM     11  C   UNL d   1     -50.855  13.507  21.969  0.00  0.00     0.002 A 
ENDROOT
BRANCH   1  12
ATOM     12  C   UNL d   1     -48.475  12.806  22.126  0.00  0.00     0.106 C 
BRANCH  12  13
ATOM     13  C   UNL d   1     -48.699  12.187  22.623  0.00  0.00     0.118 A 
ATOM     14  O   UNL d   1     -48.848  12.247  23.419  0.00  0.00    -0.304 OA
ATOM     15  C   UNL d   1     -49.053  11.504  23.696  0.00  0.00     0.123 A 
ATOM     16  C   UNL d   1     -49.030  10.979  23.058  0.00  0.00     0.029 A 
ATOM     17  C   UNL d   1     -48.809  11.405  22.387  0.00  0.00     0.028 A 
ENDBRANCH  12  13
ENDBRANCH   1  12
BRANCH   3  18
ATOM     18  C   UNL d   1     -47.320  13.881  22.592  0.00  0.00     0.035 A 
ATOM     19  C   UNL d   1     -46.909  13.662  21.914  0.00  0.00     0.003 A 
ATOM     20  C   UNL d   1     -46.125  13.421  21.980  0.00  0.00     0.000 A 
ATOM     21  C   UNL d   1     -45.748  13.396  22.705  0.00  0.00     0.000 A 
ATOM     22  C   UNL d   1     -46.166  13.620  23.394  0.00  0.00     0.000 A 
ATOM     23  C   UNL d   1     -46.951  13.861  23.331  0.00  0.00     0.003 A 
ENDBRANCH   3  18
TORSDOF 3
ENDMDL
MODEL 5
REMARK VINA RESULT:      -6.4      9.048     10.568
REMARK  3 active torsions:
REMARK  status: ('A' for Active; 'I' for Inactive)
REMARK    1  A    between atoms: C_7  and  N_1 
REMARK    2  A    between atoms: C_10  and  C_3 
REMARK    3  A    between atoms: C_8  and  C_7 
ROOT
ATOM      1  N   UNL d   1     -39.154  14.525  17.998  0.00  0.00    -0.289 N 
ATOM      2  N   UNL d   1     -38.719  13.437  18.819  0.00  0.00    -0.217 NA
ATOM      3  C   UNL d   1     -39.119  14.149  18.733  0.00  0.00     0.149 A 
ATOM      4  C   UNL d   1     -38.377  13.460  17.422  0.00  0.00     0.044 A 
ATOM      5  C   UNL d   1     -38.347  13.087  18.171  0.00  0.00     0.139 A 
ATOM      6  C   UNL d   1     -38.778  14.173  17.336  0.00  0.00     0.068 A 
ATOM      7  S   UNL d   1     -37.940  12.367  18.244  0.00  0.00    -0.057 SA
ATOM      8  C   UNL d   1     -38.004  13.111  16.765  0.00  0.00     0.004 A 
ATOM      9  C   UNL d   1     -38.815  14.553  16.600  0.00  0.00     0.018 A 
ATOM     10  C   UNL d   1     -38.043  13.494  16.027  0.00  0.00     0.000 A 
ATOM     11  C   UNL d   1     -38.443  14.207  15.942  0.00  0.00     0.002 A 
ENDROOT
BRANCH   1  12
ATOM     12  C   UNL d   1     -39.555  15.238  17.912  0.00  0.00     0.106 C 
BRANCH  12  13
ATOM     13  C   UNL d   1     -40.241  15.278  17.455  0.00  0.00     0.118 A 
ATOM     14  O   UNL d   1     -40.810  14.701  17.402  0.00  0.00    -0.304 OA
ATOM     15  C   UNL d   1     -41.392  14.965  16.891  0.00  0.00     0.123 A 
ATOM     16  C   UNL d   1     -41.177  15.717  16.626  0.00  0.00     0.029 A 
ATOM     17  C   UNL d   1     -40.457  15.913  16.978  0.00  0.00     0.028 A 
ENDBRANCH  12  13
ENDBRANCH   1  12
BRANCH   3  18
ATOM     18  C   UNL d   1     -39.493  14.502  19.382  0.00  0.00     0.035 A 
ATOM     19  C   UNL d   1     -40.192  14.190  19.681  0.00  0.00     0.003 A 
ATOM     20  C   UNL d   1     -40.550  14.552  20.326  0.00  0.00     0.000 A 
ATOM     21  C   UNL d   1     -40.225  15.217  20.675  0.00  0.00     0.000 A 
ATOM     22  C   UNL d   1     -39.514  15.534  20.371  0.00  0.00     0.000 A 
ATOM     23  C   UNL d   1     -39.152  15.173  19.724  0.00  0.00     0.003 A 
ENDBRANCH   3  18
TORSDOF 3
ENDMDL
MODEL 6
REMARK VINA RESULT:      -6.4      1.503      2.904
REMARK  3 active torsions:
REMARK  status: ('A' for Active; 'I' for Inactive)
REMARK    1  A    between atoms: C_7  and  N_1 
REMARK    2  A    between atoms: C_10  and  C_3 
REMARK    3  A    between atoms: C_8  and  C_7 
ROOT
ATOM      1  N   UNL d   1     -48.860  13.502  22.995  0.00  0.00    -0.289 N 
ATOM      2  N   UNL d   1     -49.915  12.796  22.332  0.00  0.00    -0.217 NA
ATOM      3  C   UNL d   1     -49.189  12.795  22.718  0.00  0.00     0.149 A 
ATOM      4  C   UNL d   1     -49.999  14.223  22.491  0.00  0.00     0.044 A 
ATOM      5  C   UNL d   1     -50.324  13.502  22.215  0.00  0.00     0.139 A 
ATOM      6  C   UNL d   1     -49.274  14.223  22.878  0.00  0.00     0.068 A 
ATOM      7  S   UNL d   1     -51.058  13.516  21.826  0.00  0.00    -0.057 SA
ATOM      8  C   UNL d   1     -50.409  14.939  22.375  0.00  0.00     0.004 A 
ATOM      9  C   UNL d   1     -48.941  14.929  23.157  0.00  0.00     0.018 A 
ATOM     10  C   UNL d   1     -50.072  15.646  22.656  0.00  0.00     0.000 A 
ATOM     11  C   UNL d   1     -49.347  15.646  23.043  0.00  0.00     0.002 A 
ENDROOT
BRANCH   1  12
ATOM     12  C   UNL d   1     -48.135  13.501  23.381  0.00  0.00     0.106 C 
BRANCH  12  13
ATOM     13  C   UNL d   1     -47.468  13.819  23.014  0.00  0.00     0.118 A 
ATOM     14  O   UNL d   1     -47.367  13.915  22.214  0.00  0.00    -0.304 OA
ATOM     15  C   UNL d   1     -46.630  14.248  22.089  0.00  0.00     0.123 A 
ATOM     16  C   UNL d   1     -46.271  14.359  22.826  0.00  0.00     0.029 A 
ATOM     17  C   UNL d   1     -46.795  14.090  23.404  0.00  0.00     0.028 A 
ENDBRANCH  12  13
ENDBRANCH   1  12
BRANCH   3  18
ATOM     18  C   UNL d   1     -48.777  12.088  22.837  0.00  0.00     0.035 A 
ATOM     19  C   UNL d   1     -48.660  11.795  23.596  0.00  0.00     0.003 A 
ATOM     20  C   UNL d   1     -48.248  11.091  23.696  0.00  0.00     0.000 A 
ATOM     21  C   UNL d   1     -47.952  10.677  23.056  0.00  0.00     0.000 A 
ATOM     22  C   UNL d   1     -48.071  10.975  22.284  0.00  0.00     0.000 A 
ATOM     23  C   UNL d   1     -48.484  11.681  22.180  0.00  0.00     0.003 A 
ENDBRANCH   3  18
TORSDOF 3
ENDMDL
MODEL 7
REMARK VINA RESULT:      -6.3      8.871     10.433
REMARK  3 active torsions:
REMARK  status: ('A' for Active; 'I' for Inactive)
REMARK    1  A    between atoms: C_7  and  N_1 
REMARK    2  A    between atoms: C_10  and  C_3 
REMARK    3  A    between atoms: C_8  and  C_7 
ROOT
ATOM      1  N   UNL d   1     -39.600  14.277  18.763  0.00  0.00    -0.289 N 
ATOM      2  N   UNL d   1     -38.279  14.171  19.304  0.00  0.00    -0.217 NA
ATOM      3  C   UNL d   1     -38.814  14.030  18.696  0.00  0.00     0.149 A 
ATOM      4  C   UNL d   1     -39.315  14.816  20.066  0.00  0.00     0.044 A 
ATOM      5  C   UNL d   1     -38.521  14.561  19.989  0.00  0.00     0.139 A 
ATOM      6  C   UNL d   1     -39.850  14.675  19.458  0.00  0.00     0.068 A 
ATOM      7  S   UNL d   1     -37.990  14.710  20.611  0.00  0.00    -0.057 SA
ATOM      8  C   UNL d   1     -39.564  15.211  20.756  0.00  0.00     0.004 A 
ATOM      9  C   UNL d   1     -40.639  14.922  19.521  0.00  0.00     0.018 A 
ATOM     10  C   UNL d   1     -40.356  15.458  20.816  0.00  0.00     0.000 A 
ATOM     11  C   UNL d   1     -40.891  15.317  20.208  0.00  0.00     0.002 A 
ENDROOT
BRANCH   1  12
ATOM     12  C   UNL d   1     -40.135  14.136  18.155  0.00  0.00     0.106 C 
BRANCH  12  13
ATOM     13  C   UNL d   1     -40.424  14.763  17.701  0.00  0.00     0.118 A 
ATOM     14  O   UNL d   1     -40.031  15.456  17.546  0.00  0.00    -0.304 OA
ATOM     15  C   UNL d   1     -40.515  15.922  17.077  0.00  0.00     0.123 A 
ATOM     16  C   UNL d   1     -41.217  15.506  16.943  0.00  0.00     0.029 A 
ATOM     17  C   UNL d   1     -41.160  14.781  17.333  0.00  0.00     0.028 A 
ENDBRANCH  12  13
ENDBRANCH   1  12
BRANCH   3  18
ATOM     18  C   UNL d   1     -38.574  13.638  18.008  0.00  0.00     0.035 A 
ATOM     19  C   UNL d   1     -38.171  14.042  17.417  0.00  0.00     0.003 A 
ATOM     20  C   UNL d   1     -37.939  13.638  16.739  0.00  0.00     0.000 A 
ATOM     21  C   UNL d   1     -38.102  12.843  16.643  0.00  0.00     0.000 A 
ATOM     22  C   UNL d   1     -38.512  12.431  17.245  0.00  0.00     0.000 A 
ATOM     23  C   UNL d   1     -38.746  12.833  17.925  0.00  0.00     0.003 A 
ENDBRANCH   3  18
TORSDOF 3
ENDMDL
MODEL 8
REMARK VINA RESULT:      -6.2      9.091     10.386
REMARK  3 active torsions:
REMARK  status: ('A' for Active; 'I' for Inactive)
REMARK    1  A    between atoms: C_7  and  N_1 
REMARK    2  A    between atoms: C_10  and  C_3 
REMARK    3  A    between atoms: C_8  and  C_7 
ROOT
ATOM      1  N   UNL d   1     -39.282  14.514  18.905  0.00  0.00    -0.289 N 
ATOM      2  N   UNL d   1     -40.511  14.973  19.476  0.00  0.00    -0.217 NA
ATOM      3  C   UNL d   1     -40.025  14.866  18.822  0.00  0.00     0.149 A 
ATOM      4  C   UNL d   1     -39.510  14.374  20.319  0.00  0.00     0.044 A 
ATOM      5  C   UNL d   1     -40.262  14.731  20.224  0.00  0.00     0.139 A 
ATOM      6  C   UNL d   1     -39.024  14.266  19.665  0.00  0.00     0.068 A 
ATOM      7  S   UNL d   1     -40.744  14.834  20.893  0.00  0.00    -0.057 SA
ATOM      8  C   UNL d   1     -39.255  14.128  21.072  0.00  0.00     0.004 A 
ATOM      9  C   UNL d   1     -38.278  13.914  19.743  0.00  0.00     0.018 A 
ATOM     10  C   UNL d   1     -38.505  13.775  21.148  0.00  0.00     0.000 A 
ATOM     11  C   UNL d   1     -38.019  13.667  20.494  0.00  0.00     0.002 A 
ENDROOT
BRANCH   1  12
ATOM     12  C   UNL d   1     -38.795  14.407  18.251  0.00  0.00     0.106 C 
BRANCH  12  13
ATOM     13  C   UNL d   1     -38.631  13.646  17.975  0.00  0.00     0.118 A 
ATOM     14  O   UNL d   1     -39.121  13.002  18.040  0.00  0.00    -0.304 OA
ATOM     15  C   UNL d   1     -38.745  12.362  17.695  0.00  0.00     0.123 A 
ATOM     16  C   UNL d   1     -38.011  12.618  17.413  0.00  0.00     0.029 A 
ATOM     17  C   UNL d   1     -37.940  13.421  17.588  0.00  0.00     0.028 A 
ENDBRANCH  12  13
ENDBRANCH   1  12
BRANCH   3  18
ATOM     18  C   UNL d   1     -40.273  15.108  18.071  0.00  0.00     0.035 A 
ATOM     19  C   UNL d   1     -39.862  15.693  17.665  0.00  0.00     0.003 A 
ATOM     20  C   UNL d   1     -40.122  15.922  16.919  0.00  0.00     0.000 A 
ATOM     21  C   UNL d   1     -40.779  15.579  16.574  0.00  0.00     0.000 A 
ATOM     22  C   UNL d   1     -41.196  14.983  16.987  0.00  0.00     0.000 A 
ATOM     23  C   UNL d   1     -40.939  14.752  17.734  0.00  0.00     0.003 A 
ENDBRANCH   3  18
TORSDOF 3
ENDMDL
MODEL 9
REMARK VINA RESULT:      -5.9      8.432     10.371
REMARK  3 active torsions:
REMARK  status: ('A' for Active; 'I' for Inactive)
REMARK    1  A    between atoms: C_7  and  N_1 
REMARK    2  A    between atoms: C_10  and  C_3 
REMARK    3  A    between atoms: C_8  and  C_7 
ROOT
ATOM      1  N   UNL d   1     -39.610  15.132  18.415  0.00  0.00    -0.289 N 
ATOM      2  N   UNL d   1     -40.952  15.549  18.146  0.00  0.00    -0.217 NA
ATOM      3  C   UNL d   1     -40.379  15.288  18.674  0.00  0.00     0.149 A 
ATOM      4  C   UNL d   1     -39.990  15.502  17.078  0.00  0.00     0.044 A 
ATOM      5  C   UNL d   1     -40.766  15.658  17.350  0.00  0.00     0.139 A 
ATOM      6  C   UNL d   1     -39.417  15.241  17.606  0.00  0.00     0.068 A 
ATOM      7  S   UNL d   1     -41.337  15.922  16.806  0.00  0.00    -0.057 SA
ATOM      8  C   UNL d   1     -39.798  15.611  16.275  0.00  0.00     0.004 A 
ATOM      9  C   UNL d   1     -38.644  15.083  17.350  0.00  0.00     0.018 A 
ATOM     10  C   UNL d   1     -39.022  15.452  16.021  0.00  0.00     0.000 A 
ATOM     11  C   UNL d   1     -38.448  15.190  16.549  0.00  0.00     0.002 A 
ENDROOT
BRANCH   1  12
ATOM     12  C   UNL d   1     -39.036  14.870  18.943  0.00  0.00     0.106 C 
BRANCH  12  13
ATOM     13  C   UNL d   1     -38.739  14.102  18.888  0.00  0.00     0.118 A 
ATOM     14  O   UNL d   1     -39.114  13.472  18.540  0.00  0.00    -0.304 OA
ATOM     15  C   UNL d   1     -38.627  12.818  18.607  0.00  0.00     0.123 A 
ATOM     16  C   UNL d   1     -37.940  13.051  19.003  0.00  0.00     0.029 A 
ATOM     17  C   UNL d   1     -38.009  13.854  19.179  0.00  0.00     0.028 A 
ENDBRANCH  12  13
ENDBRANCH   1  12
BRANCH   3  18
ATOM     18  C   UNL d   1     -40.563  15.178  19.473  0.00  0.00     0.035 A 
ATOM     19  C   UNL d   1     -41.005  14.528  19.714  0.00  0.00     0.003 A 
ATOM     20  C   UNL d   1     -41.179  14.433  20.512  0.00  0.00     0.000 A 
ATOM     21  C   UNL d   1     -40.921  14.973  21.069  0.00  0.00     0.000 A 
ATOM     22  C   UNL d   1     -40.472  15.634  20.825  0.00  0.00     0.000 A 
ATOM     23  C   UNL d   1     -40.296  15.732  20.026  0.00  0.00     0.003 A 
ENDBRANCH   3  18
TORSDOF 3
ENDMDL
