MODEL 1
REMARK VINA RESULT:      11.9      0.000      0.000
REMARK  3 active torsions:
REMARK  status: ('A' for Active; 'I' for Inactive)
REMARK    1  A    between atoms: C_6  and  N_2 
REMARK    2  A    between atoms: C_7  and  C_6 
REMARK       I    between atoms: N_11  and  C_7 
REMARK    3  A    between atoms: C_14  and  N_11 
ROOT
ATOM      1  S   UNL d   1      46.277 -18.916  44.299  0.00  0.00     0.274 S 
ATOM      2  N   UNL d   1      46.345 -18.113  44.174  0.00  0.00    -0.192 N 
ATOM      3  C   UNL d   1      46.452 -17.982  43.363  0.00  0.00     0.275 A 
ATOM      4  C   UNL d   1      46.449 -18.716  43.001  0.00  0.00     0.069 A 
ATOM      5  C   UNL d   1      46.342 -19.286  43.573  0.00  0.00     0.109 A 
ATOM      6  O   UNL d   1      46.230 -18.417  44.955  0.00  0.00    -0.200 OA
ATOM      7  O   UNL d   1      46.183 -19.654  44.673  0.00  0.00    -0.200 OA
ATOM      8  O   UNL d   1      46.545 -17.262  42.989  0.00  0.00    -0.266 OA
ATOM      9  C   UNL d   1      46.531 -18.932  42.208  0.00  0.00     0.005 A 
ATOM     10  C   UNL d   1      46.315 -20.084  43.364  0.00  0.00     0.013 A 
ATOM     11  C   UNL d   1      46.505 -19.732  41.999  0.00  0.00     0.000 A 
ATOM     12  C   UNL d   1      46.398 -20.302  42.571  0.00  0.00     0.001 A 
ENDROOT
BRANCH   2  13
ATOM     13  C   UNL d   1      46.312 -17.523  44.756  0.00  0.00     0.157 C 
BRANCH  13  14
ATOM     14  C   UNL d   1      45.901 -16.833  44.607  0.00  0.00     0.298 C 
ATOM     15  N   UNL d   1      46.164 -16.120  44.940  0.00  0.00    -0.207 NA
ATOM     16  O   UNL d   1      45.231 -16.833  44.134  0.00  0.00    -0.264 OA
BRANCH  15  17
ATOM     17  C   UNL d   1      45.754 -15.418  44.795  0.00  0.00     0.085 A 
ATOM     18  C   UNL d   1      46.158 -14.778  44.499  0.00  0.00     0.019 A 
ATOM     19  C   UNL d   1      45.748 -14.076  44.354  0.00  0.00     0.002 A 
ATOM     20  C   UNL d   1      44.947 -14.029  44.508  0.00  0.00     0.000 A 
ATOM     21  C   UNL d   1      44.543 -14.683  44.809  0.00  0.00     0.002 A 
ATOM     22  C   UNL d   1      44.941 -15.370  44.951  0.00  0.00     0.019 A 
ENDBRANCH  15  17
ENDBRANCH  13  14
ENDBRANCH   2  13
TORSDOF 3
ENDMDL
