MODEL 1
REMARK VINA RESULT:      -8.6      0.000      0.000
REMARK  3 active torsions:
REMARK  status: ('A' for Active; 'I' for Inactive)
REMARK    1  A    between atoms: C_2  and  C_1 
REMARK    2  A    between atoms: C_3  and  C_1 
REMARK       I    between atoms: N_4  and  C_2 
REMARK    3  A    between atoms: C_6  and  N_4 
ROOT
ATOM      1  C   UNL d   1     -49.809  13.878  22.399  0.00  0.00     0.150 A 
ATOM      2  O   UNL d   1     -50.137  15.482  22.618  0.00  0.00    -0.304 OA
ATOM      3  C   UNL d   1     -49.338  14.450  22.031  0.00  0.00     0.019 A 
ATOM      4  C   UNL d   1     -50.434  14.107  22.869  0.00  0.00     0.019 A 
ATOM      5  C   UNL d   1     -50.600  14.916  22.980  0.00  0.00     0.119 A 
ATOM      6  C   UNL d   1     -49.504  15.253  22.142  0.00  0.00     0.119 A 
ENDROOT
BRANCH   1   7
ATOM      7  C   UNL d   1     -49.174  13.645  21.921  0.00  0.00     0.315 C 
ATOM      8  N   UNL d   1     -48.446  13.451  22.258  0.00  0.00    -0.367 NA
ATOM      9  O   UNL d   1     -49.275  13.608  21.106  0.00  0.00    -0.255 OA
BRANCH   8  10
ATOM     10  C   UNL d   1     -47.718  13.256  22.587  0.00  0.00     0.135 A 
ATOM     11  C   UNL d   1     -47.125  13.813  22.569  0.00  0.00     0.032 A 
ATOM     12  C   UNL d   1     -46.383  13.618  22.903  0.00  0.00     0.003 A 
ATOM     13  C   UNL d   1     -45.776  14.181  22.886  0.00  0.00     0.000 C 
ATOM     14  C   UNL d   1     -46.273  12.902  23.228  0.00  0.00     0.000 A 
ATOM     15  C   UNL d   1     -46.864  12.348  23.246  0.00  0.00     0.003 A 
ATOM     16  C   UNL d   1     -47.588  12.530  22.923  0.00  0.00     0.032 A 
ATOM     17  C   UNL d   1     -46.742  11.608  23.585  0.00  0.00     0.000 C 
ENDBRANCH   8  10
ENDBRANCH   1   7
BRANCH   1  18
ATOM     18  C   UNL d   1     -50.278  13.302  22.766  0.00  0.00     0.024 A 
ATOM     19  S   UNL d   1     -50.654  12.659  22.398  0.00  0.00    -0.090 SA
ATOM     20  C   UNL d   1     -51.064  12.226  22.968  0.00  0.00     0.035 A 
ATOM     21  C   UNL d   1     -50.954  12.585  23.698  0.00  0.00     0.007 A 
ATOM     22  C   UNL d   1     -50.467  13.254  23.575  0.00  0.00     0.004 A 
ENDBRANCH   1  18
TORSDOF 3
ENDMDL
MODEL 2
REMARK VINA RESULT:      -8.3      0.778      1.088
REMARK  3 active torsions:
REMARK  status: ('A' for Active; 'I' for Inactive)
REMARK    1  A    between atoms: C_2  and  C_1 
REMARK    2  A    between atoms: C_3  and  C_1 
REMARK       I    between atoms: N_4  and  C_2 
REMARK    3  A    between atoms: C_6  and  N_4 
ROOT
ATOM      1  C   UNL d   1     -49.719  13.583  22.588  0.00  0.00     0.150 A 
ATOM      2  O   UNL d   1     -50.181  14.133  21.099  0.00  0.00    -0.304 OA
ATOM      3  C   UNL d   1     -49.325  14.225  22.244  0.00  0.00     0.019 A 
ATOM      4  C   UNL d   1     -50.334  13.223  22.191  0.00  0.00     0.019 A 
ATOM      5  C   UNL d   1     -50.566  13.500  21.442  0.00  0.00     0.119 A 
ATOM      6  C   UNL d   1     -49.558  14.499  21.498  0.00  0.00     0.119 A 
ENDROOT
BRANCH   1   7
ATOM      7  C   UNL d   1     -49.094  13.949  22.991  0.00  0.00     0.315 C 
ATOM      8  N   UNL d   1     -48.340  13.617  22.983  0.00  0.00    -0.367 NA
ATOM      9  O   UNL d   1     -49.233  14.649  23.400  0.00  0.00    -0.255 OA
BRANCH   8  10
ATOM     10  C   UNL d   1     -47.585  13.290  22.978  0.00  0.00     0.135 A 
ATOM     11  C   UNL d   1     -46.990  13.698  22.601  0.00  0.00     0.032 A 
ATOM     12  C   UNL d   1     -46.221  13.369  22.595  0.00  0.00     0.003 A 
ATOM     13  C   UNL d   1     -45.612  13.780  22.212  0.00  0.00     0.000 C 
ATOM     14  C   UNL d   1     -46.087  12.672  22.954  0.00  0.00     0.000 A 
ATOM     15  C   UNL d   1     -46.679  12.267  23.329  0.00  0.00     0.003 A 
ATOM     16  C   UNL d   1     -47.430  12.581  23.339  0.00  0.00     0.032 A 
ATOM     17  C   UNL d   1     -46.533  11.547  23.698  0.00  0.00     0.000 C 
ENDBRANCH   8  10
ENDBRANCH   1   7
BRANCH   1  18
ATOM     18  C   UNL d   1     -50.110  12.941  22.936  0.00  0.00     0.024 A 
ATOM     19  S   UNL d   1     -50.714  12.976  23.505  0.00  0.00    -0.090 SA
ATOM     20  C   UNL d   1     -50.946  12.208  23.698  0.00  0.00     0.035 A 
ATOM     21  C   UNL d   1     -50.496  11.681  23.257  0.00  0.00     0.007 A 
ATOM     22  C   UNL d   1     -49.976  12.134  22.783  0.00  0.00     0.004 A 
ENDBRANCH   1  18
TORSDOF 3
ENDMDL
MODEL 3
REMARK VINA RESULT:      -7.4      1.508      4.004
REMARK  3 active torsions:
REMARK  status: ('A' for Active; 'I' for Inactive)
REMARK    1  A    between atoms: C_2  and  C_1 
REMARK    2  A    between atoms: C_3  and  C_1 
REMARK       I    between atoms: N_4  and  C_2 
REMARK    3  A    between atoms: C_6  and  N_4 
ROOT
ATOM      1  C   UNL d   1     -47.261  12.498  22.613  0.00  0.00     0.150 A 
ATOM      2  O   UNL d   1     -47.191  11.253  23.698  0.00  0.00    -0.304 OA
ATOM      3  C   UNL d   1     -47.905  11.985  22.695  0.00  0.00     0.019 A 
ATOM      4  C   UNL d   1     -46.593  12.388  23.069  0.00  0.00     0.019 A 
ATOM      5  C   UNL d   1     -46.558  11.761  23.615  0.00  0.00     0.119 A 
ATOM      6  C   UNL d   1     -47.868  11.362  23.239  0.00  0.00     0.119 A 
ENDROOT
BRANCH   1   7
ATOM      7  C   UNL d   1     -47.938  12.610  22.151  0.00  0.00     0.315 C 
ATOM      8  N   UNL d   1     -48.548  13.098  22.415  0.00  0.00    -0.367 NA
ATOM      9  O   UNL d   1     -47.999  12.229  21.425  0.00  0.00    -0.255 OA
BRANCH   8  10
ATOM     10  C   UNL d   1     -49.160  13.584  22.672  0.00  0.00     0.135 A 
ATOM     11  C   UNL d   1     -49.793  13.240  23.050  0.00  0.00     0.032 A 
ATOM     12  C   UNL d   1     -50.418  13.731  23.313  0.00  0.00     0.003 A 
ATOM     13  C   UNL d   1     -51.064  13.386  23.698  0.00  0.00     0.000 C 
ATOM     14  C   UNL d   1     -50.381  14.515  23.189  0.00  0.00     0.000 A 
ATOM     15  C   UNL d   1     -49.751  14.857  22.813  0.00  0.00     0.003 A 
ATOM     16  C   UNL d   1     -49.140  14.386  22.555  0.00  0.00     0.032 A 
ATOM     17  C   UNL d   1     -49.720  15.670  22.689  0.00  0.00     0.000 C 
ENDBRANCH   8  10
ENDBRANCH   1   7
BRANCH   1  18
ATOM     18  C   UNL d   1     -46.617  13.014  22.529  0.00  0.00     0.024 A 
ATOM     19  S   UNL d   1     -46.039  12.994  21.934  0.00  0.00    -0.090 SA
ATOM     20  C   UNL d   1     -45.502  13.607  22.060  0.00  0.00     0.035 A 
ATOM     21  C   UNL d   1     -45.731  14.020  22.730  0.00  0.00     0.007 A 
ATOM     22  C   UNL d   1     -46.424  13.654  23.024  0.00  0.00     0.004 A 
ENDBRANCH   1  18
TORSDOF 3
ENDMDL
MODEL 4
REMARK VINA RESULT:      -6.5      8.535     10.310
REMARK  3 active torsions:
REMARK  status: ('A' for Active; 'I' for Inactive)
REMARK    1  A    between atoms: C_2  and  C_1 
REMARK    2  A    between atoms: C_3  and  C_1 
REMARK       I    between atoms: N_4  and  C_2 
REMARK    3  A    between atoms: C_6  and  N_4 
ROOT
ATOM      1  C   UNL d   1     -39.331  14.809  20.775  0.00  0.00     0.150 A 
ATOM      2  O   UNL d   1     -38.749  13.763  21.914  0.00  0.00    -0.304 OA
ATOM      3  C   UNL d   1     -38.556  14.526  20.718  0.00  0.00     0.019 A 
ATOM      4  C   UNL d   1     -39.807  14.571  21.393  0.00  0.00     0.019 A 
ATOM      5  C   UNL d   1     -39.513  14.044  21.967  0.00  0.00     0.119 A 
ATOM      6  C   UNL d   1     -38.266  14.002  21.290  0.00  0.00     0.119 A 
ENDROOT
BRANCH   1   7
ATOM      7  C   UNL d   1     -38.849  15.050  20.147  0.00  0.00     0.315 C 
ATOM      8  N   UNL d   1     -38.931  14.709  19.401  0.00  0.00    -0.367 NA
ATOM      9  O   UNL d   1     -38.284  15.635  20.274  0.00  0.00    -0.255 OA
BRANCH   8  10
ATOM     10  C   UNL d   1     -39.009  14.373  18.654  0.00  0.00     0.135 A 
ATOM     11  C   UNL d   1     -39.352  14.816  18.065  0.00  0.00     0.032 A 
ATOM     12  C   UNL d   1     -39.433  14.477  17.304  0.00  0.00     0.003 A 
ATOM     13  C   UNL d   1     -39.782  14.924  16.701  0.00  0.00     0.000 C 
ATOM     14  C   UNL d   1     -39.174  13.737  17.173  0.00  0.00     0.000 A 
ATOM     15  C   UNL d   1     -38.832  13.296  17.760  0.00  0.00     0.003 A 
ATOM     16  C   UNL d   1     -38.751  13.619  18.502  0.00  0.00     0.032 A 
ATOM     17  C   UNL d   1     -38.567  12.531  17.616  0.00  0.00     0.000 C 
ENDBRANCH   8  10
ENDBRANCH   1   7
BRANCH   1  18
ATOM     18  C   UNL d   1     -40.107  15.094  20.829  0.00  0.00     0.024 A 
ATOM     19  S   UNL d   1     -40.339  15.880  20.965  0.00  0.00    -0.090 SA
ATOM     20  C   UNL d   1     -41.164  15.918  20.977  0.00  0.00     0.035 A 
ATOM     21  C   UNL d   1     -41.462  15.165  20.849  0.00  0.00     0.007 A 
ATOM     22  C   UNL d   1     -40.808  14.650  20.757  0.00  0.00     0.004 A 
ENDBRANCH   1  18
TORSDOF 3
ENDMDL
MODEL 5
REMARK VINA RESULT:      -6.5      8.464      9.956
REMARK  3 active torsions:
REMARK  status: ('A' for Active; 'I' for Inactive)
REMARK    1  A    between atoms: C_2  and  C_1 
REMARK    2  A    between atoms: C_3  and  C_1 
REMARK       I    between atoms: N_4  and  C_2 
REMARK    3  A    between atoms: C_6  and  N_4 
ROOT
ATOM      1  C   UNL d   1     -40.165  14.668  20.682  0.00  0.00     0.150 A 
ATOM      2  O   UNL d   1     -40.928  15.922  21.442  0.00  0.00    -0.304 OA
ATOM      3  C   UNL d   1     -40.940  14.868  20.473  0.00  0.00     0.019 A 
ATOM      4  C   UNL d   1     -39.779  15.091  21.263  0.00  0.00     0.019 A 
ATOM      5  C   UNL d   1     -40.164  15.723  21.646  0.00  0.00     0.119 A 
ATOM      6  C   UNL d   1     -41.321  15.496  20.855  0.00  0.00     0.119 A 
ENDROOT
BRANCH   1   7
ATOM      7  C   UNL d   1     -40.557  14.239  20.093  0.00  0.00     0.315 C 
ATOM      8  N   UNL d   1     -40.394  14.377  19.296  0.00  0.00    -0.367 NA
ATOM      9  O   UNL d   1     -41.112  13.672  20.308  0.00  0.00    -0.255 OA
BRANCH   8  10
ATOM     10  C   UNL d   1     -40.236  14.511  18.500  0.00  0.00     0.135 A 
ATOM     11  C   UNL d   1     -39.701  14.025  18.127  0.00  0.00     0.032 A 
ATOM     12  C   UNL d   1     -39.538  14.158  17.316  0.00  0.00     0.003 A 
ATOM     13  C   UNL d   1     -38.994  13.666  16.931  0.00  0.00     0.000 C 
ATOM     14  C   UNL d   1     -39.904  14.749  16.932  0.00  0.00     0.000 A 
ATOM     15  C   UNL d   1     -40.436  15.232  17.305  0.00  0.00     0.003 A 
ATOM     16  C   UNL d   1     -40.600  15.109  18.092  0.00  0.00     0.032 A 
ATOM     17  C   UNL d   1     -40.812  15.842  16.900  0.00  0.00     0.000 C 
ENDBRANCH   8  10
ENDBRANCH   1   7
BRANCH   1  18
ATOM     18  C   UNL d   1     -39.389  14.466  20.889  0.00  0.00     0.024 A 
ATOM     19  S   UNL d   1     -38.720  14.957  20.853  0.00  0.00    -0.090 SA
ATOM     20  C   UNL d   1     -38.061  14.533  21.110  0.00  0.00     0.035 A 
ATOM     21  C   UNL d   1     -38.301  13.775  21.311  0.00  0.00     0.007 A 
ATOM     22  C   UNL d   1     -39.125  13.730  21.175  0.00  0.00     0.004 A 
ENDBRANCH   1  18
TORSDOF 3
ENDMDL
