MODEL 1
REMARK VINA RESULT:      -8.9      0.000      0.000
REMARK  4 active torsions:
REMARK  status: ('A' for Active; 'I' for Inactive)
REMARK    1  A    between atoms: C_2  and  C_1 
REMARK    2  A    between atoms: N_12  and  C_6 
REMARK    3  A    between atoms: C_16  and  N_12 
REMARK    4  A    between atoms: O_25  and  C_17 
ROOT
ATOM      1  C   UNL d   1      49.929  34.577  52.657  0.00  0.00     0.082 A 
ATOM      2  C   UNL d   1      49.602  34.547  51.901  0.00  0.00     0.302 A 
ATOM      3  C   UNL d   1      49.557  35.016  53.248  0.00  0.00     0.009 A 
ATOM      4  O   UNL d   1      48.901  34.956  51.730  0.00  0.00    -0.273 OA
ATOM      5  C   UNL d   1      48.856  35.427  53.087  0.00  0.00     0.025 A 
ATOM      6  C   UNL d   1      48.532  35.393  52.321  0.00  0.00     0.103 A 
ATOM      7  O   UNL d   1      49.973  34.106  51.300  0.00  0.00    -0.259 OA
ATOM      8  C   UNL d   1      48.489  35.864  53.682  0.00  0.00     0.026 A 
ATOM      9  C   UNL d   1      47.834  35.805  52.166  0.00  0.00     0.027 A 
ATOM     10  C   UNL d   1      47.792  36.270  53.514  0.00  0.00     0.094 A 
ATOM     11  C   UNL d   1      47.463  36.241  52.750  0.00  0.00     0.026 A 
ENDROOT
BRANCH   1  12
ATOM     12  C   UNL d   1      50.629  34.165  52.818  0.00  0.00     0.095 A 
ATOM     13  N   UNL d   1      51.396  34.440  52.687  0.00  0.00    -0.221 NA
ATOM     14  C   UNL d   1      51.918  33.848  52.929  0.00  0.00     0.194 A 
ATOM     15  S   UNL d   1      51.476  33.205  53.210  0.00  0.00    -0.046 SA
ATOM     16  C   UNL d   1      50.673  33.404  53.140  0.00  0.00     0.058 A 
BRANCH  14  17
ATOM     17  N   UNL d   1      52.745  33.890  52.896  0.00  0.00    -0.221 NA
BRANCH  17  18
ATOM     18  C   UNL d   1      53.195  33.717  53.565  0.00  0.00     0.084 A 
ATOM     19  C   UNL d   1      53.266  34.281  54.160  0.00  0.00     0.020 A 
ATOM     20  C   UNL d   1      53.721  34.104  54.833  0.00  0.00     0.013 A 
ATOM     21  C   UNL d   1      54.096  33.369  54.901  0.00  0.00     0.058 A 
ATOM     22  C   UNL d   1      54.013  32.816  54.293  0.00  0.00     0.013 A 
ATOM     23 CL   UNL d   1      54.546  33.190  55.564  0.00  0.00    -0.082 Cl
ATOM     24  C   UNL d   1      53.565  32.986  53.627  0.00  0.00     0.020 A 
ENDBRANCH  17  18
ENDBRANCH  14  17
ENDBRANCH   1  12
BRANCH  10  25
ATOM     25  O   UNL d   1      47.421  36.709  54.105  0.00  0.00    -0.328 OA
ATOM     26  C   UNL d   1      46.729  36.434  54.458  0.00  0.00     0.181 C 
ENDBRANCH  10  25
TORSDOF 4
ENDMDL
MODEL 2
REMARK VINA RESULT:      -8.6      2.016      2.914
REMARK  4 active torsions:
REMARK  status: ('A' for Active; 'I' for Inactive)
REMARK    1  A    between atoms: C_2  and  C_1 
REMARK    2  A    between atoms: N_12  and  C_6 
REMARK    3  A    between atoms: C_16  and  N_12 
REMARK    4  A    between atoms: O_25  and  C_17 
ROOT
ATOM      1  C   UNL d   1      51.481  33.702  52.928  0.00  0.00     0.082 A 
ATOM      2  C   UNL d   1      51.218  34.082  53.610  0.00  0.00     0.302 A 
ATOM      3  C   UNL d   1      51.038  33.751  52.233  0.00  0.00     0.009 A 
ATOM      4  O   UNL d   1      50.509  34.514  53.603  0.00  0.00    -0.273 OA
ATOM      5  C   UNL d   1      50.330  34.179  52.217  0.00  0.00     0.025 A 
ATOM      6  C   UNL d   1      50.070  34.560  52.910  0.00  0.00     0.103 A 
ATOM      7  O   UNL d   1      51.660  34.037  54.314  0.00  0.00    -0.259 OA
ATOM      8  C   UNL d   1      49.891  34.224  51.520  0.00  0.00     0.026 A 
ATOM      9  C   UNL d   1      49.363  34.986  52.887  0.00  0.00     0.027 A 
ATOM     10  C   UNL d   1      49.188  34.653  51.512  0.00  0.00     0.094 A 
ATOM     11  C   UNL d   1      48.922  35.037  52.201  0.00  0.00     0.026 A 
ENDROOT
BRANCH   1  12
ATOM     12  C   UNL d   1      52.189  33.273  52.944  0.00  0.00     0.095 A 
ATOM     13  N   UNL d   1      52.299  32.503  52.668  0.00  0.00    -0.221 NA
ATOM     14  C   UNL d   1      53.089  32.302  52.796  0.00  0.00     0.194 A 
ATOM     15  S   UNL d   1      53.471  32.946  53.151  0.00  0.00    -0.046 SA
ATOM     16  C   UNL d   1      52.909  33.551  53.243  0.00  0.00     0.058 A 
BRANCH  14  17
ATOM     17  N   UNL d   1      53.440  31.578  52.601  0.00  0.00    -0.221 NA
BRANCH  17  18
ATOM     18  C   UNL d   1      53.349  30.926  53.099  0.00  0.00     0.084 A 
ATOM     19  C   UNL d   1      52.799  30.346  52.907  0.00  0.00     0.020 A 
ATOM     20  C   UNL d   1      52.710  29.690  53.411  0.00  0.00     0.013 A 
ATOM     21  C   UNL d   1      53.170  29.626  54.096  0.00  0.00     0.058 A 
ATOM     22  C   UNL d   1      53.717  30.219  54.272  0.00  0.00     0.013 A 
ATOM     23 CL   UNL d   1      53.086  28.980  54.597  0.00  0.00    -0.082 Cl
ATOM     24  C   UNL d   1      53.809  30.868  53.778  0.00  0.00     0.020 A 
ENDBRANCH  17  18
ENDBRANCH  14  17
ENDBRANCH   1  12
BRANCH  10  25
ATOM     25  O   UNL d   1      48.746  34.701  50.818  0.00  0.00    -0.328 OA
ATOM     26  C   UNL d   1      47.979  35.004  50.830  0.00  0.00     0.181 C 
ENDBRANCH  10  25
TORSDOF 4
ENDMDL
MODEL 3
REMARK VINA RESULT:      -8.3      1.290      1.734
REMARK  4 active torsions:
REMARK  status: ('A' for Active; 'I' for Inactive)
REMARK    1  A    between atoms: C_2  and  C_1 
REMARK    2  A    between atoms: N_12  and  C_6 
REMARK    3  A    between atoms: C_16  and  N_12 
REMARK    4  A    between atoms: O_25  and  C_17 
ROOT
ATOM      1  C   UNL d   1      50.912  34.441  52.701  0.00  0.00     0.082 A 
ATOM      2  C   UNL d   1      50.835  34.180  51.923  0.00  0.00     0.302 A 
ATOM      3  C   UNL d   1      50.280  34.821  53.071  0.00  0.00     0.009 A 
ATOM      4  O   UNL d   1      50.125  34.297  51.509  0.00  0.00    -0.273 OA
ATOM      5  C   UNL d   1      49.568  34.941  52.666  0.00  0.00     0.025 A 
ATOM      6  C   UNL d   1      49.498  34.675  51.881  0.00  0.00     0.103 A 
ATOM      7  O   UNL d   1      51.470  33.797  51.544  0.00  0.00    -0.259 OA
ATOM      8  C   UNL d   1      48.940  35.321  53.042  0.00  0.00     0.026 A 
ATOM      9  C   UNL d   1      48.785  34.798  51.482  0.00  0.00     0.027 A 
ATOM     10  C   UNL d   1      48.235  35.437  52.632  0.00  0.00     0.094 A 
ATOM     11  C   UNL d   1      48.157  35.174  51.846  0.00  0.00     0.026 A 
ENDROOT
BRANCH   1  12
ATOM     12  C   UNL d   1      51.624  34.320  53.106  0.00  0.00     0.095 A 
ATOM     13  N   UNL d   1      51.822  33.658  53.557  0.00  0.00    -0.221 NA
ATOM     14  C   UNL d   1      52.581  33.777  53.856  0.00  0.00     0.194 A 
ATOM     15  S   UNL d   1      52.857  34.513  53.591  0.00  0.00    -0.046 SA
ATOM     16  C   UNL d   1      52.259  34.851  53.124  0.00  0.00     0.058 A 
BRANCH  14  17
ATOM     17  N   UNL d   1      52.998  33.249  54.339  0.00  0.00    -0.221 NA
BRANCH  17  18
ATOM     18  C   UNL d   1      53.292  32.544  54.026  0.00  0.00     0.084 A 
ATOM     19  C   UNL d   1      54.026  32.544  53.655  0.00  0.00     0.020 A 
ATOM     20  C   UNL d   1      54.320  31.831  53.340  0.00  0.00     0.013 A 
ATOM     21  C   UNL d   1      53.877  31.135  53.402  0.00  0.00     0.058 A 
ATOM     22  C   UNL d   1      53.142  31.157  53.778  0.00  0.00     0.013 A 
ATOM     23 CL   UNL d   1      54.162  30.430  53.093  0.00  0.00    -0.082 Cl
ATOM     24  C   UNL d   1      52.848  31.856  54.090  0.00  0.00     0.020 A 
ENDBRANCH  17  18
ENDBRANCH  14  17
ENDBRANCH   1  12
BRANCH  10  25
ATOM     25  O   UNL d   1      47.603  35.816  53.003  0.00  0.00    -0.328 OA
ATOM     26  C   UNL d   1      47.232  36.460  52.645  0.00  0.00     0.181 C 
ENDBRANCH  10  25
TORSDOF 4
ENDMDL
MODEL 4
REMARK VINA RESULT:      -7.7      3.047      5.853
REMARK  4 active torsions:
REMARK  status: ('A' for Active; 'I' for Inactive)
REMARK    1  A    between atoms: C_2  and  C_1 
REMARK    2  A    between atoms: N_12  and  C_6 
REMARK    3  A    between atoms: C_16  and  N_12 
REMARK    4  A    between atoms: O_25  and  C_17 
ROOT
ATOM      1  C   UNL d   1      53.519  32.358  53.734  0.00  0.00     0.082 A 
ATOM      2  C   UNL d   1      54.233  32.248  53.338  0.00  0.00     0.302 A 
ATOM      3  C   UNL d   1      53.104  31.705  54.023  0.00  0.00     0.009 A 
ATOM      4  O   UNL d   1      54.538  31.485  53.227  0.00  0.00    -0.273 OA
ATOM      5  C   UNL d   1      53.401  30.940  53.916  0.00  0.00     0.025 A 
ATOM      6  C   UNL d   1      54.123  30.837  53.515  0.00  0.00     0.103 A 
ATOM      7  O   UNL d   1      54.656  32.903  53.045  0.00  0.00    -0.259 OA
ATOM      8  C   UNL d   1      52.982  30.291  54.206  0.00  0.00     0.026 A 
ATOM      9  C   UNL d   1      54.414  30.071  53.412  0.00  0.00     0.027 A 
ATOM     10  C   UNL d   1      53.284  29.533  54.096  0.00  0.00     0.094 A 
ATOM     11  C   UNL d   1      54.005  29.422  53.696  0.00  0.00     0.026 A 
ENDROOT
BRANCH   1  12
ATOM     12  C   UNL d   1      53.221  33.124  53.841  0.00  0.00     0.095 A 
ATOM     13  N   UNL d   1      52.757  33.545  53.304  0.00  0.00    -0.221 NA
ATOM     14  C   UNL d   1      52.591  34.280  53.641  0.00  0.00     0.194 A 
ATOM     15  S   UNL d   1      52.950  34.316  54.387  0.00  0.00    -0.046 SA
ATOM     16  C   UNL d   1      53.344  33.595  54.511  0.00  0.00     0.058 A 
BRANCH  14  17
ATOM     17  N   UNL d   1      52.139  34.880  53.292  0.00  0.00    -0.221 NA
BRANCH  17  18
ATOM     18  C   UNL d   1      51.434  34.696  52.905  0.00  0.00     0.084 A 
ATOM     19  C   UNL d   1      51.454  34.482  52.111  0.00  0.00     0.020 A 
ATOM     20  C   UNL d   1      50.742  34.297  51.723  0.00  0.00     0.013 A 
ATOM     21  C   UNL d   1      50.024  34.329  52.134  0.00  0.00     0.058 A 
ATOM     22  C   UNL d   1      50.024  34.547  52.931  0.00  0.00     0.013 A 
ATOM     23 CL   UNL d   1      49.318  34.148  51.756  0.00  0.00    -0.082 Cl
ATOM     24  C   UNL d   1      50.724  34.730  53.317  0.00  0.00     0.020 A 
ENDBRANCH  17  18
ENDBRANCH  14  17
ENDBRANCH   1  12
BRANCH  10  25
ATOM     25  O   UNL d   1      52.869  28.881  54.384  0.00  0.00    -0.328 OA
ATOM     26  C   UNL d   1      53.181  28.423  54.994  0.00  0.00     0.181 C 
ENDBRANCH  10  25
TORSDOF 4
ENDMDL
MODEL 5
REMARK VINA RESULT:      -7.6      2.415      5.344
REMARK  4 active torsions:
REMARK  status: ('A' for Active; 'I' for Inactive)
REMARK    1  A    between atoms: C_2  and  C_1 
REMARK    2  A    between atoms: N_12  and  C_6 
REMARK    3  A    between atoms: C_16  and  N_12 
REMARK    4  A    between atoms: O_25  and  C_17 
ROOT
ATOM      1  C   UNL d   1      52.158  33.412  53.089  0.00  0.00     0.082 A 
ATOM      2  C   UNL d   1      52.346  32.617  52.985  0.00  0.00     0.302 A 
ATOM      3  C   UNL d   1      52.591  33.871  53.621  0.00  0.00     0.009 A 
ATOM      4  O   UNL d   1      52.969  32.273  53.413  0.00  0.00    -0.273 OA
ATOM      5  C   UNL d   1      53.214  33.537  54.053  0.00  0.00     0.025 A 
ATOM      6  C   UNL d   1      53.398  32.733  53.943  0.00  0.00     0.103 A 
ATOM      7  O   UNL d   1      51.913  32.149  52.450  0.00  0.00    -0.259 OA
ATOM      8  C   UNL d   1      53.643  34.000  54.583  0.00  0.00     0.026 A 
ATOM      9  C   UNL d   1      54.020  32.405  54.375  0.00  0.00     0.027 A 
ATOM     10  C   UNL d   1      54.261  33.660  55.008  0.00  0.00     0.094 A 
ATOM     11  C   UNL d   1      54.451  32.857  54.904  0.00  0.00     0.026 A 
ENDROOT
BRANCH   1  12
ATOM     12  C   UNL d   1      51.535  33.746  52.658  0.00  0.00     0.095 A 
ATOM     13  N   UNL d   1      50.730  33.636  52.800  0.00  0.00    -0.221 NA
ATOM     14  C   UNL d   1      50.314  34.073  52.237  0.00  0.00     0.194 A 
ATOM     15  S   UNL d   1      50.860  34.455  51.744  0.00  0.00    -0.046 SA
ATOM     16  C   UNL d   1      51.621  34.251  52.007  0.00  0.00     0.058 A 
BRANCH  14  17
ATOM     17  N   UNL d   1      49.490  34.121  52.175  0.00  0.00    -0.221 NA
BRANCH  17  18
ATOM     18  C   UNL d   1      49.088  34.768  52.491  0.00  0.00     0.084 A 
ATOM     19  C   UNL d   1      49.188  34.957  53.285  0.00  0.00     0.020 A 
ATOM     20  C   UNL d   1      48.781  35.611  53.600  0.00  0.00     0.013 A 
ATOM     21  C   UNL d   1      48.283  36.063  53.118  0.00  0.00     0.058 A 
ATOM     22  C   UNL d   1      48.195  35.857  52.323  0.00  0.00     0.013 A 
ATOM     23 CL   UNL d   1      47.879  36.709  53.425  0.00  0.00    -0.082 Cl
ATOM     24  C   UNL d   1      48.594  35.214  52.007  0.00  0.00     0.020 A 
ENDBRANCH  17  18
ENDBRANCH  14  17
ENDBRANCH   1  12
BRANCH  10  25
ATOM     25  O   UNL d   1      54.693  34.119  55.540  0.00  0.00    -0.328 OA
ATOM     26  C   UNL d   1      55.517  34.085  55.549  0.00  0.00     0.181 C 
ENDBRANCH  10  25
TORSDOF 4
ENDMDL
