MODEL 1
REMARK VINA RESULT:      -2.8      0.000      0.000
REMARK  3 active torsions:
REMARK  status: ('A' for Active; 'I' for Inactive)
REMARK    1  A    between atoms: C_6  and  C_1 
REMARK    2  A    between atoms: O_9  and  C_6 
REMARK    3  A    between atoms: C_12  and  O_9 
ROOT
ATOM      1  C   UNL d   1      31.096  16.518 -23.879  0.00  0.00     0.089 A 
ATOM      2  C   UNL d   1      31.206  15.793 -23.487  0.00  0.00     0.138 A 
ATOM      3  S   UNL d   1      30.482  15.462 -23.374  0.00  0.00    -0.066 SA
ATOM      4  C   UNL d   1      30.302  16.607 -23.993  0.00  0.00     0.013 A 
ATOM      5  C   UNL d   1      29.922  15.972 -23.690  0.00  0.00     0.031 A 
ATOM      6  N   UNL d   1      31.925  15.453 -23.247  0.00  0.00    -0.141 N 
ATOM      7  C   UNL d   1      29.882  17.228 -24.356  0.00  0.00     0.001 A 
ATOM      8  C   UNL d   1      29.091  15.915 -23.730  0.00  0.00     0.006 A 
ATOM      9  C   UNL d   1      29.049  17.167 -24.394  0.00  0.00     0.000 A 
ATOM     10  C   UNL d   1      28.687  16.533 -24.090  0.00  0.00     0.001 A 
ENDROOT
BRANCH   1  11
ATOM     11  C   UNL d   1      31.720  17.038 -24.100  0.00  0.00     0.302 C 
ATOM     12  O   UNL d   1      32.058  16.950 -24.828  0.00  0.00    -0.259 OA
BRANCH  11  13
ATOM     13  O   UNL d   1      31.950  17.596 -23.579  0.00  0.00    -0.271 OA
BRANCH  13  14
ATOM     14  C   UNL d   1      32.544  18.111 -23.785  0.00  0.00     0.126 C 
ATOM     15  C   UNL d   1      32.785  18.687 -23.247  0.00  0.00     0.029 C 
ENDBRANCH  13  14
ENDBRANCH  11  13
ENDBRANCH   1  11
TORSDOF 3
ENDMDL
MODEL 2
REMARK VINA RESULT:      -2.5      1.644      3.148
REMARK  3 active torsions:
REMARK  status: ('A' for Active; 'I' for Inactive)
REMARK    1  A    between atoms: C_6  and  C_1 
REMARK    2  A    between atoms: O_9  and  C_6 
REMARK    3  A    between atoms: C_12  and  O_9 
ROOT
ATOM      1  C   UNL d   1      30.990  16.813 -24.190  0.00  0.00     0.089 A 
ATOM      2  C   UNL d   1      30.713  17.415 -24.693  0.00  0.00     0.138 A 
ATOM      3  S   UNL d   1      31.281  17.983 -24.733  0.00  0.00    -0.066 SA
ATOM      4  C   UNL d   1      31.724  17.036 -23.937  0.00  0.00     0.013 A 
ATOM      5  C   UNL d   1      31.908  17.744 -24.261  0.00  0.00     0.031 A 
ATOM      6  N   UNL d   1      29.985  17.443 -25.093  0.00  0.00    -0.141 N 
ATOM      7  C   UNL d   1      32.253  16.645 -23.426  0.00  0.00     0.001 A 
ATOM      8  C   UNL d   1      32.639  18.109 -24.095  0.00  0.00     0.006 A 
ATOM      9  C   UNL d   1      32.984  17.015 -23.262  0.00  0.00     0.000 A 
ATOM     10  C   UNL d   1      33.152  17.715 -23.590  0.00  0.00     0.001 A 
ENDROOT
BRANCH   1  11
ATOM     11  C   UNL d   1      30.559  16.115 -24.001  0.00  0.00     0.302 C 
ATOM     12  O   UNL d   1      30.636  15.470 -24.480  0.00  0.00    -0.259 OA
BRANCH  11  13
ATOM     13  O   UNL d   1      30.092  16.123 -23.354  0.00  0.00    -0.271 OA
BRANCH  13  14
ATOM     14  C   UNL d   1      29.660  15.459 -23.169  0.00  0.00     0.126 C 
ATOM     15  C   UNL d   1      29.204  15.453 -22.482  0.00  0.00     0.029 C 
ENDBRANCH  13  14
ENDBRANCH  11  13
ENDBRANCH   1  11
TORSDOF 3
ENDMDL
MODEL 3
REMARK VINA RESULT:      -2.4      5.724      6.830
REMARK  3 active torsions:
REMARK  status: ('A' for Active; 'I' for Inactive)
REMARK    1  A    between atoms: C_6  and  C_1 
REMARK    2  A    between atoms: O_9  and  C_6 
REMARK    3  A    between atoms: C_12  and  O_9 
ROOT
ATOM      1  C   UNL d   1      32.574  22.501 -21.286  0.00  0.00     0.089 A 
ATOM      2  C   UNL d   1      32.722  22.894 -22.005  0.00  0.00     0.138 A 
ATOM      3  S   UNL d   1      32.990  22.350 -22.533  0.00  0.00    -0.066 SA
ATOM      4  C   UNL d   1      32.759  21.723 -21.402  0.00  0.00     0.013 A 
ATOM      5  C   UNL d   1      33.011  21.623 -22.153  0.00  0.00     0.031 A 
ATOM      6  N   UNL d   1      32.617  23.702 -22.168  0.00  0.00    -0.141 N 
ATOM      7  C   UNL d   1      32.718  21.082 -20.871  0.00  0.00     0.001 A 
ATOM      8  C   UNL d   1      33.241  20.869 -22.427  0.00  0.00     0.006 A 
ATOM      9  C   UNL d   1      32.948  20.329 -21.149  0.00  0.00     0.000 A 
ATOM     10  C   UNL d   1      33.196  20.244 -21.895  0.00  0.00     0.001 A 
ENDROOT
BRANCH   1  11
ATOM     11  C   UNL d   1      32.286  22.875 -20.590  0.00  0.00     0.302 C 
ATOM     12  O   UNL d   1      31.489  22.937 -20.484  0.00  0.00    -0.259 OA
BRANCH  11  13
ATOM     13  O   UNL d   1      32.817  23.153 -20.063  0.00  0.00    -0.271 OA
BRANCH  13  14
ATOM     14  C   UNL d   1      32.560  23.622 -19.451  0.00  0.00     0.126 C 
ATOM     15  C   UNL d   1      33.024  23.692 -18.773  0.00  0.00     0.029 C 
ENDBRANCH  13  14
ENDBRANCH  11  13
ENDBRANCH   1  11
TORSDOF 3
ENDMDL
MODEL 4
REMARK VINA RESULT:      -2.4      1.223      2.784
REMARK  3 active torsions:
REMARK  status: ('A' for Active; 'I' for Inactive)
REMARK    1  A    between atoms: C_6  and  C_1 
REMARK    2  A    between atoms: O_9  and  C_6 
REMARK    3  A    between atoms: C_12  and  O_9 
ROOT
ATOM      1  C   UNL d   1      31.101  16.564 -24.147  0.00  0.00     0.089 A 
ATOM      2  C   UNL d   1      31.611  16.159 -23.630  0.00  0.00     0.138 A 
ATOM      3  S   UNL d   1      32.298  16.574 -23.587  0.00  0.00    -0.066 SA
ATOM      4  C   UNL d   1      31.498  17.218 -24.405  0.00  0.00     0.013 A 
ATOM      5  C   UNL d   1      32.224  17.232 -24.071  0.00  0.00     0.031 A 
ATOM      6  N   UNL d   1      31.457  15.453 -23.220  0.00  0.00    -0.141 N 
ATOM      7  C   UNL d   1      31.253  17.817 -24.930  0.00  0.00     0.001 A 
ATOM      8  C   UNL d   1      32.757  17.850 -24.241  0.00  0.00     0.006 A 
ATOM      9  C   UNL d   1      31.791  18.434 -25.097  0.00  0.00     0.000 A 
ATOM     10  C   UNL d   1      32.505  18.435 -24.759  0.00  0.00     0.001 A 
ENDROOT
BRANCH   1  11
ATOM     11  C   UNL d   1      30.323  16.311 -24.343  0.00  0.00     0.302 C 
ATOM     12  O   UNL d   1      30.222  15.818 -24.974  0.00  0.00    -0.259 OA
BRANCH  11  13
ATOM     13  O   UNL d   1      29.716  16.569 -23.894  0.00  0.00    -0.271 OA
BRANCH  13  14
ATOM     14  C   UNL d   1      28.959  16.338 -24.077  0.00  0.00     0.126 C 
ATOM     15  C   UNL d   1      28.334  16.580 -23.597  0.00  0.00     0.029 C 
ENDBRANCH  13  14
ENDBRANCH  11  13
ENDBRANCH   1  11
TORSDOF 3
ENDMDL
MODEL 5
REMARK VINA RESULT:      -1.9      5.460      7.296
REMARK  3 active torsions:
REMARK  status: ('A' for Active; 'I' for Inactive)
REMARK    1  A    between atoms: C_6  and  C_1 
REMARK    2  A    between atoms: O_9  and  C_6 
REMARK    3  A    between atoms: C_12  and  O_9 
ROOT
ATOM      1  C   UNL d   1      32.556  22.386 -20.830  0.00  0.00     0.089 A 
ATOM      2  C   UNL d   1      32.565  23.100 -21.257  0.00  0.00     0.138 A 
ATOM      3  S   UNL d   1      32.742  23.692 -20.743  0.00  0.00    -0.066 SA
ATOM      4  C   UNL d   1      32.729  22.568 -20.063  0.00  0.00     0.013 A 
ATOM      5  C   UNL d   1      32.843  23.357 -20.001  0.00  0.00     0.031 A 
ATOM      6  N   UNL d   1      32.420  23.204 -22.069  0.00  0.00    -0.141 N 
ATOM      7  C   UNL d   1      32.794  22.069 -19.399  0.00  0.00     0.001 A 
ATOM      8  C   UNL d   1      33.031  23.702 -19.265  0.00  0.00     0.006 A 
ATOM      9  C   UNL d   1      32.982  22.419 -18.664  0.00  0.00     0.000 A 
ATOM     10  C   UNL d   1      33.092  23.200 -18.618  0.00  0.00     0.001 A 
ENDROOT
BRANCH   1  11
ATOM     11  C   UNL d   1      32.393  21.632 -21.168  0.00  0.00     0.302 C 
ATOM     12  O   UNL d   1      31.624  21.397 -21.239  0.00  0.00    -0.259 OA
BRANCH  11  13
ATOM     13  O   UNL d   1      33.008  21.182 -21.403  0.00  0.00    -0.271 OA
BRANCH  13  14
ATOM     14  C   UNL d   1      32.873  20.556 -21.903  0.00  0.00     0.126 C 
ATOM     15  C   UNL d   1      33.237  19.831 -21.753  0.00  0.00     0.029 C 
ENDBRANCH  13  14
ENDBRANCH  11  13
ENDBRANCH   1  11
TORSDOF 3
ENDMDL
MODEL 6
REMARK VINA RESULT:      -0.4      4.278      6.056
REMARK  3 active torsions:
REMARK  status: ('A' for Active; 'I' for Inactive)
REMARK    1  A    between atoms: C_6  and  C_1 
REMARK    2  A    between atoms: O_9  and  C_6 
REMARK    3  A    between atoms: C_12  and  O_9 
ROOT
ATOM      1  C   UNL d   1      32.844  21.366 -21.539  0.00  0.00     0.089 A 
ATOM      2  C   UNL d   1      32.961  21.107 -20.757  0.00  0.00     0.138 A 
ATOM      3  S   UNL d   1      32.761  21.710 -20.264  0.00  0.00    -0.066 SA
ATOM      4  C   UNL d   1      32.574  22.126 -21.496  0.00  0.00     0.013 A 
ATOM      5  C   UNL d   1      32.521  22.342 -20.729  0.00  0.00     0.031 A 
ATOM      6  N   UNL d   1      33.235  20.363 -20.508  0.00  0.00    -0.141 N 
ATOM      7  C   UNL d   1      32.366  22.652 -22.108  0.00  0.00     0.001 A 
ATOM      8  C   UNL d   1      32.255  23.105 -20.521  0.00  0.00     0.006 A 
ATOM      9  C   UNL d   1      32.100  23.415 -21.895  0.00  0.00     0.000 A 
ATOM     10  C   UNL d   1      32.053  23.615 -21.132  0.00  0.00     0.001 A 
ENDROOT
BRANCH   1  11
ATOM     11  C   UNL d   1      32.989  20.898 -22.222  0.00  0.00     0.302 C 
ATOM     12  O   UNL d   1      33.241  21.263 -22.896  0.00  0.00    -0.259 OA
BRANCH  11  13
ATOM     13  O   UNL d   1      32.872  20.110 -22.173  0.00  0.00    -0.271 OA
BRANCH  13  14
ATOM     14  C   UNL d   1      33.034  19.644 -22.818  0.00  0.00     0.126 C 
ATOM     15  C   UNL d   1      32.729  18.878 -22.850  0.00  0.00     0.029 C 
ENDBRANCH  13  14
ENDBRANCH  11  13
ENDBRANCH   1  11
TORSDOF 3
ENDMDL
MODEL 7
REMARK VINA RESULT:      -0.0      2.280      4.249
REMARK  3 active torsions:
REMARK  status: ('A' for Active; 'I' for Inactive)
REMARK    1  A    between atoms: C_6  and  C_1 
REMARK    2  A    between atoms: O_9  and  C_6 
REMARK    3  A    between atoms: C_12  and  O_9 
ROOT
ATOM      1  C   UNL d   1      32.992  18.803 -23.234  0.00  0.00     0.089 A 
ATOM      2  C   UNL d   1      33.046  19.188 -23.969  0.00  0.00     0.138 A 
ATOM      3  S   UNL d   1      33.144  19.974 -23.830  0.00  0.00    -0.066 SA
ATOM      4  C   UNL d   1      33.061  19.372 -22.665  0.00  0.00     0.013 A 
ATOM      5  C   UNL d   1      33.153  20.084 -23.017  0.00  0.00     0.031 A 
ATOM      6  N   UNL d   1      33.006  18.842 -24.724  0.00  0.00    -0.141 N 
ATOM      7  C   UNL d   1      33.046  19.300 -21.835  0.00  0.00     0.001 A 
ATOM      8  C   UNL d   1      33.238  20.775 -22.559  0.00  0.00     0.006 A 
ATOM      9  C   UNL d   1      33.132  19.995 -21.380  0.00  0.00     0.000 A 
ATOM     10  C   UNL d   1      33.222  20.692 -21.742  0.00  0.00     0.001 A 
ENDROOT
BRANCH   1  11
ATOM     11  C   UNL d   1      32.886  17.974 -23.137  0.00  0.00     0.302 C 
ATOM     12  O   UNL d   1      33.241  17.607 -22.512  0.00  0.00    -0.259 OA
BRANCH  11  13
ATOM     13  O   UNL d   1      32.439  17.585 -23.671  0.00  0.00    -0.271 OA
BRANCH  13  14
ATOM     14  C   UNL d   1      32.331  16.784 -23.590  0.00  0.00     0.126 C 
ATOM     15  C   UNL d   1      31.606  16.450 -23.799  0.00  0.00     0.029 C 
ENDBRANCH  13  14
ENDBRANCH  11  13
ENDBRANCH   1  11
TORSDOF 3
ENDMDL
MODEL 8
REMARK VINA RESULT:       0.2      3.776      5.689
REMARK  3 active torsions:
REMARK  status: ('A' for Active; 'I' for Inactive)
REMARK    1  A    between atoms: C_6  and  C_1 
REMARK    2  A    between atoms: O_9  and  C_6 
REMARK    3  A    between atoms: C_12  and  O_9 
ROOT
ATOM      1  C   UNL d   1      32.941  20.833 -22.133  0.00  0.00     0.089 A 
ATOM      2  C   UNL d   1      33.056  21.292 -22.817  0.00  0.00     0.138 A 
ATOM      3  S   UNL d   1      32.979  22.066 -22.611  0.00  0.00    -0.066 SA
ATOM      4  C   UNL d   1      32.796  21.347 -21.527  0.00  0.00     0.013 A 
ATOM      5  C   UNL d   1      32.816  22.095 -21.808  0.00  0.00     0.031 A 
ATOM      6  N   UNL d   1      33.223  21.021 -23.585  0.00  0.00    -0.141 N 
ATOM      7  C   UNL d   1      32.642  21.192 -20.723  0.00  0.00     0.001 A 
ATOM      8  C   UNL d   1      32.684  22.743 -21.299  0.00  0.00     0.006 A 
ATOM      9  C   UNL d   1      32.510  21.843 -20.217  0.00  0.00     0.000 A 
ATOM     10  C   UNL d   1      32.534  22.578 -20.509  0.00  0.00     0.001 A 
ENDROOT
BRANCH   1  11
ATOM     11  C   UNL d   1      32.977  19.993 -22.113  0.00  0.00     0.302 C 
ATOM     12  O   UNL d   1      33.202  19.631 -21.428  0.00  0.00    -0.259 OA
BRANCH  11  13
ATOM     13  O   UNL d   1      32.785  19.590 -22.774  0.00  0.00    -0.271 OA
BRANCH  13  14
ATOM     14  C   UNL d   1      32.727  18.780 -22.742  0.00  0.00     0.126 C 
ATOM     15  C   UNL d   1      32.558  18.359 -23.432  0.00  0.00     0.029 C 
ENDBRANCH  13  14
ENDBRANCH  11  13
ENDBRANCH   1  11
TORSDOF 3
ENDMDL
