MODEL 1
REMARK VINA RESULT:      -4.2      0.000      0.000
REMARK  6 active torsions:
REMARK  status: ('A' for Active; 'I' for Inactive)
REMARK    1  A    between atoms: C_8  and  C_1 
REMARK    2  A    between atoms: C_7  and  C_2 
REMARK    3  A    between atoms: O_11  and  C_7 
REMARK    4  A    between atoms: O_12  and  C_8 
REMARK    5  A    between atoms: C_16  and  O_11 
REMARK    6  A    between atoms: C_15  and  O_12 
ROOT
ATOM      1  C   UNL d   1      57.184  -0.269  31.410  0.00  0.00     0.081 A 
ATOM      2  C   UNL d   1      56.423  -0.251  32.624  0.00  0.00     0.081 A 
ATOM      3  N   UNL d   1      56.627  -1.480  31.923  0.00  0.00    -0.245 NA
ATOM      4  C   UNL d   1      56.305  -1.065  32.562  0.00  0.00     0.086 A 
ATOM      5  C   UNL d   1      57.066  -1.084  31.348  0.00  0.00     0.086 A 
ATOM      6  C   UNL d   1      56.862   0.142  32.047  0.00  0.00     0.014 A 
ATOM      7  C   UNL d   1      57.383  -1.513  30.712  0.00  0.00     0.021 C 
ATOM      8  C   UNL d   1      55.855  -1.477  33.150  0.00  0.00     0.021 C 
ENDROOT
BRANCH   1   9
ATOM      9  C   UNL d   1      57.624   0.145  30.839  0.00  0.00     0.302 C 
ATOM     10  O   UNL d   1      57.259   0.468  30.173  0.00  0.00    -0.259 OA
BRANCH   9  11
ATOM     11  O   UNL d   1      58.438   0.233  30.943  0.00  0.00    -0.271 OA
BRANCH  11  12
ATOM     12  C   UNL d   1      58.880   0.682  30.414  0.00  0.00     0.126 C 
ATOM     13  C   UNL d   1      59.648   0.629  30.457  0.00  0.00     0.029 C 
ENDBRANCH  11  12
ENDBRANCH   9  11
ENDBRANCH   1   9
BRANCH   2  14
ATOM     14  C   UNL d   1      56.092   0.161  33.274  0.00  0.00     0.302 C 
ATOM     15  O   UNL d   1      56.565   0.433  33.872  0.00  0.00    -0.259 OA
BRANCH  14  16
ATOM     16  O   UNL d   1      55.257   0.289  33.299  0.00  0.00    -0.271 OA
BRANCH  16  17
ATOM     17  C   UNL d   1      54.919   0.678  33.925  0.00  0.00     0.126 C 
ATOM     18  C   UNL d   1      54.036   0.664  34.088  0.00  0.00     0.029 C 
ENDBRANCH  16  17
ENDBRANCH  14  16
ENDBRANCH   2  14
TORSDOF 6
ENDMDL
MODEL 2
REMARK VINA RESULT:      -4.1      1.422      4.048
REMARK  6 active torsions:
REMARK  status: ('A' for Active; 'I' for Inactive)
REMARK    1  A    between atoms: C_8  and  C_1 
REMARK    2  A    between atoms: C_7  and  C_2 
REMARK    3  A    between atoms: O_11  and  C_7 
REMARK    4  A    between atoms: O_12  and  C_8 
REMARK    5  A    between atoms: C_16  and  O_11 
REMARK    6  A    between atoms: C_15  and  O_12 
ROOT
ATOM      1  C   UNL d   1      57.308   0.148  31.839  0.00  0.00     0.081 A 
ATOM      2  C   UNL d   1      58.130   0.148  30.665  0.00  0.00     0.081 A 
ATOM      3  N   UNL d   1      58.635   0.675  31.893  0.00  0.00    -0.245 NA
ATOM      4  C   UNL d   1      58.741   0.500  31.093  0.00  0.00     0.086 A 
ATOM      5  C   UNL d   1      57.920   0.500  32.267  0.00  0.00     0.086 A 
ATOM      6  C   UNL d   1      57.416  -0.026  31.041  0.00  0.00     0.014 A 
ATOM      7  C   UNL d   1      57.827   0.682  33.071  0.00  0.00     0.021 C 
ATOM      8  C   UNL d   1      59.476   0.682  30.714  0.00  0.00     0.021 C 
ENDROOT
BRANCH   1   9
ATOM      9  C   UNL d   1      56.582  -0.035  32.201  0.00  0.00     0.302 C 
ATOM     10  O   UNL d   1      55.984   0.529  32.263  0.00  0.00    -0.259 OA
BRANCH   9  11
ATOM     11  O   UNL d   1      56.461  -0.795  32.500  0.00  0.00    -0.271 OA
BRANCH  11  12
ATOM     12  C   UNL d   1      55.733  -1.006  32.819  0.00  0.00     0.126 C 
ATOM     13  C   UNL d   1      55.695  -1.671  33.208  0.00  0.00     0.029 C 
ENDBRANCH  11  12
ENDBRANCH   9  11
ENDBRANCH   1   9
BRANCH   2  14
ATOM     14  C   UNL d   1      58.247  -0.026  29.854  0.00  0.00     0.302 C 
ATOM     15  O   UNL d   1      58.109   0.536  29.288  0.00  0.00    -0.259 OA
BRANCH  14  16
ATOM     16  O   UNL d   1      58.512  -0.798  29.632  0.00  0.00    -0.271 OA
BRANCH  16  17
ATOM     17  C   UNL d   1      58.470  -1.041  28.860  0.00  0.00     0.126 C 
ATOM     18  C   UNL d   1      58.785  -1.835  28.582  0.00  0.00     0.029 C 
ENDBRANCH  16  17
ENDBRANCH  14  16
ENDBRANCH   2  14
TORSDOF 6
ENDMDL
MODEL 3
REMARK VINA RESULT:      -3.6      1.138      3.927
REMARK  6 active torsions:
REMARK  status: ('A' for Active; 'I' for Inactive)
REMARK    1  A    between atoms: C_8  and  C_1 
REMARK    2  A    between atoms: C_7  and  C_2 
REMARK    3  A    between atoms: O_11  and  C_7 
REMARK    4  A    between atoms: O_12  and  C_8 
REMARK    5  A    between atoms: C_16  and  O_11 
REMARK    6  A    between atoms: C_15  and  O_12 
ROOT
ATOM      1  C   UNL d   1      56.810  -0.023  32.659  0.00  0.00     0.081 A 
ATOM      2  C   UNL d   1      57.594  -0.010  31.460  0.00  0.00     0.081 A 
ATOM      3  N   UNL d   1      58.064   0.661  32.631  0.00  0.00    -0.245 NA
ATOM      4  C   UNL d   1      58.169   0.442  31.841  0.00  0.00     0.086 A 
ATOM      5  C   UNL d   1      57.385   0.429  33.040  0.00  0.00     0.086 A 
ATOM      6  C   UNL d   1      56.917  -0.240  31.871  0.00  0.00     0.014 A 
ATOM      7  C   UNL d   1      57.292   0.656  33.833  0.00  0.00     0.021 C 
ATOM      8  C   UNL d   1      58.867   0.682  31.425  0.00  0.00     0.021 C 
ENDROOT
BRANCH   1   9
ATOM      9  C   UNL d   1      56.121  -0.264  33.057  0.00  0.00     0.302 C 
ATOM     10  O   UNL d   1      56.041  -1.034  33.342  0.00  0.00    -0.259 OA
BRANCH   9  11
ATOM     11  O   UNL d   1      55.508   0.278  33.166  0.00  0.00    -0.271 OA
BRANCH  11  12
ATOM     12  C   UNL d   1      54.883   0.105  33.673  0.00  0.00     0.126 C 
ATOM     13  C   UNL d   1      54.400   0.678  33.851  0.00  0.00     0.029 C 
ENDBRANCH  11  12
ENDBRANCH   9  11
ENDBRANCH   1   9
BRANCH   2  14
ATOM     14  C   UNL d   1      57.710  -0.227  30.659  0.00  0.00     0.302 C 
ATOM     15  O   UNL d   1      57.435   0.243  30.061  0.00  0.00    -0.259 OA
BRANCH  14  16
ATOM     16  O   UNL d   1      58.120  -0.946  30.482  0.00  0.00    -0.271 OA
BRANCH  16  17
ATOM     17  C   UNL d   1      58.040  -1.297  29.756  0.00  0.00     0.126 C 
ATOM     18  C   UNL d   1      58.572  -1.964  29.476  0.00  0.00     0.029 C 
ENDBRANCH  16  17
ENDBRANCH  14  16
ENDBRANCH   2  14
TORSDOF 6
ENDMDL
MODEL 4
REMARK VINA RESULT:      -2.8      2.688      4.289
REMARK  6 active torsions:
REMARK  status: ('A' for Active; 'I' for Inactive)
REMARK    1  A    between atoms: C_8  and  C_1 
REMARK    2  A    between atoms: C_7  and  C_2 
REMARK    3  A    between atoms: O_11  and  C_7 
REMARK    4  A    between atoms: O_12  and  C_8 
REMARK    5  A    between atoms: C_16  and  O_11 
REMARK    6  A    between atoms: C_15  and  O_12 
ROOT
ATOM      1  C   UNL d   1      59.421  -1.952  29.131  0.00  0.00     0.081 A 
ATOM      2  C   UNL d   1      58.702  -0.799  29.585  0.00  0.00     0.081 A 
ATOM      3  N   UNL d   1      59.958  -0.646  28.921  0.00  0.00    -0.245 NA
ATOM      4  C   UNL d   1      59.300  -0.311  29.293  0.00  0.00     0.086 A 
ATOM      5  C   UNL d   1      60.019  -1.465  28.840  0.00  0.00     0.086 A 
ATOM      6  C   UNL d   1      58.766  -1.617  29.502  0.00  0.00     0.014 A 
ATOM      7  C   UNL d   1      60.685  -1.787  28.464  0.00  0.00     0.021 C 
ATOM      8  C   UNL d   1      59.242   0.530  29.374  0.00  0.00     0.021 C 
ENDROOT
BRANCH   1   9
ATOM      9  C   UNL d   1      59.467  -2.779  29.057  0.00  0.00     0.302 C 
ATOM     10  O   UNL d   1      60.139  -3.191  29.299  0.00  0.00    -0.259 OA
BRANCH   9  11
ATOM     11  O   UNL d   1      58.827  -3.191  28.737  0.00  0.00    -0.271 OA
BRANCH  11  12
ATOM     12  C   UNL d   1      58.924  -3.959  28.456  0.00  0.00     0.126 C 
ATOM     13  C   UNL d   1      58.357  -4.462  28.594  0.00  0.00     0.029 C 
ENDBRANCH  11  12
ENDBRANCH   9  11
ENDBRANCH   1   9
BRANCH   2  14
ATOM     14  C   UNL d   1      58.039  -0.450  29.960  0.00  0.00     0.302 C 
ATOM     15  O   UNL d   1      57.755   0.266  29.713  0.00  0.00    -0.259 OA
BRANCH  14  16
ATOM     16  O   UNL d   1      57.669  -0.857  30.603  0.00  0.00    -0.271 OA
BRANCH  16  17
ATOM     17  C   UNL d   1      57.380  -0.445  31.239  0.00  0.00     0.126 C 
ATOM     18  C   UNL d   1      56.739  -0.768  31.778  0.00  0.00     0.029 C 
ENDBRANCH  16  17
ENDBRANCH  14  16
ENDBRANCH   2  14
TORSDOF 6
ENDMDL
MODEL 5
REMARK VINA RESULT:      -2.2      2.180      4.594
REMARK  6 active torsions:
REMARK  status: ('A' for Active; 'I' for Inactive)
REMARK    1  A    between atoms: C_8  and  C_1 
REMARK    2  A    between atoms: C_7  and  C_2 
REMARK    3  A    between atoms: O_11  and  C_7 
REMARK    4  A    between atoms: O_12  and  C_8 
REMARK    5  A    between atoms: C_16  and  O_11 
REMARK    6  A    between atoms: C_15  and  O_12 
ROOT
ATOM      1  C   UNL d   1      57.799  -0.680  30.728  0.00  0.00     0.081 A 
ATOM      2  C   UNL d   1      58.484  -1.467  29.746  0.00  0.00     0.081 A 
ATOM      3  N   UNL d   1      58.127  -0.114  29.459  0.00  0.00    -0.245 NA
ATOM      4  C   UNL d   1      58.475  -0.827  29.227  0.00  0.00     0.086 A 
ATOM      5  C   UNL d   1      57.789  -0.040  30.209  0.00  0.00     0.086 A 
ATOM      6  C   UNL d   1      58.146  -1.390  30.495  0.00  0.00     0.014 A 
ATOM      7  C   UNL d   1      57.444   0.682  30.428  0.00  0.00     0.021 C 
ATOM      8  C   UNL d   1      58.820  -0.898  28.457  0.00  0.00     0.021 C 
ENDROOT
BRANCH   1   9
ATOM      9  C   UNL d   1      57.463  -0.622  31.487  0.00  0.00     0.302 C 
ATOM     10  O   UNL d   1      57.866  -0.251  32.103  0.00  0.00    -0.259 OA
BRANCH   9  11
ATOM     11  O   UNL d   1      56.714  -0.943  31.621  0.00  0.00    -0.271 OA
BRANCH  11  12
ATOM     12  C   UNL d   1      56.483  -1.160  32.381  0.00  0.00     0.126 C 
ATOM     13  C   UNL d   1      55.727  -1.197  32.526  0.00  0.00     0.029 C 
ENDBRANCH  11  12
ENDBRANCH   9  11
ENDBRANCH   1   9
BRANCH   2  14
ATOM     14  C   UNL d   1      58.839  -2.186  29.502  0.00  0.00     0.302 C 
ATOM     15  O   UNL d   1      58.417  -2.730  29.076  0.00  0.00    -0.259 OA
BRANCH  14  16
ATOM     16  O   UNL d   1      59.646  -2.337  29.706  0.00  0.00    -0.271 OA
BRANCH  16  17
ATOM     17  C   UNL d   1      60.133  -2.732  29.192  0.00  0.00     0.126 C 
ATOM     18  C   UNL d   1      60.892  -3.134  29.452  0.00  0.00     0.029 C 
ENDBRANCH  16  17
ENDBRANCH  14  16
ENDBRANCH   2  14
TORSDOF 6
ENDMDL
