MODEL 1
REMARK VINA RESULT:      -8.0      0.000      0.000
REMARK  2 active torsions:
REMARK  status: ('A' for Active; 'I' for Inactive)
REMARK    1  A    between atoms: CA_2  and  C_1 
REMARK    2  A    between atoms: C_3  and  CA_2 
ROOT
ATOM      1  C   UNL d   1      53.829  32.224  53.959  0.00  0.00     0.025 A 
ATOM      2  C   UNL d   1      53.699  32.352  54.761  0.00  0.00     0.002 A 
ATOM      3  C   UNL d   1      54.424  32.644  53.561  0.00  0.00     0.002 A 
ATOM      4  C   UNL d   1      54.160  32.899  55.169  0.00  0.00     0.000 A 
ATOM      5  C   UNL d   1      54.885  33.190  53.969  0.00  0.00     0.000 A 
ATOM      6  C   UNL d   1      54.755  33.320  54.772  0.00  0.00     0.000 A 
ATOM      7  C   UNL d   1      55.217  33.868  55.183  0.00  0.00     0.000 C 
ENDROOT
BRANCH   1   8
ATOM      8  CA  UNL d   1      53.362  31.673  53.554  0.00  0.00     0.167 C 
ATOM      9  N   UNL d   1      53.504  30.861  53.654  0.00  0.00    -0.142 N 
BRANCH   8  10
ATOM     10  C   UNL d   1      52.757  31.925  53.054  0.00  0.00     0.231 C 
ATOM     11  O   UNL d   1      52.865  31.905  52.233  0.00  0.00    -0.643 OA
ATOM     12  OXT UNL d   1      52.046  32.196  53.368  0.00  0.00    -0.643 OA
ENDBRANCH   8  10
ENDBRANCH   1   8
TORSDOF 2
ENDMDL
MODEL 2
REMARK VINA RESULT:      -7.4      1.552      2.789
REMARK  2 active torsions:
REMARK  status: ('A' for Active; 'I' for Inactive)
REMARK    1  A    between atoms: CA_2  and  C_1 
REMARK    2  A    between atoms: C_3  and  CA_2 
ROOT
ATOM      1  C   UNL d   1      53.714  31.967  53.699  0.00  0.00     0.025 A 
ATOM      2  C   UNL d   1      53.964  31.222  53.944  0.00  0.00     0.002 A 
ATOM      3  C   UNL d   1      53.070  32.039  53.180  0.00  0.00     0.002 A 
ATOM      4  C   UNL d   1      53.574  30.549  53.674  0.00  0.00     0.000 A 
ATOM      5  C   UNL d   1      52.681  31.366  52.910  0.00  0.00     0.000 A 
ATOM      6  C   UNL d   1      52.930  30.621  53.156  0.00  0.00     0.000 A 
ATOM      7  C   UNL d   1      52.541  29.945  52.886  0.00  0.00     0.000 C 
ENDROOT
BRANCH   1   8
ATOM      8  CA  UNL d   1      54.110  32.639  53.974  0.00  0.00     0.167 C 
ATOM      9  N   UNL d   1      54.751  32.944  53.544  0.00  0.00    -0.142 N 
BRANCH   8  10
ATOM     10  C   UNL d   1      53.871  33.010  54.671  0.00  0.00     0.231 C 
ATOM     11  O   UNL d   1      54.206  32.785  55.394  0.00  0.00    -0.643 OA
ATOM     12  OXT UNL d   1      53.300  33.602  54.650  0.00  0.00    -0.643 OA
ENDBRANCH   8  10
ENDBRANCH   1   8
TORSDOF 2
ENDMDL
MODEL 3
REMARK VINA RESULT:      -7.3      2.073      2.799
REMARK  2 active torsions:
REMARK  status: ('A' for Active; 'I' for Inactive)
REMARK    1  A    between atoms: CA_2  and  C_1 
REMARK    2  A    between atoms: C_3  and  CA_2 
ROOT
ATOM      1  C   UNL d   1      53.496  33.351  53.704  0.00  0.00     0.025 A 
ATOM      2  C   UNL d   1      52.974  32.791  53.403  0.00  0.00     0.002 A 
ATOM      3  C   UNL d   1      53.314  34.159  53.655  0.00  0.00     0.002 A 
ATOM      4  C   UNL d   1      52.269  33.034  53.052  0.00  0.00     0.000 A 
ATOM      5  C   UNL d   1      52.611  34.402  53.304  0.00  0.00     0.000 A 
ATOM      6  C   UNL d   1      52.087  33.842  53.003  0.00  0.00     0.000 A 
ATOM      7  C   UNL d   1      51.380  34.084  52.651  0.00  0.00     0.000 C 
ENDROOT
BRANCH   1   8
ATOM      8  CA  UNL d   1      54.202  33.100  54.056  0.00  0.00     0.167 C 
ATOM      9  N   UNL d   1      54.801  32.767  53.586  0.00  0.00    -0.142 N 
BRANCH   8  10
ATOM     10  C   UNL d   1      54.316  33.178  54.869  0.00  0.00     0.231 C 
ATOM     11  O   UNL d   1      54.684  33.855  55.172  0.00  0.00    -0.643 OA
ATOM     12  OXT UNL d   1      54.064  32.584  55.380  0.00  0.00    -0.643 OA
ENDBRANCH   8  10
ENDBRANCH   1   8
TORSDOF 2
ENDMDL
