MODEL 1
REMARK VINA RESULT:      -5.7      0.000      0.000
REMARK  6 active torsions:
REMARK  status: ('A' for Active; 'I' for Inactive)
REMARK    1  A    between atoms: C_6  and  N_2 
REMARK    2  A    between atoms: C_7  and  C_6 
REMARK    3  A    between atoms: C_8  and  C_7 
REMARK       I    between atoms: N_13  and  C_8 
REMARK    4  A    between atoms: C_10  and  C_17 
REMARK    5  A    between atoms: C_14  and  N_13 
REMARK    6  A    between atoms: C_17  and  C_14 
ROOT
ATOM      1  C   UNL d   1     -47.472  14.024  22.773  0.00  0.00     0.082 C 
ENDROOT
BRANCH   1   2
ATOM      2  C   UNL d   1     -48.022  13.777  23.331  0.00  0.00     0.088 C 
BRANCH   2   3
ATOM      3  N   UNL d   1     -48.828  13.838  23.176  0.00  0.00    -0.268 N 
ATOM      4  C   UNL d   1     -49.239  14.530  23.004  0.00  0.00     0.296 A 
ATOM      5  S   UNL d   1     -50.057  14.304  22.886  0.00  0.00    -0.025 SA
ATOM      6  O   UNL d   1     -48.912  15.286  22.957  0.00  0.00    -0.259 OA
ATOM      7  C   UNL d   1     -50.109  13.519  22.988  0.00  0.00     0.050 A 
ATOM      8  C   UNL d   1     -50.766  13.016  22.939  0.00  0.00     0.008 A 
ATOM      9  C   UNL d   1     -49.365  13.211  23.166  0.00  0.00     0.073 A 
ATOM     10  C   UNL d   1     -50.676  12.201  23.070  0.00  0.00     0.001 A 
ATOM     11  C   UNL d   1     -49.927  11.903  23.248  0.00  0.00     0.002 A 
ATOM     12  C   UNL d   1     -49.274  12.408  23.296  0.00  0.00     0.018 A 
ENDBRANCH   2   3
ENDBRANCH   1   2
BRANCH   1  13
ATOM     13  C   UNL d   1     -46.679  13.810  22.843  0.00  0.00     0.281 C 
ATOM     14  O   UNL d   1     -46.293  13.897  23.567  0.00  0.00    -0.265 OA
ATOM     15  N   UNL d   1     -46.269  13.510  22.197  0.00  0.00    -0.206 NA
BRANCH  15  16
ATOM     16  C   UNL d   1     -45.481  13.297  22.268  0.00  0.00     0.102 C 
BRANCH  16  17
ATOM     17  C   UNL d   1     -45.114  12.859  21.678  0.00  0.00     0.021 C 
BRANCH  17  18
ATOM     18  C   UNL d   1     -44.298  12.739  21.690  0.00  0.00     0.002 A 
ATOM     19  C   UNL d   1     -43.806  13.207  21.205  0.00  0.00     0.000 A 
ATOM     20  C   UNL d   1     -42.986  13.084  21.220  0.00  0.00     0.000 A 
ATOM     21  C   UNL d   1     -42.661  12.509  21.706  0.00  0.00     0.000 A 
ATOM     22  C   UNL d   1     -43.153  12.046  22.185  0.00  0.00     0.000 A 
ATOM     23  C   UNL d   1     -43.969  12.150  22.187  0.00  0.00     0.000 A 
ENDBRANCH  17  18
ENDBRANCH  16  17
ENDBRANCH  15  16
ENDBRANCH   1  13
TORSDOF 6
ENDMDL
MODEL 2
REMARK VINA RESULT:      -5.6      1.905      2.521
REMARK  6 active torsions:
REMARK  status: ('A' for Active; 'I' for Inactive)
REMARK    1  A    between atoms: C_6  and  N_2 
REMARK    2  A    between atoms: C_7  and  C_6 
REMARK    3  A    between atoms: C_8  and  C_7 
REMARK       I    between atoms: N_13  and  C_8 
REMARK    4  A    between atoms: C_10  and  C_17 
REMARK    5  A    between atoms: C_14  and  N_13 
REMARK    6  A    between atoms: C_17  and  C_14 
ROOT
ATOM      1  C   UNL d   1     -48.909  12.034  23.097  0.00  0.00     0.082 C 
ENDROOT
BRANCH   1   2
ATOM      2  C   UNL d   1     -49.260  12.558  23.625  0.00  0.00     0.088 C 
BRANCH   2   3
ATOM      3  N   UNL d   1     -49.871  13.051  23.377  0.00  0.00    -0.268 N 
ATOM      4  C   UNL d   1     -50.638  12.817  23.193  0.00  0.00     0.296 A 
ATOM      5  S   UNL d   1     -51.061  13.528  22.966  0.00  0.00    -0.025 SA
ATOM      6  O   UNL d   1     -50.929  12.046  23.225  0.00  0.00    -0.259 OA
ATOM      7  C   UNL d   1     -50.557  14.137  23.020  0.00  0.00     0.050 A 
ATOM      8  C   UNL d   1     -50.674  14.944  22.866  0.00  0.00     0.008 A 
ATOM      9  C   UNL d   1     -49.818  13.868  23.270  0.00  0.00     0.073 A 
ATOM     10  C   UNL d   1     -50.049  15.481  22.965  0.00  0.00     0.001 A 
ATOM     11  C   UNL d   1     -49.314  15.200  23.216  0.00  0.00     0.002 A 
ATOM     12  C   UNL d   1     -49.201  14.395  23.368  0.00  0.00     0.018 A 
ENDBRANCH   2   3
ENDBRANCH   1   2
BRANCH   1  13
ATOM     13  C   UNL d   1     -48.247  11.598  23.319  0.00  0.00     0.281 C 
ATOM     14  O   UNL d   1     -48.343  10.866  23.690  0.00  0.00    -0.265 OA
ATOM     15  N   UNL d   1     -47.490  11.884  23.174  0.00  0.00    -0.206 NA
BRANCH  15  16
ATOM     16  C   UNL d   1     -46.832  11.448  23.395  0.00  0.00     0.102 C 
BRANCH  16  17
ATOM     17  C   UNL d   1     -46.085  11.789  23.383  0.00  0.00     0.021 C 
BRANCH  17  18
ATOM     18  C   UNL d   1     -45.409  11.317  23.359  0.00  0.00     0.002 A 
ATOM     19  C   UNL d   1     -44.716  11.610  22.996  0.00  0.00     0.000 A 
ATOM     20  C   UNL d   1     -44.038  11.133  22.974  0.00  0.00     0.000 A 
ATOM     21  C   UNL d   1     -44.046  10.382  23.304  0.00  0.00     0.000 A 
ATOM     22  C   UNL d   1     -44.736  10.096  23.663  0.00  0.00     0.000 A 
ATOM     23  C   UNL d   1     -45.420  10.551  23.698  0.00  0.00     0.000 A 
ENDBRANCH  17  18
ENDBRANCH  16  17
ENDBRANCH  15  16
ENDBRANCH   1  13
TORSDOF 6
ENDMDL
MODEL 3
REMARK VINA RESULT:      -5.5      1.655      2.044
REMARK  6 active torsions:
REMARK  status: ('A' for Active; 'I' for Inactive)
REMARK    1  A    between atoms: C_6  and  N_2 
REMARK    2  A    between atoms: C_7  and  C_6 
REMARK    3  A    between atoms: C_8  and  C_7 
REMARK       I    between atoms: N_13  and  C_8 
REMARK    4  A    between atoms: C_10  and  C_17 
REMARK    5  A    between atoms: C_14  and  N_13 
REMARK    6  A    between atoms: C_17  and  C_14 
ROOT
ATOM      1  C   UNL d   1     -47.266  13.247  23.015  0.00  0.00     0.082 C 
ENDROOT
BRANCH   1   2
ATOM      2  C   UNL d   1     -47.533  13.628  22.338  0.00  0.00     0.088 C 
BRANCH   2   3
ATOM      3  N   UNL d   1     -48.276  13.982  22.326  0.00  0.00    -0.268 N 
ATOM      4  C   UNL d   1     -48.453  14.746  22.574  0.00  0.00     0.296 A 
ATOM      5  S   UNL d   1     -49.295  14.852  22.452  0.00  0.00    -0.025 SA
ATOM      6  O   UNL d   1     -47.915  15.293  22.878  0.00  0.00    -0.259 OA
ATOM      7  C   UNL d   1     -49.583  14.178  22.148  0.00  0.00     0.050 A 
ATOM      8  C   UNL d   1     -50.357  13.979  21.927  0.00  0.00     0.008 A 
ATOM      9  C   UNL d   1     -48.974  13.628  22.062  0.00  0.00     0.073 A 
ATOM     10  C   UNL d   1     -50.519  13.225  21.619  0.00  0.00     0.001 A 
ATOM     11  C   UNL d   1     -49.902  12.683  21.537  0.00  0.00     0.002 A 
ATOM     12  C   UNL d   1     -49.132  12.886  21.759  0.00  0.00     0.018 A 
ENDBRANCH   2   3
ENDBRANCH   1   2
BRANCH   1  13
ATOM     13  C   UNL d   1     -46.514  12.909  23.037  0.00  0.00     0.281 C 
ATOM     14  O   UNL d   1     -45.848  13.382  22.912  0.00  0.00    -0.265 OA
ATOM     15  N   UNL d   1     -46.421  12.106  23.182  0.00  0.00    -0.206 NA
BRANCH  15  16
ATOM     16  C   UNL d   1     -45.673  11.772  23.203  0.00  0.00     0.102 C 
BRANCH  16  17
ATOM     17  C   UNL d   1     -45.568  11.004  23.475  0.00  0.00     0.021 C 
BRANCH  17  18
ATOM     18  C   UNL d   1     -44.826  10.645  23.442  0.00  0.00     0.002 A 
ATOM     19  C   UNL d   1     -44.740   9.855  23.698  0.00  0.00     0.000 A 
ATOM     20  C   UNL d   1     -43.993   9.496  23.664  0.00  0.00     0.000 A 
ATOM     21  C   UNL d   1     -43.344   9.913  23.383  0.00  0.00     0.000 A 
ATOM     22  C   UNL d   1     -43.435  10.697  23.130  0.00  0.00     0.000 A 
ATOM     23  C   UNL d   1     -44.166  11.072  23.155  0.00  0.00     0.000 A 
ENDBRANCH  17  18
ENDBRANCH  16  17
ENDBRANCH  15  16
ENDBRANCH   1  13
TORSDOF 6
ENDMDL
MODEL 4
REMARK VINA RESULT:      -5.1      1.791      2.837
REMARK  6 active torsions:
REMARK  status: ('A' for Active; 'I' for Inactive)
REMARK    1  A    between atoms: C_6  and  N_2 
REMARK    2  A    between atoms: C_7  and  C_6 
REMARK    3  A    between atoms: C_8  and  C_7 
REMARK       I    between atoms: N_13  and  C_8 
REMARK    4  A    between atoms: C_10  and  C_17 
REMARK    5  A    between atoms: C_14  and  N_13 
REMARK    6  A    between atoms: C_17  and  C_14 
ROOT
ATOM      1  C   UNL d   1     -45.324  12.655  22.290  0.00  0.00     0.082 C 
ENDROOT
BRANCH   1   2
ATOM      2  C   UNL d   1     -45.839  12.918  22.874  0.00  0.00     0.088 C 
BRANCH   2   3
ATOM      3  N   UNL d   1     -46.458  12.439  23.128  0.00  0.00    -0.268 N 
ATOM      4  C   UNL d   1     -46.386  11.713  23.507  0.00  0.00     0.296 A 
ATOM      5  S   UNL d   1     -47.184  11.436  23.657  0.00  0.00    -0.025 SA
ATOM      6  O   UNL d   1     -45.677  11.336  23.698  0.00  0.00    -0.259 OA
ATOM      7  C   UNL d   1     -47.686  11.981  23.376  0.00  0.00     0.050 A 
ATOM      8  C   UNL d   1     -48.515  11.995  23.375  0.00  0.00     0.008 A 
ATOM      9  C   UNL d   1     -47.263  12.608  23.046  0.00  0.00     0.073 A 
ATOM     10  C   UNL d   1     -48.920  12.639  23.042  0.00  0.00     0.001 A 
ATOM     11  C   UNL d   1     -48.486  13.261  22.715  0.00  0.00     0.002 A 
ATOM     12  C   UNL d   1     -47.659  13.243  22.718  0.00  0.00     0.018 A 
ENDBRANCH   2   3
ENDBRANCH   1   2
BRANCH   1  13
ATOM     13  C   UNL d   1     -44.706  13.135  22.029  0.00  0.00     0.281 C 
ATOM     14  O   UNL d   1     -44.764  13.955  22.104  0.00  0.00    -0.265 OA
ATOM     15  N   UNL d   1     -44.033  12.803  21.695  0.00  0.00    -0.206 NA
BRANCH  15  16
ATOM     16  C   UNL d   1     -43.420  13.282  21.436  0.00  0.00     0.102 C 
BRANCH  16  17
ATOM     17  C   UNL d   1     -42.709  12.950  21.191  0.00  0.00     0.021 C 
BRANCH  17  18
ATOM     18  C   UNL d   1     -42.059  13.429  21.022  0.00  0.00     0.002 A 
ATOM     19  C   UNL d   1     -41.462  13.530  21.597  0.00  0.00     0.000 A 
ATOM     20  C   UNL d   1     -40.810  14.012  21.425  0.00  0.00     0.000 A 
ATOM     21  C   UNL d   1     -40.750  14.386  20.697  0.00  0.00     0.000 A 
ATOM     22  C   UNL d   1     -41.345  14.283  20.129  0.00  0.00     0.000 A 
ATOM     23  C   UNL d   1     -42.001  13.810  20.279  0.00  0.00     0.000 A 
ENDBRANCH  17  18
ENDBRANCH  16  17
ENDBRANCH  15  16
ENDBRANCH   1  13
TORSDOF 6
ENDMDL
MODEL 5
REMARK VINA RESULT:      -4.7      2.084      5.473
REMARK  6 active torsions:
REMARK  status: ('A' for Active; 'I' for Inactive)
REMARK    1  A    between atoms: C_6  and  N_2 
REMARK    2  A    between atoms: C_7  and  C_6 
REMARK    3  A    between atoms: C_8  and  C_7 
REMARK       I    between atoms: N_13  and  C_8 
REMARK    4  A    between atoms: C_10  and  C_17 
REMARK    5  A    between atoms: C_14  and  N_13 
REMARK    6  A    between atoms: C_17  and  C_14 
ROOT
ATOM      1  C   UNL d   1     -46.365  13.116  22.961  0.00  0.00     0.082 C 
ENDROOT
BRANCH   1   2
ATOM      2  C   UNL d   1     -46.134  12.351  22.767  0.00  0.00     0.088 C 
BRANCH   2   3
ATOM      3  N   UNL d   1     -45.335  12.163  22.700  0.00  0.00    -0.268 N 
ATOM      4  C   UNL d   1     -44.763  12.607  22.310  0.00  0.00     0.296 A 
ATOM      5  S   UNL d   1     -44.024  12.181  22.396  0.00  0.00    -0.025 SA
ATOM      6  O   UNL d   1     -44.891  13.321  21.917  0.00  0.00    -0.259 OA
ATOM      7  C   UNL d   1     -44.170  11.525  22.816  0.00  0.00     0.050 A 
ATOM      8  C   UNL d   1     -43.657  10.920  23.059  0.00  0.00     0.008 A 
ATOM      9  C   UNL d   1     -44.970  11.492  23.015  0.00  0.00     0.073 A 
ATOM     10  C   UNL d   1     -43.949  10.281  23.501  0.00  0.00     0.001 A 
ATOM     11  C   UNL d   1     -44.752  10.259  23.694  0.00  0.00     0.002 A 
ATOM     12  C   UNL d   1     -45.259  10.864  23.450  0.00  0.00     0.018 A 
ENDBRANCH   2   3
ENDBRANCH   1   2
BRANCH   1  13
ATOM     13  C   UNL d   1     -47.157  13.288  23.111  0.00  0.00     0.281 C 
ATOM     14  O   UNL d   1     -47.608  12.774  23.573  0.00  0.00    -0.265 OA
ATOM     15  N   UNL d   1     -47.501  13.968  22.805  0.00  0.00    -0.206 NA
BRANCH  15  16
ATOM     16  C   UNL d   1     -48.289  14.138  22.956  0.00  0.00     0.102 C 
BRANCH  16  17
ATOM     17  C   UNL d   1     -48.612  14.856  22.719  0.00  0.00     0.021 C 
BRANCH  17  18
ATOM     18  C   UNL d   1     -49.414  15.012  22.831  0.00  0.00     0.002 A 
ATOM     19  C   UNL d   1     -49.981  14.580  22.396  0.00  0.00     0.000 A 
ATOM     20  C   UNL d   1     -50.788  14.739  22.511  0.00  0.00     0.000 A 
ATOM     21  C   UNL d   1     -51.026  15.314  23.045  0.00  0.00     0.000 A 
ATOM     22  C   UNL d   1     -50.459  15.740  23.474  0.00  0.00     0.000 A 
ATOM     23  C   UNL d   1     -49.655  15.599  23.377  0.00  0.00     0.000 A 
ENDBRANCH  17  18
ENDBRANCH  16  17
ENDBRANCH  15  16
ENDBRANCH   1  13
TORSDOF 6
ENDMDL
MODEL 6
REMARK VINA RESULT:      -4.4      8.204      9.454
REMARK  6 active torsions:
REMARK  status: ('A' for Active; 'I' for Inactive)
REMARK    1  A    between atoms: C_6  and  N_2 
REMARK    2  A    between atoms: C_7  and  C_6 
REMARK    3  A    between atoms: C_8  and  C_7 
REMARK       I    between atoms: N_13  and  C_8 
REMARK    4  A    between atoms: C_10  and  C_17 
REMARK    5  A    between atoms: C_14  and  N_13 
REMARK    6  A    between atoms: C_17  and  C_14 
ROOT
ATOM      1  C   UNL d   1     -40.168  14.725  19.018  0.00  0.00     0.082 C 
ENDROOT
BRANCH   1   2
ATOM      2  C   UNL d   1     -40.127  15.445  18.624  0.00  0.00     0.088 C 
BRANCH   2   3
ATOM      3  N   UNL d   1     -40.059  15.467  17.804  0.00  0.00    -0.268 N 
ATOM      4  C   UNL d   1     -40.664  15.338  17.263  0.00  0.00     0.296 A 
ATOM      5  S   UNL d   1     -40.316  15.421  16.483  0.00  0.00    -0.025 SA
ATOM      6  O   UNL d   1     -41.449  15.165  17.448  0.00  0.00    -0.259 OA
ATOM      7  C   UNL d   1     -39.547  15.589  16.579  0.00  0.00     0.050 A 
ATOM      8  C   UNL d   1     -38.955  15.723  16.014  0.00  0.00     0.008 A 
ATOM      9  C   UNL d   1     -39.365  15.622  17.383  0.00  0.00     0.073 A 
ATOM     10  C   UNL d   1     -38.179  15.891  16.257  0.00  0.00     0.001 A 
ATOM     11  C   UNL d   1     -38.009  15.922  17.065  0.00  0.00     0.002 A 
ATOM     12  C   UNL d   1     -38.602  15.787  17.625  0.00  0.00     0.018 A 
ENDBRANCH   2   3
ENDBRANCH   1   2
BRANCH   1  13
ATOM     13  C   UNL d   1     -40.132  14.696  19.841  0.00  0.00     0.281 C 
ATOM     14  O   UNL d   1     -40.769  14.968  20.290  0.00  0.00    -0.265 OA
ATOM     15  N   UNL d   1     -39.466  14.397  20.219  0.00  0.00    -0.206 NA
BRANCH  15  16
ATOM     16  C   UNL d   1     -39.431  14.368  21.037  0.00  0.00     0.102 C 
BRANCH  16  17
ATOM     17  C   UNL d   1     -38.706  14.385  21.423  0.00  0.00     0.021 C 
BRANCH  17  18
ATOM     18  C   UNL d   1     -38.628  14.072  22.182  0.00  0.00     0.002 A 
ATOM     19  C   UNL d   1     -38.427  13.267  22.276  0.00  0.00     0.000 A 
ATOM     20  C   UNL d   1     -38.348  12.954  23.040  0.00  0.00     0.000 A 
ATOM     21  C   UNL d   1     -38.467  13.430  23.698  0.00  0.00     0.000 A 
ATOM     22  C   UNL d   1     -38.666  14.229  23.600  0.00  0.00     0.000 A 
ATOM     23  C   UNL d   1     -38.749  14.560  22.852  0.00  0.00     0.000 A 
ENDBRANCH  17  18
ENDBRANCH  16  17
ENDBRANCH  15  16
ENDBRANCH   1  13
TORSDOF 6
ENDMDL
MODEL 7
REMARK VINA RESULT:      -4.2      7.254      9.346
REMARK  6 active torsions:
REMARK  status: ('A' for Active; 'I' for Inactive)
REMARK    1  A    between atoms: C_6  and  N_2 
REMARK    2  A    between atoms: C_7  and  C_6 
REMARK    3  A    between atoms: C_8  and  C_7 
REMARK       I    between atoms: N_13  and  C_8 
REMARK    4  A    between atoms: C_10  and  C_17 
REMARK    5  A    between atoms: C_14  and  N_13 
REMARK    6  A    between atoms: C_17  and  C_14 
ROOT
ATOM      1  C   UNL d   1     -40.177  14.136  19.044  0.00  0.00     0.082 C 
ENDROOT
BRANCH   1   2
ATOM      2  C   UNL d   1     -40.337  14.794  19.509  0.00  0.00     0.088 C 
BRANCH   2   3
ATOM      3  N   UNL d   1     -40.295  14.744  20.330  0.00  0.00    -0.268 N 
ATOM      4  C   UNL d   1     -40.799  14.313  20.816  0.00  0.00     0.296 A 
ATOM      5  S   UNL d   1     -40.527  14.437  21.620  0.00  0.00    -0.025 SA
ATOM      6  O   UNL d   1     -41.437  13.855  20.566  0.00  0.00    -0.259 OA
ATOM      7  C   UNL d   1     -39.896  14.918  21.591  0.00  0.00     0.050 A 
ATOM      8  C   UNL d   1     -39.421  15.215  22.202  0.00  0.00     0.008 A 
ATOM      9  C   UNL d   1     -39.735  15.119  20.807  0.00  0.00     0.073 A 
ATOM     10  C   UNL d   1     -38.784  15.716  22.026  0.00  0.00     0.001 A 
ATOM     11  C   UNL d   1     -38.631  15.911  21.238  0.00  0.00     0.002 A 
ATOM     12  C   UNL d   1     -39.107  15.613  20.631  0.00  0.00     0.018 A 
ENDBRANCH   2   3
ENDBRANCH   1   2
BRANCH   1  13
ATOM     13  C   UNL d   1     -40.043  14.218  18.235  0.00  0.00     0.281 C 
ATOM     14  O   UNL d   1     -40.682  14.317  17.721  0.00  0.00    -0.265 OA
ATOM     15  N   UNL d   1     -39.279  14.202  17.935  0.00  0.00    -0.206 NA
BRANCH  15  16
ATOM     16  C   UNL d   1     -39.147  14.284  17.130  0.00  0.00     0.102 C 
BRANCH  16  17
ATOM     17  C   UNL d   1     -38.426  14.065  16.802  0.00  0.00     0.021 C 
BRANCH  17  18
ATOM     18  C   UNL d   1     -38.265  14.214  16.007  0.00  0.00     0.002 A 
ATOM     19  C   UNL d   1     -38.200  15.002  15.741  0.00  0.00     0.000 A 
ATOM     20  C   UNL d   1     -38.037  15.149  14.941  0.00  0.00     0.000 A 
ATOM     21  C   UNL d   1     -37.940  14.527  14.416  0.00  0.00     0.000 A 
ATOM     22  C   UNL d   1     -38.006  13.745  14.684  0.00  0.00     0.000 A 
ATOM     23  C   UNL d   1     -38.167  13.576  15.472  0.00  0.00     0.000 A 
ENDBRANCH  17  18
ENDBRANCH  16  17
ENDBRANCH  15  16
ENDBRANCH   1  13
TORSDOF 6
ENDMDL
