MODEL 1
REMARK VINA RESULT:      -2.6      0.000      0.000
REMARK  4 active torsions:
REMARK  status: ('A' for Active; 'I' for Inactive)
REMARK    1  A    between atoms: N_2  and  C_1 
REMARK    2  A    between atoms: C_3  and  C_1 
REMARK       I    between atoms: C_6  and  N_2 
REMARK       I    between atoms: N_8  and  C_6 
REMARK    3  A    between atoms: N_11  and  C_7 
REMARK    4  A    between atoms: C_9  and  N_8 
ROOT
ATOM      1  N   UNL d   1      31.674  17.430 -23.832  0.00  0.00    -0.159 NA
ATOM      2  C   UNL d   1      31.944  18.198 -23.960  0.00  0.00     0.370 C 
ATOM      3  N   UNL d   1      32.277  18.618 -23.340  0.00  0.00    -0.172 NA
ATOM      4  O   UNL d   1      31.879  18.544 -24.706  0.00  0.00    -0.243 OA
ENDROOT
BRANCH   1   5
ATOM      5  C   UNL d   1      31.328  16.746 -24.113  0.00  0.00     0.386 A 
ATOM      6  O   UNL d   1      30.650  17.215 -24.059  0.00  0.00    -0.283 OA
ATOM      7  C   UNL d   1      30.000  16.771 -24.305  0.00  0.00     0.121 A 
ATOM      8  C   UNL d   1      29.198  16.952 -24.365  0.00  0.00     0.026 A 
ATOM      9  C   UNL d   1      30.276  16.020 -24.515  0.00  0.00     0.121 A 
ATOM     10  C   UNL d   1      28.672  16.382 -24.635  0.00  0.00     0.002 A 
ATOM     11  C   UNL d   1      28.944  15.626 -24.847  0.00  0.00     0.002 A 
ATOM     12  C   UNL d   1      29.746  15.453 -24.784  0.00  0.00     0.026 A 
ATOM     13  O   UNL d   1      31.087  16.006 -24.397  0.00  0.00    -0.283 OA
BRANCH   5  14
ATOM     14  C   UNL d   1      32.063  16.373 -24.127  0.00  0.00     0.470 C 
ATOM     15  F   UNL d   1      32.633  16.314 -24.765  0.00  0.00    -0.164 F 
ATOM     16  F   UNL d   1      32.462  15.935 -23.494  0.00  0.00    -0.164 F 
ATOM     17  F   UNL d   1      32.733  16.031 -24.133  0.00  0.00    -0.164 F 
ENDBRANCH   5  14
ENDBRANCH   1   5
BRANCH   3  18
ATOM     18  C   UNL d   1      32.599  19.380 -23.261  0.00  0.00     0.172 A 
ATOM     19  C   UNL d   1      32.605  19.745 -22.528  0.00  0.00     0.076 A 
ATOM     20  C   UNL d   1      32.924  20.502 -22.443  0.00  0.00     0.153 A 
ATOM     21  N   UNL d   1      33.241  20.891 -23.111  0.00  0.00    -0.206 NA
ATOM     22  C   UNL d   1      33.232  20.518 -23.846  0.00  0.00     0.202 A 
ATOM     23  N   UNL d   1      32.913  19.763 -23.928  0.00  0.00    -0.205 NA
BRANCH  20  24
ATOM     24  N   UNL d   1      32.933  20.874 -21.707  0.00  0.00    -0.285 N 
ATOM     25  C   UNL d   1      32.691  21.656 -21.642  0.00  0.00     0.108 A 
ATOM     26  C   UNL d   1      32.704  22.019 -20.901  0.00  0.00     0.142 A 
ATOM     27  O   UNL d   1      32.955  21.609 -20.234  0.00  0.00    -0.300 OA
ATOM     28  C   UNL d   1      33.197  20.826 -20.308  0.00  0.00     0.142 A 
ATOM     29  C   UNL d   1      33.188  20.452 -21.043  0.00  0.00     0.108 A 
ENDBRANCH  20  24
ENDBRANCH   3  18
TORSDOF 4
ENDMDL
MODEL 2
REMARK VINA RESULT:      -0.3      2.020      5.490
REMARK  4 active torsions:
REMARK  status: ('A' for Active; 'I' for Inactive)
REMARK    1  A    between atoms: N_2  and  C_1 
REMARK    2  A    between atoms: C_3  and  C_1 
REMARK       I    between atoms: C_6  and  N_2 
REMARK       I    between atoms: N_8  and  C_6 
REMARK    3  A    between atoms: N_11  and  C_7 
REMARK    4  A    between atoms: C_9  and  N_8 
ROOT
ATOM      1  N   UNL d   1      32.820  20.106 -23.245  0.00  0.00    -0.159 NA
ATOM      2  C   UNL d   1      32.875  19.284 -23.265  0.00  0.00     0.370 C 
ATOM      3  N   UNL d   1      32.564  18.873 -23.902  0.00  0.00    -0.172 NA
ATOM      4  O   UNL d   1      33.240  18.876 -22.648  0.00  0.00    -0.243 OA
ENDROOT
BRANCH   1   5
ATOM      5  C   UNL d   1      32.967  20.816 -22.869  0.00  0.00     0.386 A 
ATOM      6  O   UNL d   1      32.863  20.341 -22.201  0.00  0.00    -0.283 OA
ATOM      7  C   UNL d   1      32.956  20.807 -21.527  0.00  0.00     0.121 A 
ATOM      8  C   UNL d   1      32.914  20.631 -20.723  0.00  0.00     0.026 A 
ATOM      9  C   UNL d   1      33.120  21.578 -21.778  0.00  0.00     0.121 A 
ATOM     10  C   UNL d   1      33.035  21.225 -20.170  0.00  0.00     0.002 A 
ATOM     11  C   UNL d   1      33.200  22.001 -20.416  0.00  0.00     0.002 A 
ATOM     12  C   UNL d   1      33.240  22.170 -21.221  0.00  0.00     0.026 A 
ATOM     13  O   UNL d   1      33.126  21.583 -22.598  0.00  0.00    -0.283 OA
BRANCH   5  14
ATOM     14  C   UNL d   1      33.050  21.191 -23.598  0.00  0.00     0.470 C 
ATOM     15  F   UNL d   1      33.241  20.858 -24.365  0.00  0.00    -0.164 F 
ATOM     16  F   UNL d   1      32.967  22.033 -23.788  0.00  0.00    -0.164 F 
ATOM     17  F   UNL d   1      33.125  21.540 -24.260  0.00  0.00    -0.164 F 
ENDBRANCH   5  14
ENDBRANCH   1   5
BRANCH   3  18
ATOM     18  C   UNL d   1      32.516  18.070 -24.108  0.00  0.00     0.172 A 
ATOM     19  C   UNL d   1      31.819  17.659 -23.985  0.00  0.00     0.076 A 
ATOM     20  C   UNL d   1      31.765  16.860 -24.188  0.00  0.00     0.153 A 
ATOM     21  N   UNL d   1      32.429  16.476 -24.520  0.00  0.00    -0.206 NA
ATOM     22  C   UNL d   1      33.128  16.896 -24.642  0.00  0.00     0.202 A 
ATOM     23  N   UNL d   1      33.178  17.692 -24.438  0.00  0.00    -0.205 NA
BRANCH  20  24
ATOM     24  N   UNL d   1      31.066  16.441 -24.066  0.00  0.00    -0.285 N 
ATOM     25  C   UNL d   1      30.802  16.298 -23.302  0.00  0.00     0.108 A 
ATOM     26  C   UNL d   1      30.100  15.877 -23.193  0.00  0.00     0.142 A 
ATOM     27  O   UNL d   1      29.668  15.602 -23.835  0.00  0.00    -0.300 OA
ATOM     28  C   UNL d   1      29.940  15.749 -24.598  0.00  0.00     0.142 A 
ATOM     29  C   UNL d   1      30.639  16.169 -24.721  0.00  0.00     0.108 A 
ENDBRANCH  20  24
ENDBRANCH   3  18
TORSDOF 4
ENDMDL
MODEL 3
REMARK VINA RESULT:      -0.2      2.049      5.493
REMARK  4 active torsions:
REMARK  status: ('A' for Active; 'I' for Inactive)
REMARK    1  A    between atoms: N_2  and  C_1 
REMARK    2  A    between atoms: C_3  and  C_1 
REMARK       I    between atoms: C_6  and  N_2 
REMARK       I    between atoms: N_8  and  C_6 
REMARK    3  A    between atoms: N_11  and  C_7 
REMARK    4  A    between atoms: C_9  and  N_8 
ROOT
ATOM      1  N   UNL d   1      32.397  19.792 -22.870  0.00  0.00    -0.159 NA
ATOM      2  C   UNL d   1      32.542  19.052 -23.203  0.00  0.00     0.370 C 
ATOM      3  N   UNL d   1      31.989  18.454 -23.117  0.00  0.00    -0.172 NA
ATOM      4  O   UNL d   1      33.240  18.913 -23.620  0.00  0.00    -0.243 OA
ENDROOT
BRANCH   1   5
ATOM      5  C   UNL d   1      32.630  20.561 -22.727  0.00  0.00     0.386 A 
ATOM      6  O   UNL d   1      32.584  20.597 -23.551  0.00  0.00    -0.283 OA
ATOM      7  C   UNL d   1      32.788  21.357 -23.795  0.00  0.00     0.121 A 
ATOM      8  C   UNL d   1      32.837  21.704 -24.542  0.00  0.00     0.026 A 
ATOM      9  C   UNL d   1      32.962  21.799 -23.117  0.00  0.00     0.121 A 
ATOM     10  C   UNL d   1      33.061  22.490 -24.611  0.00  0.00     0.002 A 
ATOM     11  C   UNL d   1      33.237  22.939 -23.934  0.00  0.00     0.002 A 
ATOM     12  C   UNL d   1      33.186  22.586 -23.192  0.00  0.00     0.026 A 
ATOM     13  O   UNL d   1      32.865  21.311 -22.466  0.00  0.00    -0.283 OA
BRANCH   5  14
ATOM     14  C   UNL d   1      32.642  20.412 -21.916  0.00  0.00     0.470 C 
ATOM     15  F   UNL d   1      33.237  20.016 -21.443  0.00  0.00    -0.164 F 
ATOM     16  F   UNL d   1      32.050  20.619 -21.317  0.00  0.00    -0.164 F 
ATOM     17  F   UNL d   1      32.647  20.280 -21.176  0.00  0.00    -0.164 F 
ENDBRANCH   5  14
ENDBRANCH   1   5
BRANCH   3  18
ATOM     18  C   UNL d   1      31.944  17.663 -23.367  0.00  0.00     0.172 A 
ATOM     19  C   UNL d   1      31.230  17.359 -23.629  0.00  0.00     0.076 A 
ATOM     20  C   UNL d   1      31.179  16.574 -23.879  0.00  0.00     0.153 A 
ATOM     21  N   UNL d   1      31.862  16.093 -23.862  0.00  0.00    -0.206 NA
ATOM     22  C   UNL d   1      32.578  16.405 -23.598  0.00  0.00     0.202 A 
ATOM     23  N   UNL d   1      32.626  17.189 -23.349  0.00  0.00    -0.205 NA
BRANCH  20  24
ATOM     24  N   UNL d   1      30.463  16.261 -24.143  0.00  0.00    -0.285 N 
ATOM     25  C   UNL d   1      29.770  16.423 -23.734  0.00  0.00     0.108 A 
ATOM     26  C   UNL d   1      29.059  16.105 -24.008  0.00  0.00     0.142 A 
ATOM     27  O   UNL d   1      29.039  15.633 -24.680  0.00  0.00    -0.300 OA
ATOM     28  C   UNL d   1      29.739  15.475 -25.085  0.00  0.00     0.142 A 
ATOM     29  C   UNL d   1      30.455  15.787 -24.821  0.00  0.00     0.108 A 
ENDBRANCH  20  24
ENDBRANCH   3  18
TORSDOF 4
ENDMDL
