MODEL 1
REMARK VINA RESULT:      -8.7      0.000      0.000
REMARK  4 active torsions:
REMARK  status: ('A' for Active; 'I' for Inactive)
REMARK    1  A    between atoms: C_2  and  S_1 
REMARK    2  A    between atoms: N_9  and  S_1 
REMARK    3  A    between atoms: C_18  and  N_9 
REMARK    4  A    between atoms: C_19  and  N_9 
ROOT
ATOM      1  C   UNL d   1     -48.821  13.020  23.114  0.00  0.00     0.104 A 
ATOM      2  C   UNL d   1     -46.306  11.951  23.472  0.00  0.00     0.225 A 
ATOM      3  S   UNL d   1     -47.168  11.326  23.698  0.00  0.00    -0.046 SA
ATOM      4  C   UNL d   1     -47.478  12.542  23.272  0.00  0.00     0.010 A 
ATOM      5  C   UNL d   1     -47.794  11.802  23.535  0.00  0.00     0.033 A 
ATOM      6  C   UNL d   1     -47.987  13.154  23.061  0.00  0.00     0.013 A 
ATOM      7  C   UNL d   1     -46.670  12.651  23.229  0.00  0.00     0.046 A 
ATOM      8  C   UNL d   1     -49.124  12.310  23.366  0.00  0.00     0.013 A 
ATOM      9  C   UNL d   1     -48.607  11.703  23.575  0.00  0.00     0.007 A 
ATOM     10  O   UNL d   1     -45.470  11.948  23.467  0.00  0.00    -0.279 OA
ATOM     11  C   UNL d   1     -47.671  13.895  22.799  0.00  0.00     0.001 A 
ATOM     12  C   UNL d   1     -46.354  13.391  22.966  0.00  0.00     0.004 A 
ATOM     13  C   UNL d   1     -46.858  13.994  22.758  0.00  0.00     0.000 A 
ENDROOT
BRANCH   1  14
ATOM     14  S   UNL d   1     -49.358  13.635  22.902  0.00  0.00     0.271 S 
ATOM     15  O   UNL d   1     -49.362  13.862  23.698  0.00  0.00    -0.200 OA
ATOM     16  O   UNL d   1     -49.337  13.381  22.085  0.00  0.00    -0.200 OA
BRANCH  14  17
ATOM     17  N   UNL d   1     -49.899  14.251  22.677  0.00  0.00    -0.229 N 
BRANCH  17  18
ATOM     18  C   UNL d   1     -50.048  14.824  23.260  0.00  0.00     0.092 C 
ATOM     19  C   UNL d   1     -50.307  15.576  23.098  0.00  0.00     0.021 C 
ENDBRANCH  17  18
BRANCH  17  20
ATOM     20  C   UNL d   1     -50.246  14.279  21.942  0.00  0.00     0.092 C 
ATOM     21  C   UNL d   1     -51.064  14.402  21.877  0.00  0.00     0.021 C 
ENDBRANCH  17  20
ENDBRANCH  14  17
ENDBRANCH   1  14
TORSDOF 4
ENDMDL
MODEL 2
REMARK VINA RESULT:      -8.4      0.649      1.731
REMARK  4 active torsions:
REMARK  status: ('A' for Active; 'I' for Inactive)
REMARK    1  A    between atoms: C_2  and  S_1 
REMARK    2  A    between atoms: N_9  and  S_1 
REMARK    3  A    between atoms: C_18  and  N_9 
REMARK    4  A    between atoms: C_19  and  N_9 
ROOT
ATOM      1  C   UNL d   1     -48.332  13.841  22.765  0.00  0.00     0.104 A 
ATOM      2  C   UNL d   1     -46.330  12.069  23.435  0.00  0.00     0.225 A 
ATOM      3  S   UNL d   1     -46.045  13.062  23.093  0.00  0.00    -0.046 SA
ATOM      4  C   UNL d   1     -47.354  12.859  23.133  0.00  0.00     0.010 A 
ATOM      5  C   UNL d   1     -46.749  13.422  22.950  0.00  0.00     0.033 A 
ATOM      6  C   UNL d   1     -48.146  13.064  23.042  0.00  0.00     0.013 A 
ATOM      7  C   UNL d   1     -47.153  12.113  23.399  0.00  0.00     0.046 A 
ATOM      8  C   UNL d   1     -47.751  14.382  22.589  0.00  0.00     0.013 A 
ATOM      9  C   UNL d   1     -46.961  14.167  22.683  0.00  0.00     0.007 A 
ATOM     10  O   UNL d   1     -46.010  11.343  23.697  0.00  0.00    -0.279 OA
ATOM     11  C   UNL d   1     -48.751  12.500  23.226  0.00  0.00     0.001 A 
ATOM     12  C   UNL d   1     -47.758  11.550  23.583  0.00  0.00     0.004 A 
ATOM     13  C   UNL d   1     -48.540  11.754  23.493  0.00  0.00     0.000 A 
ENDROOT
BRANCH   1  14
ATOM     14  S   UNL d   1     -49.138  14.069  22.666  0.00  0.00     0.271 S 
ATOM     15  O   UNL d   1     -49.069  13.850  21.871  0.00  0.00    -0.200 OA
ATOM     16  O   UNL d   1     -49.185  14.289  23.491  0.00  0.00    -0.200 OA
BRANCH  14  17
ATOM     17  N   UNL d   1     -49.950  14.302  22.577  0.00  0.00    -0.229 N 
BRANCH  17  18
ATOM     18  C   UNL d   1     -50.281  14.162  21.828  0.00  0.00     0.092 C 
ATOM     19  C   UNL d   1     -51.060  13.967  21.707  0.00  0.00     0.021 C 
ENDBRANCH  17  18
BRANCH  17  20
ATOM     20  C   UNL d   1     -50.375  14.638  23.184  0.00  0.00     0.092 C 
ATOM     21  C   UNL d   1     -50.897  15.264  23.025  0.00  0.00     0.021 C 
ENDBRANCH  17  20
ENDBRANCH  14  17
ENDBRANCH   1  14
TORSDOF 4
ENDMDL
MODEL 3
REMARK VINA RESULT:      -8.0      1.489      3.665
REMARK  4 active torsions:
REMARK  status: ('A' for Active; 'I' for Inactive)
REMARK    1  A    between atoms: C_2  and  S_1 
REMARK    2  A    between atoms: N_9  and  S_1 
REMARK    3  A    between atoms: C_18  and  N_9 
REMARK    4  A    between atoms: C_19  and  N_9 
ROOT
ATOM      1  C   UNL d   1     -48.467  12.987  22.428  0.00  0.00     0.104 A 
ATOM      2  C   UNL d   1     -50.640  14.640  22.053  0.00  0.00     0.225 A 
ATOM      3  S   UNL d   1     -50.736  13.593  21.772  0.00  0.00    -0.046 SA
ATOM      4  C   UNL d   1     -49.549  13.915  22.266  0.00  0.00     0.010 A 
ATOM      5  C   UNL d   1     -50.017  13.283  21.952  0.00  0.00     0.033 A 
ATOM      6  C   UNL d   1     -48.774  13.772  22.505  0.00  0.00     0.013 A 
ATOM      7  C   UNL d   1     -49.864  14.665  22.332  0.00  0.00     0.046 A 
ATOM      8  C   UNL d   1     -48.916  12.381  22.127  0.00  0.00     0.013 A 
ATOM      9  C   UNL d   1     -49.691  12.534  21.890  0.00  0.00     0.007 A 
ATOM     10  O   UNL d   1     -51.064  15.360  22.074  0.00  0.00    -0.279 OA
ATOM     11  C   UNL d   1     -48.306  14.404  22.819  0.00  0.00     0.001 A 
ATOM     12  C   UNL d   1     -49.396  15.297  22.646  0.00  0.00     0.004 A 
ATOM     13  C   UNL d   1     -48.631  15.154  22.882  0.00  0.00     0.000 A 
ENDROOT
BRANCH   1  14
ATOM     14  S   UNL d   1     -47.675  12.821  22.668  0.00  0.00     0.271 S 
ATOM     15  O   UNL d   1     -47.439  12.996  21.894  0.00  0.00    -0.200 OA
ATOM     16  O   UNL d   1     -47.944  12.646  23.460  0.00  0.00    -0.200 OA
BRANCH  14  17
ATOM     17  N   UNL d   1     -46.882  12.653  22.920  0.00  0.00    -0.229 N 
BRANCH  17  18
ATOM     18  C   UNL d   1     -46.284  12.867  22.384  0.00  0.00     0.092 C 
ATOM     19  C   UNL d   1     -45.514  13.010  22.599  0.00  0.00     0.021 C 
ENDBRANCH  17  18
BRANCH  17  20
ATOM     20  C   UNL d   1     -46.717  12.305  23.636  0.00  0.00     0.092 C 
ATOM     21  C   UNL d   1     -46.231  11.633  23.667  0.00  0.00     0.021 C 
ENDBRANCH  17  20
ENDBRANCH  14  17
ENDBRANCH   1  14
TORSDOF 4
ENDMDL
MODEL 4
REMARK VINA RESULT:      -7.3      1.643      3.871
REMARK  4 active torsions:
REMARK  status: ('A' for Active; 'I' for Inactive)
REMARK    1  A    between atoms: C_2  and  S_1 
REMARK    2  A    between atoms: N_9  and  S_1 
REMARK    3  A    between atoms: C_18  and  N_9 
REMARK    4  A    between atoms: C_19  and  N_9 
ROOT
ATOM      1  C   UNL d   1     -47.722  13.849  22.597  0.00  0.00     0.104 A 
ATOM      2  C   UNL d   1     -50.328  14.324  21.835  0.00  0.00     0.225 A 
ATOM      3  S   UNL d   1     -49.802  15.103  22.385  0.00  0.00    -0.046 SA
ATOM      4  C   UNL d   1     -49.079  14.014  22.163  0.00  0.00     0.010 A 
ATOM      5  C   UNL d   1     -49.076  14.785  22.513  0.00  0.00     0.033 A 
ATOM      6  C   UNL d   1     -48.406  13.542  22.202  0.00  0.00     0.013 A 
ATOM      7  C   UNL d   1     -49.749  13.737  21.787  0.00  0.00     0.046 A 
ATOM      8  C   UNL d   1     -47.718  14.588  22.932  0.00  0.00     0.013 A 
ATOM      9  C   UNL d   1     -48.398  15.053  22.888  0.00  0.00     0.007 A 
ATOM     10  O   UNL d   1     -51.064  14.147  21.480  0.00  0.00    -0.279 OA
ATOM     11  C   UNL d   1     -48.409  12.771  21.852  0.00  0.00     0.001 A 
ATOM     12  C   UNL d   1     -49.753  12.966  21.437  0.00  0.00     0.004 A 
ATOM     13  C   UNL d   1     -49.087  12.502  21.477  0.00  0.00     0.000 A 
ENDROOT
BRANCH   1  14
ATOM     14  S   UNL d   1     -47.023  13.380  22.647  0.00  0.00     0.271 S 
ATOM     15  O   UNL d   1     -47.272  13.146  23.400  0.00  0.00    -0.200 OA
ATOM     16  O   UNL d   1     -46.786  13.636  21.866  0.00  0.00    -0.200 OA
BRANCH  14  17
ATOM     17  N   UNL d   1     -46.315  12.911  22.686  0.00  0.00    -0.229 N 
BRANCH  17  18
ATOM     18  C   UNL d   1     -46.257  12.410  23.346  0.00  0.00     0.092 C 
ATOM     19  C   UNL d   1     -45.830  11.718  23.352  0.00  0.00     0.021 C 
ENDBRANCH  17  18
BRANCH  17  20
ATOM     20  C   UNL d   1     -45.735  12.950  22.118  0.00  0.00     0.092 C 
ATOM     21  C   UNL d   1     -44.937  12.993  22.345  0.00  0.00     0.021 C 
ENDBRANCH  17  20
ENDBRANCH  14  17
ENDBRANCH   1  14
TORSDOF 4
ENDMDL
