MODEL 1
REMARK VINA RESULT:      11.3      0.000      0.000
REMARK  1 active torsions:
REMARK  status: ('A' for Active; 'I' for Inactive)
REMARK    1  A    between atoms: C_11  and  C_4 
ROOT
ATOM      1  O   UNL d   1      58.756  49.704  51.147  0.00  0.00    -0.304 OA
ATOM      2  C   UNL d   1      58.151  49.705  49.951  0.00  0.00     0.025 A 
ATOM      3  C   UNL d   1      58.972  49.704  49.830  0.00  0.00     0.030 A 
ATOM      4  C   UNL d   1      59.345  49.703  50.566  0.00  0.00     0.142 A 
ATOM      5  C   UNL d   1      58.026  49.705  50.767  0.00  0.00     0.100 A 
ATOM      6  C   UNL d   1      57.523  49.705  49.432  0.00  0.00     0.009 A 
ATOM      7  C   UNL d   1      57.258  49.705  51.064  0.00  0.00     0.025 A 
ATOM      8  C   UNL d   1      56.744  49.706  49.720  0.00  0.00     0.035 A 
ATOM      9  C   UNL d   1      56.614  49.706  50.539  0.00  0.00     0.009 A 
ATOM     10 BR   UNL d   1      56.105  49.707  49.202  0.00  0.00    -0.049 Br
ENDROOT
BRANCH   4  11
ATOM     11  C   UNL d   1      60.158  49.702  50.700  0.00  0.00     0.259 C 
ATOM     12  O   UNL d   1      60.676  49.707  50.068  0.00  0.00    -0.281 OA
ENDBRANCH   4  11
TORSDOF 1
ENDMDL
MODEL 2
REMARK VINA RESULT:      13.6      1.902      3.146
REMARK  1 active torsions:
REMARK  status: ('A' for Active; 'I' for Inactive)
REMARK    1  A    between atoms: C_11  and  C_4 
ROOT
ATOM      1  O   UNL d   1      58.381  49.672  50.067  0.00  0.00    -0.304 OA
ATOM      2  C   UNL d   1      59.050  49.698  51.228  0.00  0.00     0.025 A 
ATOM      3  C   UNL d   1      58.236  49.708  51.394  0.00  0.00     0.030 A 
ATOM      4  C   UNL d   1      57.824  49.692  50.679  0.00  0.00     0.142 A 
ATOM      5  C   UNL d   1      59.130  49.675  50.407  0.00  0.00     0.100 A 
ATOM      6  C   UNL d   1      59.705  49.706  51.713  0.00  0.00     0.009 A 
ATOM      7  C   UNL d   1      59.882  49.661  50.070  0.00  0.00     0.025 A 
ATOM      8  C   UNL d   1      60.466  49.692  51.384  0.00  0.00     0.035 A 
ATOM      9  C   UNL d   1      60.553  49.669  50.559  0.00  0.00     0.009 A 
ATOM     10 BR   UNL d   1      61.133  49.700  51.867  0.00  0.00    -0.049 Br
ENDROOT
BRANCH   4  11
ATOM     11  C   UNL d   1      57.005  49.695  50.589  0.00  0.00     0.259 C 
ATOM     12  O   UNL d   1      56.676  49.645  49.843  0.00  0.00    -0.281 OA
ENDBRANCH   4  11
TORSDOF 1
ENDMDL
MODEL 3
REMARK VINA RESULT:      14.1      0.964      1.628
REMARK  1 active torsions:
REMARK  status: ('A' for Active; 'I' for Inactive)
REMARK    1  A    between atoms: C_11  and  C_4 
ROOT
ATOM      1  O   UNL d   1      60.151  49.692  50.303  0.00  0.00    -0.304 OA
ATOM      2  C   UNL d   1      59.000  49.702  50.990  0.00  0.00     0.025 A 
ATOM      3  C   UNL d   1      59.629  49.705  51.532  0.00  0.00     0.030 A 
ATOM      4  C   UNL d   1      60.337  49.699  51.110  0.00  0.00     0.142 A 
ATOM      5  C   UNL d   1      59.331  49.694  50.234  0.00  0.00     0.100 A 
ATOM      6  C   UNL d   1      58.192  49.706  51.092  0.00  0.00     0.009 A 
ATOM      7  C   UNL d   1      58.841  49.690  49.572  0.00  0.00     0.025 A 
ATOM      8  C   UNL d   1      57.688  49.701  50.433  0.00  0.00     0.035 A 
ATOM      9  C   UNL d   1      58.016  49.693  49.671  0.00  0.00     0.009 A 
ATOM     10 BR   UNL d   1      56.871  49.705  50.528  0.00  0.00    -0.049 Br
ENDROOT
BRANCH   4  11
ATOM     11  C   UNL d   1      61.096  49.699  51.431  0.00  0.00     0.259 C 
ATOM     12  O   UNL d   1      61.208  49.492  52.214  0.00  0.00    -0.281 OA
ENDBRANCH   4  11
TORSDOF 1
ENDMDL
