MODEL 1
REMARK VINA RESULT:      82.1      0.000      0.000
REMARK  3 active torsions:
REMARK  status: ('A' for Active; 'I' for Inactive)
REMARK       I    between atoms: N_3  and  C_1 
REMARK       I    between atoms: N_5  and  C_1 
REMARK    1  A    between atoms: C_2  and  O_6 
REMARK       I    between atoms: N_4  and  C_2 
REMARK    2  A    between atoms: C_10  and  N_5 
REMARK    3  A    between atoms: O_6  and  C_11 
ROOT
ATOM      1  C   UNL d   1      61.210  47.465  50.354  0.00  0.00     0.086 A 
ATOM      2  C   UNL d   1      60.490  48.885  50.787  0.00  0.00     0.105 A 
ATOM      3  C   UNL d   1      60.478  47.462  50.768  0.00  0.00     0.021 A 
ATOM      4  C   UNL d   1      61.570  48.199  50.164  0.00  0.00     0.021 A 
ATOM      5  C   UNL d   1      60.123  48.161  50.981  0.00  0.00     0.026 A 
ATOM      6  C   UNL d   1      61.216  48.899  50.377  0.00  0.00     0.026 A 
ENDROOT
BRANCH   1   7
ATOM      7  N   UNL d   1      61.564  46.766  50.141  0.00  0.00    -0.192 NA
ATOM      8  C   UNL d   1      61.178  46.049  50.231  0.00  0.00     0.354 C 
ATOM      9  N   UNL d   1      61.538  45.339  50.015  0.00  0.00    -0.252 N 
ATOM     10  O   UNL d   1      60.401  46.051  50.551  0.00  0.00    -0.244 OA
ATOM     11  C   UNL d   1      61.127  44.620  50.114  0.00  0.00     0.111 A 
ATOM     12  C   UNL d   1      62.306  45.331  49.698  0.00  0.00     0.111 A 
ATOM     13  C   UNL d   1      61.492  43.900  49.895  0.00  0.00     0.142 A 
ATOM     14  O   UNL d   1      62.264  43.908  49.578  0.00  0.00    -0.300 OA
ATOM     15  C   UNL d   1      62.666  44.621  49.482  0.00  0.00     0.142 A 
ENDBRANCH   1   7
BRANCH   2  16
ATOM     16  O   UNL d   1      60.130  49.595  51.003  0.00  0.00    -0.259 OA
BRANCH  16  17
ATOM     17  C   UNL d   1      59.493  49.593  51.526  0.00  0.00     0.377 C 
ATOM     18  N   UNL d   1      58.721  49.629  51.238  0.00  0.00    -0.252 N 
ATOM     19  C   UNL d   1      58.086  49.627  51.761  0.00  0.00     0.085 A 
ATOM     20  C   UNL d   1      58.585  49.666  50.427  0.00  0.00     0.085 A 
ATOM     21  C   UNL d   1      57.312  49.662  51.477  0.00  0.00     0.019 A 
ATOM     22  C   UNL d   1      57.175  49.700  50.666  0.00  0.00     0.003 A 
ATOM     23  C   UNL d   1      57.809  49.702  50.138  0.00  0.00     0.019 A 
ATOM     24  O   UNL d   1      59.626  49.556  52.336  0.00  0.00    -0.237 OA
ENDBRANCH  16  17
ENDBRANCH   2  16
TORSDOF 3
ENDMDL
