MODEL 1
REMARK VINA RESULT:      -0.6      0.000      0.000
REMARK  4 active torsions:
REMARK  status: ('A' for Active; 'I' for Inactive)
REMARK    1  A    between atoms: N_2  and  S_1 
REMARK    2  A    between atoms: C_3  and  S_1 
REMARK    3  A    between atoms: O_19  and  C_14 
REMARK    4  A    between atoms: O_20  and  C_17 
ROOT
ATOM      1  S   UNL d   1      32.666  17.717 -23.572  0.00  0.00     0.275 S 
ATOM      2  O   UNL d   1      33.026  17.277 -22.879  0.00  0.00    -0.199 OA
ATOM      3  O   UNL d   1      32.304  18.160 -24.268  0.00  0.00    -0.199 OA
ENDROOT
BRANCH   1   4
ATOM      4  N   UNL d   1      32.477  16.932 -23.954  0.00  0.00    -0.212 N 
ATOM      5  C   UNL d   1      31.710  16.693 -24.047  0.00  0.00     0.094 A 
ATOM      6  C   UNL d   1      31.538  15.976 -24.396  0.00  0.00     0.100 A 
ATOM      7  C   UNL d   1      31.111  17.179 -23.788  0.00  0.00     0.020 A 
ATOM      8  C   UNL d   1      30.761  15.744 -24.486  0.00  0.00     0.021 A 
ATOM      9  N   UNL d   1      32.910  15.727 -24.563  0.00  0.00    -0.223 NA
ATOM     10  C   UNL d   1      30.153  16.226 -24.228  0.00  0.00     0.002 A 
ATOM     11  C   UNL d   1      30.326  16.943 -23.879  0.00  0.00     0.002 A 
ATOM     12  C   UNL d   1      29.372  15.995 -24.317  0.00  0.00     0.000 C 
ATOM     13  C   UNL d   1      29.725  17.433 -23.618  0.00  0.00     0.000 C 
ATOM     14  C   UNL d   1      33.083  16.444 -24.214  0.00  0.00     0.193 A 
ENDBRANCH   1   4
BRANCH   1  15
ATOM     15  C   UNL d   1      32.856  18.502 -23.186  0.00  0.00     0.128 A 
ATOM     16  C   UNL d   1      32.855  18.585 -22.287  0.00  0.00     0.039 A 
ATOM     17  C   UNL d   1      33.046  19.374 -21.909  0.00  0.00     0.095 A 
ATOM     18  C   UNL d   1      33.238  20.078 -22.421  0.00  0.00     0.026 A 
ATOM     19  C   UNL d   1      33.241  20.001 -23.314  0.00  0.00     0.027 A 
ATOM     20  C   UNL d   1      33.049  19.213 -23.686  0.00  0.00     0.106 A 
BRANCH  17  21
ATOM     21  O   UNL d   1      33.046  19.461 -21.024  0.00  0.00    -0.328 OA
ATOM     22  C   UNL d   1      33.222  20.271 -20.657  0.00  0.00     0.181 C 
ENDBRANCH  17  21
BRANCH  20  23
ATOM     23  O   UNL d   1      33.050  19.128 -24.584  0.00  0.00    -0.327 OA
ATOM     24  C   UNL d   1      32.996  19.868 -25.096  0.00  0.00     0.181 C 
ENDBRANCH  20  23
ENDBRANCH   1  15
TORSDOF 4
ENDMDL
MODEL 2
REMARK VINA RESULT:      -0.2      1.267      3.981
REMARK  4 active torsions:
REMARK  status: ('A' for Active; 'I' for Inactive)
REMARK    1  A    between atoms: N_2  and  S_1 
REMARK    2  A    between atoms: C_3  and  S_1 
REMARK    3  A    between atoms: O_19  and  C_14 
REMARK    4  A    between atoms: O_20  and  C_17 
ROOT
ATOM      1  S   UNL d   1      32.098  17.779 -24.063  0.00  0.00     0.275 S 
ATOM      2  O   UNL d   1      31.413  18.081 -24.555  0.00  0.00    -0.199 OA
ATOM      3  O   UNL d   1      32.786  17.473 -23.568  0.00  0.00    -0.199 OA
ENDROOT
BRANCH   1   4
ATOM      4  N   UNL d   1      32.523  18.551 -24.207  0.00  0.00    -0.212 N 
ATOM      5  C   UNL d   1      32.689  19.050 -23.592  0.00  0.00     0.094 A 
ATOM      6  C   UNL d   1      33.078  19.755 -23.723  0.00  0.00     0.100 A 
ATOM      7  C   UNL d   1      32.463  18.838 -22.840  0.00  0.00     0.020 A 
ATOM      8  C   UNL d   1      33.240  20.251 -23.097  0.00  0.00     0.021 A 
ATOM      9  N   UNL d   1      33.138  19.467 -25.097  0.00  0.00    -0.223 NA
ATOM     10  C   UNL d   1      33.016  20.046 -22.338  0.00  0.00     0.002 A 
ATOM     11  C   UNL d   1      32.628  19.341 -22.207  0.00  0.00     0.002 A 
ATOM     12  C   UNL d   1      33.179  20.543 -21.707  0.00  0.00     0.000 C 
ATOM     13  C   UNL d   1      32.400  19.127 -21.452  0.00  0.00     0.000 C 
ATOM     14  C   UNL d   1      32.750  18.761 -24.966  0.00  0.00     0.193 A 
ENDBRANCH   1   4
BRANCH   1  15
ATOM     15  C   UNL d   1      31.669  17.006 -23.921  0.00  0.00     0.128 A 
ATOM     16  C   UNL d   1      30.846  16.997 -23.549  0.00  0.00     0.039 A 
ATOM     17  C   UNL d   1      30.424  16.221 -23.410  0.00  0.00     0.095 A 
ATOM     18  C   UNL d   1      30.816  15.453 -23.639  0.00  0.00     0.026 A 
ATOM     19  C   UNL d   1      31.633  15.455 -24.008  0.00  0.00     0.027 A 
ATOM     20  C   UNL d   1      32.050  16.233 -24.145  0.00  0.00     0.106 A 
BRANCH  17  21
ATOM     21  O   UNL d   1      29.613  16.207 -23.045  0.00  0.00    -0.328 OA
ATOM     22  C   UNL d   1      29.046  15.529 -23.245  0.00  0.00     0.181 C 
ENDBRANCH  17  21
BRANCH  20  23
ATOM     23  O   UNL d   1      32.872  16.242 -24.516  0.00  0.00    -0.327 OA
ATOM     24  C   UNL d   1      33.237  15.468 -24.797  0.00  0.00     0.181 C 
ENDBRANCH  20  23
ENDBRANCH   1  15
TORSDOF 4
ENDMDL
MODEL 3
REMARK VINA RESULT:       0.5      2.025      2.821
REMARK  4 active torsions:
REMARK  status: ('A' for Active; 'I' for Inactive)
REMARK    1  A    between atoms: N_2  and  S_1 
REMARK    2  A    between atoms: C_3  and  S_1 
REMARK    3  A    between atoms: O_19  and  C_14 
REMARK    4  A    between atoms: O_20  and  C_17 
ROOT
ATOM      1  S   UNL d   1      30.606  17.356 -24.165  0.00  0.00     0.275 S 
ATOM      2  O   UNL d   1      30.656  16.568 -24.588  0.00  0.00    -0.199 OA
ATOM      3  O   UNL d   1      30.557  18.149 -23.740  0.00  0.00    -0.199 OA
ENDROOT
BRANCH   1   4
ATOM      4  N   UNL d   1      29.731  17.380 -24.344  0.00  0.00    -0.212 N 
ATOM      5  C   UNL d   1      29.213  16.915 -23.932  0.00  0.00     0.094 A 
ATOM      6  C   UNL d   1      28.414  16.937 -24.096  0.00  0.00     0.100 A 
ATOM      7  C   UNL d   1      29.502  16.424 -23.351  0.00  0.00     0.020 A 
ATOM      8  C   UNL d   1      27.901  16.464 -23.675  0.00  0.00     0.021 A 
ATOM      9  N   UNL d   1      28.645  17.898 -25.094  0.00  0.00    -0.223 NA
ATOM     10  C   UNL d   1      28.182  15.967 -23.089  0.00  0.00     0.002 A 
ATOM     11  C   UNL d   1      28.981  15.945 -22.926  0.00  0.00     0.002 A 
ATOM     12  C   UNL d   1      27.667  15.491 -22.664  0.00  0.00     0.000 C 
ATOM     13  C   UNL d   1      29.272  15.453 -22.342  0.00  0.00     0.000 C 
ATOM     14  C   UNL d   1      29.444  17.877 -24.931  0.00  0.00     0.193 A 
ENDBRANCH   1   4
BRANCH   1  15
ATOM     15  C   UNL d   1      31.482  17.330 -23.988  0.00  0.00     0.128 A 
ATOM     16  C   UNL d   1      31.839  16.635 -23.533  0.00  0.00     0.039 A 
ATOM     17  C   UNL d   1      32.717  16.615 -23.359  0.00  0.00     0.095 A 
ATOM     18  C   UNL d   1      33.241  17.282 -23.635  0.00  0.00     0.026 A 
ATOM     19  C   UNL d   1      32.892  17.974 -24.086  0.00  0.00     0.027 A 
ATOM     20  C   UNL d   1      32.016  17.990 -24.257  0.00  0.00     0.106 A 
BRANCH  17  21
ATOM     21  O   UNL d   1      33.073  15.934 -22.912  0.00  0.00    -0.328 OA
ATOM     22  C   UNL d   1      33.110  15.966 -22.007  0.00  0.00     0.181 C 
ENDBRANCH  17  21
BRANCH  20  23
ATOM     23  O   UNL d   1      31.659  18.683 -24.711  0.00  0.00    -0.327 OA
ATOM     24  C   UNL d   1      32.205  19.312 -25.052  0.00  0.00     0.181 C 
ENDBRANCH  20  23
ENDBRANCH   1  15
TORSDOF 4
ENDMDL
MODEL 4
REMARK VINA RESULT:       1.2      2.093      4.433
REMARK  4 active torsions:
REMARK  status: ('A' for Active; 'I' for Inactive)
REMARK    1  A    between atoms: N_2  and  S_1 
REMARK    2  A    between atoms: C_3  and  S_1 
REMARK    3  A    between atoms: O_19  and  C_14 
REMARK    4  A    between atoms: O_20  and  C_17 
ROOT
ATOM      1  S   UNL d   1      31.002  15.909 -23.779  0.00  0.00     0.275 S 
ATOM      2  O   UNL d   1      31.006  15.584 -24.614  0.00  0.00    -0.199 OA
ATOM      3  O   UNL d   1      30.997  16.235 -22.939  0.00  0.00    -0.199 OA
ENDROOT
BRANCH   1   4
ATOM      4  N   UNL d   1      31.880  16.059 -23.849  0.00  0.00    -0.212 N 
ATOM      5  C   UNL d   1      32.158  16.791 -24.052  0.00  0.00     0.094 A 
ATOM      6  C   UNL d   1      32.960  16.928 -24.115  0.00  0.00     0.100 A 
ATOM      7  C   UNL d   1      31.625  17.390 -24.191  0.00  0.00     0.020 A 
ATOM      8  C   UNL d   1      33.230  17.669 -24.320  0.00  0.00     0.021 A 
ATOM      9  N   UNL d   1      33.216  15.590 -23.771  0.00  0.00    -0.223 NA
ATOM     10  C   UNL d   1      32.702  18.277 -24.463  0.00  0.00     0.002 A 
ATOM     11  C   UNL d   1      31.900  18.140 -24.399  0.00  0.00     0.002 A 
ATOM     12  C   UNL d   1      32.971  19.023 -24.669  0.00  0.00     0.000 C 
ATOM     13  C   UNL d   1      31.364  18.741 -24.539  0.00  0.00     0.000 C 
ATOM     14  C   UNL d   1      32.414  15.453 -23.708  0.00  0.00     0.193 A 
ENDBRANCH   1   4
BRANCH   1  15
ATOM     15  C   UNL d   1      30.123  15.757 -23.712  0.00  0.00     0.128 A 
ATOM     16  C   UNL d   1      29.601  15.742 -24.449  0.00  0.00     0.039 A 
ATOM     17  C   UNL d   1      28.722  15.590 -24.374  0.00  0.00     0.095 A 
ATOM     18  C   UNL d   1      28.360  15.453 -23.570  0.00  0.00     0.026 A 
ATOM     19  C   UNL d   1      28.873  15.467 -22.835  0.00  0.00     0.027 A 
ATOM     20  C   UNL d   1      29.750  15.619 -22.915  0.00  0.00     0.106 A 
BRANCH  17  21
ATOM     21  O   UNL d   1      28.204  15.574 -25.097  0.00  0.00    -0.328 OA
ATOM     22  C   UNL d   1      27.308  15.476 -25.000  0.00  0.00     0.181 C 
ENDBRANCH  17  21
BRANCH  20  23
ATOM     23  O   UNL d   1      30.272  15.634 -22.180  0.00  0.00    -0.327 OA
ATOM     24  C   UNL d   1      29.904  15.462 -21.376  0.00  0.00     0.181 C 
ENDBRANCH  20  23
ENDBRANCH   1  15
TORSDOF 4
ENDMDL
