MODEL 1
REMARK VINA RESULT:     121.4      0.000      0.000
REMARK  3 active torsions:
REMARK  status: ('A' for Active; 'I' for Inactive)
REMARK    1  A    between atoms: C_2  and  C_1 
REMARK    2  A    between atoms: C_3  and  C_2 
REMARK       I    between atoms: N_5  and  C_3 
REMARK    3  A    between atoms: C_10  and  N_8 
ROOT
ATOM      1  C   UNL d   1     -55.464-100.452 -42.970  0.00  0.00     0.304 C 
ATOM      2  N   UNL d   1     -56.110-100.230 -43.429  0.00  0.00    -0.266 N 
ATOM      3  N   UNL d   1     -57.406 -99.785 -44.355  0.00  0.00    -0.301 N 
ATOM      4  O   UNL d   1     -54.744-100.623 -43.330  0.00  0.00    -0.263 OA
ATOM      5  C   UNL d   1     -56.036-100.180 -44.248  0.00  0.00     0.102 A 
ATOM      6  C   UNL d   1     -56.826-100.060 -43.064  0.00  0.00     0.102 A 
ATOM      7  C   UNL d   1     -57.471 -99.839 -43.527  0.00  0.00     0.100 A 
ATOM      8  C   UNL d   1     -56.677 -99.959 -44.711  0.00  0.00     0.100 A 
ENDROOT
BRANCH   1   9
ATOM      9  C   UNL d   1     -55.538-100.503 -42.144  0.00  0.00     0.253 C 
ATOM     10  O   UNL d   1     -55.677 -99.818 -41.702  0.00  0.00    -0.281 OA
BRANCH   9  11
ATOM     11  C   UNL d   1     -55.472-101.231 -41.772  0.00  0.00     0.064 A 
ATOM     12  C   UNL d   1     -55.648-101.971 -42.094  0.00  0.00     0.102 A 
ATOM     13  N   UNL d   1     -55.503-102.551 -41.529  0.00  0.00    -0.244 NA
ATOM     14  C   UNL d   1     -55.234-102.172 -40.847  0.00  0.00     0.082 A 
ATOM     15  C   UNL d   1     -55.215-101.358 -40.997  0.00  0.00     0.022 A 
ATOM     16  C   UNL d   1     -55.005-102.461 -40.111  0.00  0.00     0.019 A 
ATOM     17  C   UNL d   1     -54.967-100.838 -40.409  0.00  0.00     0.002 A 
ATOM     18  C   UNL d   1     -54.736-101.132 -39.665  0.00  0.00     0.000 A 
ATOM     19  C   UNL d   1     -54.757-101.941 -39.524  0.00  0.00     0.002 A 
ENDBRANCH   9  11
ENDBRANCH   1   9
BRANCH   3  20
ATOM     20  C   UNL d   1     -58.043 -99.565 -44.818  0.00  0.00     0.064 A 
ATOM     21  C   UNL d   1     -58.787 -99.895 -44.690  0.00  0.00     0.020 A 
ATOM     22  C   UNL d   1     -59.426 -99.664 -45.166  0.00  0.00     0.031 A 
ATOM     23  C   UNL d   1     -59.319 -99.105 -45.768  0.00  0.00     0.140 A 
ATOM     24  C   UNL d   1     -58.567 -98.774 -45.895  0.00  0.00     0.031 A 
ATOM     25  F   UNL d   1     -59.959 -98.881 -46.237  0.00  0.00    -0.204 F 
ATOM     26  C   UNL d   1     -57.937 -99.004 -45.422  0.00  0.00     0.020 A 
ENDBRANCH   3  20
TORSDOF 3
ENDMDL
