MODEL 1
REMARK VINA RESULT:      -6.9      0.000      0.000
REMARK  3 active torsions:
REMARK  status: ('A' for Active; 'I' for Inactive)
REMARK    1  A    between atoms: N_3  and  S_1 
REMARK    2  A    between atoms: C_10  and  S_1 
REMARK    3  A    between atoms: C_2  and  N_3 
ROOT
ATOM      1  N   UNL d   1     -41.541-122.681 -52.082  0.00  0.00     0.034 NA
ENDROOT
BRANCH   1   2
ATOM      2  C   UNL d   1     -41.629-122.559 -52.892  0.00  0.00     0.760 A 
ATOM      3  N   UNL d   1     -42.200-122.094 -53.268  0.00  0.00    -0.057 NA
ATOM      4  C   UNL d   1     -42.088-122.126 -54.064  0.00  0.00     0.118 A 
ATOM      5  C   UNL d   1     -42.489-121.775 -54.693  0.00  0.00     0.021 A 
ATOM      6  C   UNL d   1     -41.440-122.616 -54.208  0.00  0.00     0.118 A 
ATOM      7  C   UNL d   1     -42.239-121.918 -55.442  0.00  0.00     0.002 A 
ATOM      8  C   UNL d   1     -41.590-122.407 -55.587  0.00  0.00     0.002 A 
ATOM      9  C   UNL d   1     -41.193-122.754 -54.982  0.00  0.00     0.021 A 
ATOM     10  N   UNL d   1     -41.162-122.878 -53.499  0.00  0.00    -0.057 NA
ENDBRANCH   1   2
BRANCH   1  11
ATOM     11  S   UNL d   1     -41.354-122.048 -51.587  0.00  0.00     0.300 S 
ATOM     12  O   UNL d   1     -41.165-121.410 -51.092  0.00  0.00    -0.198 OA
ATOM     13  O   UNL d   1     -41.123-121.603 -52.243  0.00  0.00    -0.198 OA
BRANCH  11  14
ATOM     14  C   UNL d   1     -41.584-122.493 -50.931  0.00  0.00     0.106 A 
ATOM     15  C   UNL d   1     -41.150-123.159 -50.712  0.00  0.00     0.013 A 
ATOM     16  C   UNL d   1     -41.381-123.606 -50.055  0.00  0.00     0.001 A 
ATOM     17  C   UNL d   1     -42.045-123.384 -49.618  0.00  0.00     0.000 A 
ATOM     18  C   UNL d   1     -42.455-122.723 -49.855  0.00  0.00     0.001 A 
ATOM     19  C   UNL d   1     -42.248-122.271 -50.494  0.00  0.00     0.013 A 
ENDBRANCH  11  14
ENDBRANCH   1  11
TORSDOF 3
ENDMDL
MODEL 2
REMARK VINA RESULT:      -5.9      1.152      4.002
REMARK  3 active torsions:
REMARK  status: ('A' for Active; 'I' for Inactive)
REMARK    1  A    between atoms: N_3  and  S_1 
REMARK    2  A    between atoms: C_10  and  S_1 
REMARK    3  A    between atoms: C_2  and  N_3 
ROOT
ATOM      1  N   UNL d   1     -41.572-122.557 -53.226  0.00  0.00     0.034 NA
ENDROOT
BRANCH   1   2
ATOM      2  C   UNL d   1     -41.631-122.601 -52.405  0.00  0.00     0.760 A 
ATOM      3  N   UNL d   1     -42.184-122.221 -51.923  0.00  0.00    -0.057 NA
ATOM      4  C   UNL d   1     -42.045-122.414 -51.155  0.00  0.00     0.118 A 
ATOM      5  C   UNL d   1     -42.421-122.197 -50.453  0.00  0.00     0.021 A 
ATOM      6  C   UNL d   1     -41.398-122.925 -51.136  0.00  0.00     0.118 A 
ATOM      7  C   UNL d   1     -42.146-122.489 -49.758  0.00  0.00     0.002 A 
ATOM      8  C   UNL d   1     -41.498-123.000 -49.739  0.00  0.00     0.002 A 
ATOM      9  C   UNL d   1     -41.125-123.218 -50.415  0.00  0.00     0.021 A 
ATOM     10  N   UNL d   1     -41.147-123.038 -51.893  0.00  0.00    -0.057 NA
ENDBRANCH   1   2
BRANCH   1  11
ATOM     11  S   UNL d   1     -41.835-123.185 -53.693  0.00  0.00     0.300 S 
ATOM     12  O   UNL d   1     -42.099-123.817 -54.160  0.00  0.00    -0.198 OA
ATOM     13  O   UNL d   1     -41.821-123.681 -53.033  0.00  0.00    -0.198 OA
BRANCH  11  14
ATOM     14  C   UNL d   1     -41.849-122.689 -54.353  0.00  0.00     0.106 A 
ATOM     15  C   UNL d   1     -41.149-122.516 -54.753  0.00  0.00     0.013 A 
ATOM     16  C   UNL d   1     -41.162-122.019 -55.414  0.00  0.00     0.001 A 
ATOM     17  C   UNL d   1     -41.876-121.696 -55.672  0.00  0.00     0.000 A 
ATOM     18  C   UNL d   1     -42.551-121.881 -55.260  0.00  0.00     0.001 A 
ATOM     19  C   UNL d   1     -42.563-122.365 -54.611  0.00  0.00     0.013 A 
ENDBRANCH  11  14
ENDBRANCH   1  11
TORSDOF 3
ENDMDL
MODEL 3
REMARK VINA RESULT:      -5.9      0.746      4.067
REMARK  3 active torsions:
REMARK  status: ('A' for Active; 'I' for Inactive)
REMARK    1  A    between atoms: N_3  and  S_1 
REMARK    2  A    between atoms: C_10  and  S_1 
REMARK    3  A    between atoms: C_2  and  N_3 
ROOT
ATOM      1  N   UNL d   1     -41.650-122.796 -52.314  0.00  0.00     0.034 NA
ENDROOT
BRANCH   1   2
ATOM      2  C   UNL d   1     -41.721-122.913 -51.501  0.00  0.00     0.760 A 
ATOM      3  N   UNL d   1     -41.191-123.308 -51.006  0.00  0.00    -0.057 NA
ATOM      4  C   UNL d   1     -41.471-123.295 -50.251  0.00  0.00     0.118 A 
ATOM      5  C   UNL d   1     -41.174-123.599 -49.545  0.00  0.00     0.021 A 
ATOM      6  C   UNL d   1     -42.189-122.888 -50.256  0.00  0.00     0.118 A 
ATOM      7  C   UNL d   1     -41.592-123.493 -48.869  0.00  0.00     0.002 A 
ATOM      8  C   UNL d   1     -42.310-123.087 -48.873  0.00  0.00     0.002 A 
ATOM      9  C   UNL d   1     -42.609-122.786 -49.554  0.00  0.00     0.021 A 
ATOM     10  N   UNL d   1     -42.341-122.657 -51.013  0.00  0.00    -0.057 NA
ENDBRANCH   1   2
BRANCH   1  11
ATOM     11  S   UNL d   1     -41.387-122.070 -52.605  0.00  0.00     0.300 S 
ATOM     12  O   UNL d   1     -41.123-121.340 -52.895  0.00  0.00    -0.198 OA
ATOM     13  O   UNL d   1     -41.239-121.815 -51.835  0.00  0.00    -0.198 OA
BRANCH  11  14
ATOM     14  C   UNL d   1     -41.535-122.326 -53.376  0.00  0.00     0.106 A 
ATOM     15  C   UNL d   1     -42.095-121.936 -53.839  0.00  0.00     0.013 A 
ATOM     16  C   UNL d   1     -42.244-122.191 -54.612  0.00  0.00     0.001 A 
ATOM     17  C   UNL d   1     -41.832-122.837 -54.919  0.00  0.00     0.000 A 
ATOM     18  C   UNL d   1     -41.285-123.204 -54.442  0.00  0.00     0.001 A 
ATOM     19  C   UNL d   1     -41.123-122.971 -53.683  0.00  0.00     0.013 A 
ENDBRANCH  11  14
ENDBRANCH   1  11
TORSDOF 3
ENDMDL
