MODEL 1
REMARK VINA RESULT:      26.4      0.000      0.000
REMARK  1 active torsions:
REMARK  status: ('A' for Active; 'I' for Inactive)
REMARK    1  A    between atoms: C_11  and  C_4 
ROOT
ATOM      1  N   UNL d   1     -51.546  25.432  33.310  0.00  0.00    -0.242 NA
ATOM      2  C   UNL d   1     -52.139  24.875  33.309  0.00  0.00     0.099 A 
ATOM      3  N   UNL d   1     -51.182  23.825  33.309  0.00  0.00    -0.241 NA
ATOM      4  C   UNL d   1     -50.773  25.184  33.310  0.00  0.00     0.101 A 
ATOM      5  C   UNL d   1     -51.957  24.070  33.309  0.00  0.00     0.099 A 
ATOM      6  C   UNL d   1     -52.919  25.122  33.308  0.00  0.00     0.021 A 
ATOM      7  C   UNL d   1     -53.541  24.557  33.307  0.00  0.00     0.002 A 
ATOM      8  C   UNL d   1     -53.358  23.753  33.307  0.00  0.00     0.002 A 
ATOM      9  C   UNL d   1     -52.555  23.514  33.308  0.00  0.00     0.021 A 
ATOM     10  C   UNL d   1     -50.591  24.379  33.310  0.00  0.00     0.118 A 
ATOM     11  C   UNL d   1     -54.340  24.800  33.307  0.00  0.00     0.000 C 
ATOM     12  C   UNL d   1     -53.976  23.192  33.306  0.00  0.00     0.000 C 
ENDROOT
BRANCH   4  13
ATOM     13  C   UNL d   1     -50.177  25.742  33.311  0.00  0.00     0.019 A 
ATOM     14  C   UNL d   1     -49.391  25.510  33.314  0.00  0.00     0.002 A 
ATOM     15  C   UNL d   1     -48.761  26.082  33.315  0.00  0.00     0.000 A 
ATOM     16  C   UNL d   1     -48.987  26.880  33.312  0.00  0.00     0.000 A 
ATOM     17  C   UNL d   1     -49.773  27.112  33.309  0.00  0.00     0.000 A 
ATOM     18  C   UNL d   1     -50.368  26.556  33.309  0.00  0.00     0.002 A 
ENDBRANCH   4  13
TORSDOF 1
ENDMDL
MODEL 2
REMARK VINA RESULT:      27.7      0.774      4.056
REMARK  1 active torsions:
REMARK  status: ('A' for Active; 'I' for Inactive)
REMARK    1  A    between atoms: C_11  and  C_4 
ROOT
ATOM      1  N   UNL d   1     -51.314  25.433  33.376  0.00  0.00    -0.242 NA
ATOM      2  C   UNL d   1     -50.951  26.162  33.376  0.00  0.00     0.099 A 
ATOM      3  N   UNL d   1     -52.211  26.814  33.306  0.00  0.00    -0.241 NA
ATOM      4  C   UNL d   1     -52.125  25.398  33.341  0.00  0.00     0.101 A 
ATOM      5  C   UNL d   1     -51.400  26.853  33.340  0.00  0.00     0.099 A 
ATOM      6  C   UNL d   1     -50.134  26.200  33.410  0.00  0.00     0.021 A 
ATOM      7  C   UNL d   1     -49.747  26.945  33.411  0.00  0.00     0.002 A 
ATOM      8  C   UNL d   1     -50.196  27.636  33.376  0.00  0.00     0.002 A 
ATOM      9  C   UNL d   1     -51.031  27.581  33.340  0.00  0.00     0.021 A 
ATOM     10  C   UNL d   1     -52.573  26.089  33.306  0.00  0.00     0.118 A 
ATOM     11  C   UNL d   1     -48.914  26.995  33.446  0.00  0.00     0.000 C 
ATOM     12  C   UNL d   1     -49.810  28.376  33.376  0.00  0.00     0.000 C 
ENDROOT
BRANCH   4  13
ATOM     13  C   UNL d   1     -52.490  24.668  33.342  0.00  0.00     0.019 A 
ATOM     14  C   UNL d   1     -53.308  24.613  33.369  0.00  0.00     0.002 A 
ATOM     15  C   UNL d   1     -53.700  23.858  33.370  0.00  0.00     0.000 A 
ATOM     16  C   UNL d   1     -53.213  23.188  33.342  0.00  0.00     0.000 A 
ATOM     17  C   UNL d   1     -52.395  23.243  33.315  0.00  0.00     0.000 A 
ATOM     18  C   UNL d   1     -52.030  23.970  33.314  0.00  0.00     0.002 A 
ENDBRANCH   4  13
TORSDOF 1
ENDMDL
