MODEL 1
REMARK VINA RESULT:       0.3      0.000      0.000
REMARK  3 active torsions:
REMARK  status: ('A' for Active; 'I' for Inactive)
REMARK    1  A    between atoms: C_5  and  C_2 
REMARK    2  A    between atoms: C_10  and  C_4 
REMARK    3  A    between atoms: O_19  and  C_16 
ROOT
ATOM      1  N   UNL d   1      32.627  21.473 -19.898  0.00  0.00    -0.245 NA
ATOM      2  C   UNL d   1      32.607  21.283 -20.690  0.00  0.00     0.088 A 
ATOM      3  S   UNL d   1      32.603  23.121 -20.760  0.00  0.00    -0.085 SA
ATOM      4  C   UNL d   1      32.587  22.619 -21.388  0.00  0.00     0.031 A 
ATOM      5  C   UNL d   1      32.589  21.780 -21.358  0.00  0.00     0.026 A 
ATOM      6  C   UNL d   1      32.635  22.227 -19.580  0.00  0.00     0.087 A 
ATOM      7  C   UNL d   1      32.624  22.957 -19.962  0.00  0.00     0.047 A 
ATOM      8  C   UNL d   1      32.656  22.210 -18.761  0.00  0.00     0.020 A 
ATOM      9  C   UNL d   1      32.635  23.674 -19.526  0.00  0.00     0.008 A 
ATOM     10  C   UNL d   1      32.667  22.888 -18.316  0.00  0.00     0.002 A 
ATOM     11  C   UNL d   1      32.656  23.618 -18.698  0.00  0.00     0.001 A 
ENDROOT
BRANCH   4  12
ATOM     12  C   UNL d   1      32.566  22.887 -22.155  0.00  0.00     0.006 A 
ATOM     13  C   UNL d   1      31.861  23.218 -22.455  0.00  0.00     0.003 A 
ATOM     14  C   UNL d   1      31.840  23.486 -23.220  0.00  0.00     0.024 A 
ATOM     15  C   UNL d   1      32.514  23.430 -23.695  0.00  0.00     0.094 A 
ATOM     16  C   UNL d   1      33.205  23.108 -23.406  0.00  0.00     0.024 A 
ATOM     17  C   UNL d   1      33.241  22.831 -22.628  0.00  0.00     0.003 A 
BRANCH  15  18
ATOM     18  O   UNL d   1      32.512  23.702 -24.489  0.00  0.00    -0.328 OA
ATOM     19  C   UNL d   1      33.017  23.361 -25.057  0.00  0.00     0.181 C 
ENDBRANCH  15  18
ENDBRANCH   4  12
BRANCH   2  20
ATOM     20  C   UNL d   1      32.591  20.694 -21.305  0.00  0.00     0.047 A 
ATOM     21  S   UNL d   1      33.234  20.206 -21.427  0.00  0.00    -0.085 SA
ATOM     22  C   UNL d   1      33.038  19.709 -22.055  0.00  0.00     0.035 A 
ATOM     23  C   UNL d   1      32.293  19.876 -22.325  0.00  0.00     0.007 A 
ATOM     24  C   UNL d   1      32.015  20.484 -21.864  0.00  0.00     0.009 A 
ENDBRANCH   2  20
TORSDOF 3
ENDMDL
MODEL 2
REMARK VINA RESULT:       1.9      1.602      3.579
REMARK  3 active torsions:
REMARK  status: ('A' for Active; 'I' for Inactive)
REMARK    1  A    between atoms: C_5  and  C_2 
REMARK    2  A    between atoms: C_10  and  C_4 
REMARK    3  A    between atoms: O_19  and  C_16 
ROOT
ATOM      1  N   UNL d   1      32.958  21.468 -23.070  0.00  0.00    -0.245 NA
ATOM      2  C   UNL d   1      32.957  21.281 -22.277  0.00  0.00     0.088 A 
ATOM      3  S   UNL d   1      32.679  23.099 -22.220  0.00  0.00    -0.085 SA
ATOM      4  C   UNL d   1      32.731  22.603 -21.588  0.00  0.00     0.031 A 
ATOM      5  C   UNL d   1      32.857  21.774 -21.612  0.00  0.00     0.026 A 
ATOM      6  C   UNL d   1      32.857  22.213 -23.393  0.00  0.00     0.087 A 
ATOM      7  C   UNL d   1      32.734  22.935 -23.017  0.00  0.00     0.047 A 
ATOM      8  C   UNL d   1      32.891  22.195 -24.212  0.00  0.00     0.020 A 
ATOM      9  C   UNL d   1      32.643  23.644 -23.457  0.00  0.00     0.008 A 
ATOM     10  C   UNL d   1      32.806  22.865 -24.661  0.00  0.00     0.002 A 
ATOM     11  C   UNL d   1      32.682  23.587 -24.285  0.00  0.00     0.001 A 
ENDROOT
BRANCH   4  12
ATOM     12  C   UNL d   1      32.662  22.869 -20.824  0.00  0.00     0.006 A 
ATOM     13  C   UNL d   1      32.006  22.632 -20.364  0.00  0.00     0.003 A 
ATOM     14  C   UNL d   1      31.937  22.898 -19.601  0.00  0.00     0.024 A 
ATOM     15  C   UNL d   1      32.513  23.399 -19.286  0.00  0.00     0.094 A 
ATOM     16  C   UNL d   1      33.155  23.634 -19.730  0.00  0.00     0.024 A 
ATOM     17  C   UNL d   1      33.238  23.371 -20.510  0.00  0.00     0.003 A 
BRANCH  15  18
ATOM     18  O   UNL d   1      32.459  23.685 -18.498  0.00  0.00    -0.328 OA
ATOM     19  C   UNL d   1      33.124  23.681 -17.996  0.00  0.00     0.181 C 
ENDBRANCH  15  18
ENDBRANCH   4  12
BRANCH   2  20
ATOM     20  C   UNL d   1      33.022  20.700 -21.658  0.00  0.00     0.047 A 
ATOM     21  S   UNL d   1      33.040  19.904 -21.837  0.00  0.00    -0.085 SA
ATOM     22  C   UNL d   1      33.105  19.502 -21.121  0.00  0.00     0.035 A 
ATOM     23  C   UNL d   1      33.127  20.025 -20.504  0.00  0.00     0.007 A 
ATOM     24  C   UNL d   1      33.076  20.765 -20.832  0.00  0.00     0.009 A 
ENDBRANCH   2  20
TORSDOF 3
ENDMDL
MODEL 3
REMARK VINA RESULT:       2.1      4.804      6.261
REMARK  3 active torsions:
REMARK  status: ('A' for Active; 'I' for Inactive)
REMARK    1  A    between atoms: C_5  and  C_2 
REMARK    2  A    between atoms: C_10  and  C_4 
REMARK    3  A    between atoms: O_19  and  C_16 
ROOT
ATOM      1  N   UNL d   1      33.073  18.417 -24.157  0.00  0.00    -0.245 NA
ATOM      2  C   UNL d   1      32.717  17.702 -23.997  0.00  0.00     0.088 A 
ATOM      3  S   UNL d   1      31.305  18.664 -24.680  0.00  0.00    -0.085 SA
ATOM      4  C   UNL d   1      31.284  17.902 -24.421  0.00  0.00     0.031 A 
ATOM      5  C   UNL d   1      31.927  17.462 -24.110  0.00  0.00     0.026 A 
ATOM      6  C   UNL d   1      32.711  19.078 -24.476  0.00  0.00     0.087 A 
ATOM      7  C   UNL d   1      31.929  19.187 -24.707  0.00  0.00     0.047 A 
ATOM      8  C   UNL d   1      33.239  19.700 -24.561  0.00  0.00     0.020 A 
ATOM      9  C   UNL d   1      31.669  19.920 -25.026  0.00  0.00     0.008 A 
ATOM     10  C   UNL d   1      33.014  20.417 -24.865  0.00  0.00     0.002 A 
ATOM     11  C   UNL d   1      32.232  20.526 -25.097  0.00  0.00     0.001 A 
ENDROOT
BRANCH   4  12
ATOM     12  C   UNL d   1      30.603  17.460 -24.437  0.00  0.00     0.006 A 
ATOM     13  C   UNL d   1      30.081  17.486 -23.785  0.00  0.00     0.003 A 
ATOM     14  C   UNL d   1      29.401  17.044 -23.800  0.00  0.00     0.024 A 
ATOM     15  C   UNL d   1      29.229  16.575 -24.457  0.00  0.00     0.094 A 
ATOM     16  C   UNL d   1      29.735  16.546 -25.097  0.00  0.00     0.024 A 
ATOM     17  C   UNL d   1      30.432  16.991 -25.095  0.00  0.00     0.003 A 
BRANCH  15  18
ATOM     18  O   UNL d   1      28.530  16.112 -24.491  0.00  0.00    -0.328 OA
ATOM     19  C   UNL d   1      28.126  15.899 -23.794  0.00  0.00     0.181 C 
ENDBRANCH  15  18
ENDBRANCH   4  12
BRANCH   2  20
ATOM     20  C   UNL d   1      32.768  16.903 -23.707  0.00  0.00     0.047 A 
ATOM     21  S   UNL d   1      33.142  16.742 -22.999  0.00  0.00    -0.085 SA
ATOM     22  C   UNL d   1      33.092  15.927 -22.885  0.00  0.00     0.035 A 
ATOM     23  C   UNL d   1      32.698  15.579 -23.502  0.00  0.00     0.007 A 
ATOM     24  C   UNL d   1      32.497  16.179 -24.010  0.00  0.00     0.009 A 
ENDBRANCH   2  20
TORSDOF 3
ENDMDL
