MODEL 1
REMARK VINA RESULT:      50.7      0.000      0.000
REMARK  6 active torsions:
REMARK  status: ('A' for Active; 'I' for Inactive)
REMARK    1  A    between atoms: N_10  and  C_2 
REMARK    2  A    between atoms: C_13  and  C_3 
REMARK    3  A    between atoms: C_6  and  S_15 
REMARK       I    between atoms: C_12  and  N_10 
REMARK    4  A    between atoms: C_14  and  C_12 
REMARK    5  A    between atoms: C_17  and  C_14 
REMARK    6  A    between atoms: S_15  and  C_17 
ROOT
ATOM      1  N   UNL d   1     -48.225  28.739  34.881  0.00  0.00    -0.181 NA
ATOM      2  C   UNL d   1     -48.965  28.576  34.556  0.00  0.00     0.282 C 
ATOM      3  O   UNL d   1     -49.484  29.193  34.362  0.00  0.00    -0.265 OA
ENDROOT
BRANCH   1   4
ATOM      4  C   UNL d   1     -47.985  29.527  35.021  0.00  0.00     0.216 A 
ATOM      5  N   UNL d   1     -48.098  30.164  34.508  0.00  0.00    -0.200 NA
ATOM      6  C   UNL d   1     -47.776  30.831  34.868  0.00  0.00     0.172 A 
ATOM      7  N   UNL d   1     -47.472  30.598  35.592  0.00  0.00    -0.187 NA
ATOM      8  S   UNL d   1     -47.601  29.798  35.684  0.00  0.00     0.054 SA
BRANCH   6   9
ATOM      9  C   UNL d   1     -47.747  31.607  34.582  0.00  0.00     0.036 A 
ATOM     10  C   UNL d   1     -48.398  31.927  34.194  0.00  0.00     0.003 A 
ATOM     11  C   UNL d   1     -48.369  32.701  33.908  0.00  0.00     0.000 A 
ATOM     12  C   UNL d   1     -47.690  33.153  34.011  0.00  0.00     0.000 A 
ATOM     13  C   UNL d   1     -47.036  32.833  34.401  0.00  0.00     0.000 A 
ATOM     14  C   UNL d   1     -47.064  32.060  34.686  0.00  0.00     0.003 A 
ENDBRANCH   6   9
ENDBRANCH   1   4
BRANCH   2  15
ATOM     15  C   UNL d   1     -49.198  27.790  34.420  0.00  0.00     0.070 C 
BRANCH  15  16
ATOM     16  C   UNL d   1     -49.852  27.628  33.945  0.00  0.00     0.042 C 
BRANCH  16  17
ATOM     17  S   UNL d   1     -49.857  26.948  33.479  0.00  0.00    -0.059 SA
BRANCH  17  18
ATOM     18  C   UNL d   1     -50.545  26.495  33.422  0.00  0.00     0.164 A 
ATOM     19  S   UNL d   1     -50.682  25.680  33.417  0.00  0.00    -0.039 SA
ATOM     20  C   UNL d   1     -51.491  25.561  33.345  0.00  0.00     0.134 A 
ATOM     21  C   UNL d   1     -51.876  24.821  33.317  0.00  0.00     0.030 C 
ATOM     22  N   UNL d   1     -51.857  26.297  33.306  0.00  0.00    -0.140 NA
ATOM     23  N   UNL d   1     -51.276  26.870  33.353  0.00  0.00    -0.134 NA
ENDBRANCH  17  18
ENDBRANCH  16  17
ENDBRANCH  15  16
ENDBRANCH   2  15
TORSDOF 6
ENDMDL
MODEL 2
REMARK VINA RESULT:      51.7      0.900      1.134
REMARK  6 active torsions:
REMARK  status: ('A' for Active; 'I' for Inactive)
REMARK    1  A    between atoms: N_10  and  C_2 
REMARK    2  A    between atoms: C_13  and  C_3 
REMARK    3  A    between atoms: C_6  and  S_15 
REMARK       I    between atoms: C_12  and  N_10 
REMARK    4  A    between atoms: C_14  and  C_12 
REMARK    5  A    between atoms: C_17  and  C_14 
REMARK    6  A    between atoms: S_15  and  C_17 
ROOT
ATOM      1  N   UNL d   1     -48.868  28.215  35.179  0.00  0.00    -0.181 NA
ATOM      2  C   UNL d   1     -48.948  27.821  34.458  0.00  0.00     0.282 C 
ATOM      3  O   UNL d   1     -48.516  28.066  33.795  0.00  0.00    -0.265 OA
ENDROOT
BRANCH   1   4
ATOM      4  C   UNL d   1     -48.351  28.867  35.252  0.00  0.00     0.216 A 
ATOM      5  N   UNL d   1     -48.493  29.629  34.972  0.00  0.00    -0.200 NA
ATOM      6  C   UNL d   1     -47.838  30.090  35.166  0.00  0.00     0.172 A 
ATOM      7  N   UNL d   1     -47.306  29.609  35.559  0.00  0.00    -0.187 NA
ATOM      8  S   UNL d   1     -47.622  28.858  35.612  0.00  0.00     0.054 SA
BRANCH   6   9
ATOM      9  C   UNL d   1     -47.708  30.892  35.008  0.00  0.00     0.036 A 
ATOM     10  C   UNL d   1     -47.255  31.345  35.524  0.00  0.00     0.003 A 
ATOM     11  C   UNL d   1     -47.126  32.145  35.366  0.00  0.00     0.000 A 
ATOM     12  C   UNL d   1     -47.450  32.490  34.694  0.00  0.00     0.000 A 
ATOM     13  C   UNL d   1     -47.906  32.037  34.175  0.00  0.00     0.000 A 
ATOM     14  C   UNL d   1     -48.035  31.237  34.332  0.00  0.00     0.003 A 
ENDBRANCH   6   9
ENDBRANCH   1   4
BRANCH   2  15
ATOM     15  C   UNL d   1     -49.465  27.173  34.393  0.00  0.00     0.070 C 
BRANCH  15  16
ATOM     16  C   UNL d   1     -49.698  26.903  33.649  0.00  0.00     0.042 C 
BRANCH  16  17
ATOM     17  S   UNL d   1     -50.501  26.834  33.477  0.00  0.00    -0.059 SA
BRANCH  17  18
ATOM     18  C   UNL d   1     -50.844  26.085  33.419  0.00  0.00     0.164 A 
ATOM     19  S   UNL d   1     -51.630  25.826  33.408  0.00  0.00    -0.039 SA
ATOM     20  C   UNL d   1     -51.624  25.009  33.339  0.00  0.00     0.134 A 
ATOM     21  C   UNL d   1     -52.298  24.516  33.308  0.00  0.00     0.030 C 
ATOM     22  N   UNL d   1     -50.841  24.758  33.306  0.00  0.00    -0.140 NA
ATOM     23  N   UNL d   1     -50.363  25.419  33.355  0.00  0.00    -0.134 NA
ENDBRANCH  17  18
ENDBRANCH  16  17
ENDBRANCH  15  16
ENDBRANCH   2  15
TORSDOF 6
ENDMDL
MODEL 3
REMARK VINA RESULT:      53.2      1.129      5.947
REMARK  6 active torsions:
REMARK  status: ('A' for Active; 'I' for Inactive)
REMARK    1  A    between atoms: N_10  and  C_2 
REMARK    2  A    between atoms: C_13  and  C_3 
REMARK    3  A    between atoms: C_6  and  S_15 
REMARK       I    between atoms: C_12  and  N_10 
REMARK    4  A    between atoms: C_14  and  C_12 
REMARK    5  A    between atoms: C_17  and  C_14 
REMARK    6  A    between atoms: S_15  and  C_17 
ROOT
ATOM      1  N   UNL d   1     -48.470  28.201  34.432  0.00  0.00    -0.181 NA
ATOM      2  C   UNL d   1     -48.642  28.674  35.085  0.00  0.00     0.282 C 
ATOM      3  O   UNL d   1     -49.415  28.716  35.381  0.00  0.00    -0.265 OA
ENDROOT
BRANCH   1   4
ATOM      4  C   UNL d   1     -49.070  27.756  34.058  0.00  0.00     0.216 A 
ATOM      5  N   UNL d   1     -49.202  26.948  34.153  0.00  0.00    -0.200 NA
ATOM      6  C   UNL d   1     -49.847  26.745  33.683  0.00  0.00     0.172 A 
ATOM      7  N   UNL d   1     -50.102  27.426  33.308  0.00  0.00    -0.187 NA
ATOM      8  S   UNL d   1     -49.624  28.047  33.539  0.00  0.00     0.054 SA
BRANCH   6   9
ATOM      9  C   UNL d   1     -50.199  26.002  33.583  0.00  0.00     0.036 A 
ATOM     10  C   UNL d   1     -49.730  25.337  33.462  0.00  0.00     0.003 A 
ATOM     11  C   UNL d   1     -50.081  24.597  33.363  0.00  0.00     0.000 A 
ATOM     12  C   UNL d   1     -50.900  24.523  33.386  0.00  0.00     0.000 A 
ATOM     13  C   UNL d   1     -51.372  25.190  33.507  0.00  0.00     0.000 A 
ATOM     14  C   UNL d   1     -51.021  25.930  33.606  0.00  0.00     0.003 A 
ENDBRANCH   6   9
ENDBRANCH   1   4
BRANCH   2  15
ATOM     15  C   UNL d   1     -48.039  29.113  35.452  0.00  0.00     0.070 C 
BRANCH  15  16
ATOM     16  C   UNL d   1     -48.076  29.937  35.464  0.00  0.00     0.042 C 
BRANCH  16  17
ATOM     17  S   UNL d   1     -47.378  30.375  35.438  0.00  0.00    -0.059 SA
BRANCH  17  18
ATOM     18  C   UNL d   1     -47.384  31.137  35.121  0.00  0.00     0.164 A 
ATOM     19  S   UNL d   1     -47.813  31.486  34.506  0.00  0.00    -0.039 SA
ATOM     20  C   UNL d   1     -47.576  32.269  34.447  0.00  0.00     0.134 A 
ATOM     21  C   UNL d   1     -47.867  32.828  33.899  0.00  0.00     0.030 C 
ATOM     22  N   UNL d   1     -47.004  32.410  35.021  0.00  0.00    -0.140 NA
ATOM     23  N   UNL d   1     -46.886  31.714  35.435  0.00  0.00    -0.134 NA
ENDBRANCH  17  18
ENDBRANCH  16  17
ENDBRANCH  15  16
ENDBRANCH   2  15
TORSDOF 6
ENDMDL
