MODEL 1
REMARK VINA RESULT:      -7.2      0.000      0.000
REMARK  4 active torsions:
REMARK  status: ('A' for Active; 'I' for Inactive)
REMARK    1  A    between atoms: N_2  and  C_1 
REMARK    2  A    between atoms: C_4  and  C_1 
REMARK    3  A    between atoms: C_8  and  N_2 
REMARK    4  A    between atoms: N_7  and  C_6 
ROOT
ATOM      1  C   UNL d   1      50.189  34.334  52.326  0.00  0.00     0.064 A 
ATOM      2  C   UNL d   1      51.638  33.784  52.880  0.00  0.00     0.083 A 
ATOM      3  C   UNL d   1      50.869  34.420  51.864  0.00  0.00     0.019 A 
ATOM      4  C   UNL d   1      50.239  33.971  53.065  0.00  0.00     0.019 A 
ATOM      5  C   UNL d   1      51.597  34.146  52.138  0.00  0.00     0.021 A 
ATOM      6  C   UNL d   1      50.962  33.693  53.347  0.00  0.00     0.021 A 
ENDROOT
BRANCH   2   7
ATOM      7  N   UNL d   1      52.365  33.507  53.159  0.00  0.00    -0.233 NA
BRANCH   7   8
ATOM      8  C   UNL d   1      52.860  34.015  53.584  0.00  0.00     0.153 C 
ATOM      9  S   UNL d   1      52.712  34.828  53.596  0.00  0.00    -0.056 SA
BRANCH   8  10
ATOM     10  C   UNL d   1      53.510  33.705  54.000  0.00  0.00     0.109 A 
ATOM     11  N   UNL d   1      54.025  33.172  53.624  0.00  0.00    -0.242 NA
ATOM     12  C   UNL d   1      54.672  32.862  54.033  0.00  0.00     0.099 A 
ATOM     13  C   UNL d   1      54.805  33.083  54.817  0.00  0.00     0.021 A 
ATOM     14  C   UNL d   1      54.290  33.616  55.193  0.00  0.00     0.003 A 
ATOM     15  C   UNL d   1      53.644  33.925  54.784  0.00  0.00     0.021 A 
ENDBRANCH   8  10
ENDBRANCH   7   8
ENDBRANCH   2   7
BRANCH   1  16
ATOM     16  N   UNL d   1      49.461  34.608  52.052  0.00  0.00    -0.301 N 
ATOM     17  C   UNL d   1      48.985  35.077  52.538  0.00  0.00     0.100 C 
ATOM     18  C   UNL d   1      49.209  34.413  51.290  0.00  0.00     0.100 C 
ENDBRANCH   1  16
TORSDOF 4
ENDMDL
MODEL 2
REMARK VINA RESULT:      -6.9      2.329      3.817
REMARK  4 active torsions:
REMARK  status: ('A' for Active; 'I' for Inactive)
REMARK    1  A    between atoms: N_2  and  C_1 
REMARK    2  A    between atoms: C_4  and  C_1 
REMARK    3  A    between atoms: C_8  and  N_2 
REMARK    4  A    between atoms: N_7  and  C_6 
ROOT
ATOM      1  C   UNL d   1      53.125  30.494  53.465  0.00  0.00     0.064 A 
ATOM      2  C   UNL d   1      53.215  32.126  53.279  0.00  0.00     0.083 A 
ATOM      3  C   UNL d   1      52.616  30.879  52.941  0.00  0.00     0.019 A 
ATOM      4  C   UNL d   1      53.678  30.929  53.896  0.00  0.00     0.019 A 
ATOM      5  C   UNL d   1      52.658  31.698  52.845  0.00  0.00     0.021 A 
ATOM      6  C   UNL d   1      53.727  31.747  53.806  0.00  0.00     0.021 A 
ENDROOT
BRANCH   2   7
ATOM      7  N   UNL d   1      53.261  32.946  53.187  0.00  0.00    -0.233 NA
BRANCH   7   8
ATOM      8  C   UNL d   1      52.646  33.425  53.462  0.00  0.00     0.153 C 
ATOM      9  S   UNL d   1      51.860  33.178  53.387  0.00  0.00    -0.056 SA
BRANCH   8  10
ATOM     10  C   UNL d   1      52.819  34.157  53.816  0.00  0.00     0.109 A 
ATOM     11  N   UNL d   1      52.916  34.205  54.640  0.00  0.00    -0.242 NA
ATOM     12  C   UNL d   1      53.088  34.929  54.996  0.00  0.00     0.099 A 
ATOM     13  C   UNL d   1      53.162  35.607  54.531  0.00  0.00     0.021 A 
ATOM     14  C   UNL d   1      53.064  35.560  53.707  0.00  0.00     0.003 A 
ATOM     15  C   UNL d   1      52.893  34.835  53.352  0.00  0.00     0.021 A 
ENDBRANCH   8  10
ENDBRANCH   7   8
ENDBRANCH   2   7
BRANCH   1  16
ATOM     16  N   UNL d   1      53.083  29.675  53.562  0.00  0.00    -0.301 N 
ATOM     17  C   UNL d   1      53.409  29.320  54.232  0.00  0.00     0.100 C 
ATOM     18  C   UNL d   1      52.714  29.213  52.986  0.00  0.00     0.100 C 
ENDBRANCH   1  16
TORSDOF 4
ENDMDL
MODEL 3
REMARK VINA RESULT:      -6.5      0.914      4.398
REMARK  4 active torsions:
REMARK  status: ('A' for Active; 'I' for Inactive)
REMARK    1  A    between atoms: N_2  and  C_1 
REMARK    2  A    between atoms: C_4  and  C_1 
REMARK    3  A    between atoms: C_8  and  N_2 
REMARK    4  A    between atoms: N_7  and  C_6 
ROOT
ATOM      1  C   UNL d   1      53.832  33.660  54.399  0.00  0.00     0.064 A 
ATOM      2  C   UNL d   1      52.585  34.078  53.410  0.00  0.00     0.083 A 
ATOM      3  C   UNL d   1      53.667  33.209  53.727  0.00  0.00     0.019 A 
ATOM      4  C   UNL d   1      53.370  34.321  54.573  0.00  0.00     0.019 A 
ATOM      5  C   UNL d   1      53.043  33.415  53.228  0.00  0.00     0.021 A 
ATOM      6  C   UNL d   1      52.744  34.534  54.081  0.00  0.00     0.021 A 
ENDROOT
BRANCH   2   7
ATOM      7  N   UNL d   1      51.958  34.290  52.915  0.00  0.00    -0.233 NA
BRANCH   7   8
ATOM      8  C   UNL d   1      51.234  33.895  52.980  0.00  0.00     0.153 C 
ATOM      9  S   UNL d   1      51.182  33.186  53.402  0.00  0.00    -0.056 SA
BRANCH   8  10
ATOM     10  C   UNL d   1      50.556  34.214  52.618  0.00  0.00     0.109 A 
ATOM     11  N   UNL d   1      50.000  34.629  53.076  0.00  0.00    -0.242 NA
ATOM     12  C   UNL d   1      49.326  34.947  52.722  0.00  0.00     0.099 A 
ATOM     13  C   UNL d   1      49.206  34.852  51.911  0.00  0.00     0.021 A 
ATOM     14  C   UNL d   1      49.762  34.438  51.452  0.00  0.00     0.003 A 
ATOM     15  C   UNL d   1      50.435  34.120  51.808  0.00  0.00     0.021 A 
ENDBRANCH   8  10
ENDBRANCH   7   8
ENDBRANCH   2   7
BRANCH   1  16
ATOM     16  N   UNL d   1      54.457  33.453  54.897  0.00  0.00    -0.301 N 
ATOM     17  C   UNL d   1      54.358  32.856  55.459  0.00  0.00     0.100 C 
ATOM     18  C   UNL d   1      55.180  33.845  54.832  0.00  0.00     0.100 C 
ENDBRANCH   1  16
TORSDOF 4
ENDMDL
MODEL 4
REMARK VINA RESULT:      -6.4      2.513      3.653
REMARK  4 active torsions:
REMARK  status: ('A' for Active; 'I' for Inactive)
REMARK    1  A    between atoms: N_2  and  C_1 
REMARK    2  A    between atoms: C_4  and  C_1 
REMARK    3  A    between atoms: C_8  and  N_2 
REMARK    4  A    between atoms: N_7  and  C_6 
ROOT
ATOM      1  C   UNL d   1      53.242  34.508  54.435  0.00  0.00     0.064 A 
ATOM      2  C   UNL d   1      53.428  32.873  54.457  0.00  0.00     0.083 A 
ATOM      3  C   UNL d   1      52.684  34.022  54.068  0.00  0.00     0.019 A 
ATOM      4  C   UNL d   1      53.894  34.170  54.813  0.00  0.00     0.019 A 
ATOM      5  C   UNL d   1      52.773  33.202  54.077  0.00  0.00     0.021 A 
ATOM      6  C   UNL d   1      53.992  33.352  54.827  0.00  0.00     0.021 A 
ENDROOT
BRANCH   2   7
ATOM      7  N   UNL d   1      53.523  32.052  54.469  0.00  0.00    -0.233 NA
BRANCH   7   8
ATOM      8  C   UNL d   1      53.710  31.651  53.770  0.00  0.00     0.153 C 
ATOM      9  S   UNL d   1      54.171  32.018  53.190  0.00  0.00    -0.056 SA
BRANCH   8  10
ATOM     10  C   UNL d   1      53.433  30.876  53.652  0.00  0.00     0.109 A 
ATOM     11  N   UNL d   1      53.564  30.297  54.233  0.00  0.00    -0.242 NA
ATOM     12  C   UNL d   1      53.290  29.527  54.120  0.00  0.00     0.099 A 
ATOM     13  C   UNL d   1      52.886  29.333  53.427  0.00  0.00     0.021 A 
ATOM     14  C   UNL d   1      52.754  29.912  52.846  0.00  0.00     0.003 A 
ATOM     15  C   UNL d   1      53.028  30.681  52.960  0.00  0.00     0.021 A 
ENDBRANCH   8  10
ENDBRANCH   7   8
ENDBRANCH   2   7
BRANCH   1  16
ATOM     16  N   UNL d   1      53.153  35.328  54.426  0.00  0.00    -0.301 N 
ATOM     17  C   UNL d   1      53.338  35.758  53.745  0.00  0.00     0.100 C 
ATOM     18  C   UNL d   1      52.878  35.718  55.100  0.00  0.00     0.100 C 
ENDBRANCH   1  16
TORSDOF 4
ENDMDL
MODEL 5
REMARK VINA RESULT:      -4.4      9.806     10.840
REMARK  4 active torsions:
REMARK  status: ('A' for Active; 'I' for Inactive)
REMARK    1  A    between atoms: N_2  and  C_1 
REMARK    2  A    between atoms: C_4  and  C_1 
REMARK    3  A    between atoms: C_8  and  N_2 
REMARK    4  A    between atoms: N_7  and  C_6 
ROOT
ATOM      1  C   UNL d   1      44.860  29.719  58.168  0.00  0.00     0.064 A 
ATOM      2  C   UNL d   1      44.552  28.231  57.537  0.00  0.00     0.083 A 
ATOM      3  C   UNL d   1      44.917  29.595  57.353  0.00  0.00     0.019 A 
ATOM      4  C   UNL d   1      44.648  29.095  58.664  0.00  0.00     0.019 A 
ATOM      5  C   UNL d   1      44.764  28.850  57.033  0.00  0.00     0.021 A 
ATOM      6  C   UNL d   1      44.493  28.347  58.353  0.00  0.00     0.021 A 
ENDROOT
BRANCH   2   7
ATOM      7  N   UNL d   1      44.398  27.482  57.222  0.00  0.00    -0.233 NA
BRANCH   7   8
ATOM      8  C   UNL d   1      44.972  26.890  57.273  0.00  0.00     0.153 C 
ATOM      9  S   UNL d   1      45.693  27.039  57.650  0.00  0.00    -0.056 SA
BRANCH   8  10
ATOM     10  C   UNL d   1      44.824  26.141  56.943  0.00  0.00     0.109 A 
ATOM     11  N   UNL d   1      45.043  25.985  56.157  0.00  0.00    -0.242 NA
ATOM     12  C   UNL d   1      44.898  25.244  55.825  0.00  0.00     0.099 A 
ATOM     13  C   UNL d   1      44.534  24.657  56.277  0.00  0.00     0.021 A 
ATOM     14  C   UNL d   1      44.314  24.812  57.064  0.00  0.00     0.003 A 
ATOM     15  C   UNL d   1      44.460  25.554  57.394  0.00  0.00     0.021 A 
ENDBRANCH   8  10
ENDBRANCH   7   8
ENDBRANCH   2   7
BRANCH   1  16
ATOM     16  N   UNL d   1      45.013  30.464  58.488  0.00  0.00    -0.301 N 
ATOM     17  C   UNL d   1      45.101  30.554  59.304  0.00  0.00     0.100 C 
ATOM     18  C   UNL d   1      45.079  31.119  57.990  0.00  0.00     0.100 C 
ENDBRANCH   1  16
TORSDOF 4
ENDMDL
MODEL 6
REMARK VINA RESULT:      -4.2      9.885     11.158
REMARK  4 active torsions:
REMARK  status: ('A' for Active; 'I' for Inactive)
REMARK    1  A    between atoms: N_2  and  C_1 
REMARK    2  A    between atoms: C_4  and  C_1 
REMARK    3  A    between atoms: C_8  and  N_2 
REMARK    4  A    between atoms: N_7  and  C_6 
ROOT
ATOM      1  C   UNL d   1      44.597  29.502  61.626  0.00  0.00     0.064 A 
ATOM      2  C   UNL d   1      44.468  30.265  60.173  0.00  0.00     0.083 A 
ATOM      3  C   UNL d   1      44.381  29.076  60.952  0.00  0.00     0.019 A 
ATOM      4  C   UNL d   1      44.748  30.311  61.568  0.00  0.00     0.019 A 
ATOM      5  C   UNL d   1      44.315  29.454  60.222  0.00  0.00     0.021 A 
ATOM      6  C   UNL d   1      44.685  30.698  60.843  0.00  0.00     0.021 A 
ENDROOT
BRANCH   2   7
ATOM      7  N   UNL d   1      44.403  30.649  59.445  0.00  0.00    -0.233 NA
BRANCH   7   8
ATOM      8  C   UNL d   1      44.857  30.390  58.803  0.00  0.00     0.153 C 
ATOM      9  S   UNL d   1      45.430  29.804  58.908  0.00  0.00    -0.056 SA
BRANCH   8  10
ATOM     10  C   UNL d   1      44.735  30.723  58.051  0.00  0.00     0.109 A 
ATOM     11  N   UNL d   1      44.730  31.549  57.960  0.00  0.00    -0.242 NA
ATOM     12  C   UNL d   1      44.609  31.883  57.215  0.00  0.00     0.099 A 
ATOM     13  C   UNL d   1      44.494  31.393  56.560  0.00  0.00     0.021 A 
ATOM     14  C   UNL d   1      44.499  30.567  56.651  0.00  0.00     0.003 A 
ATOM     15  C   UNL d   1      44.620  30.234  57.396  0.00  0.00     0.021 A 
ENDBRANCH   8  10
ENDBRANCH   7   8
ENDBRANCH   2   7
BRANCH   1  16
ATOM     16  N   UNL d   1      44.663  29.123  62.356  0.00  0.00    -0.301 N 
ATOM     17  C   UNL d   1      44.970  28.357  62.399  0.00  0.00     0.100 C 
ATOM     18  C   UNL d   1      44.422  29.512  63.043  0.00  0.00     0.100 C 
ENDBRANCH   1  16
TORSDOF 4
ENDMDL
