MODEL 1
REMARK VINA RESULT:      60.4      0.000      0.000
REMARK  3 active torsions:
REMARK  status: ('A' for Active; 'I' for Inactive)
REMARK    1  A    between atoms: C_4  and  C_8 
REMARK    2  A    between atoms: N_13  and  C_7 
REMARK       I    between atoms: C_8  and  N_12 
REMARK    3  A    between atoms: N_12  and  N_13 
ROOT
ATOM      1  C   UNL d   1     -55.251-101.063 -43.230  0.00  0.00     0.297 C 
ATOM      2  N   UNL d   1     -55.153-100.835 -42.439  0.00  0.00    -0.104 NA
ATOM      3  O   UNL d   1     -55.153-101.858 -43.442  0.00  0.00    -0.264 OA
ENDROOT
BRANCH   2   4
ATOM      4  N   UNL d   1     -54.961-101.393 -41.867  0.00  0.00    -0.125 NA
BRANCH   4   5
ATOM      5  C   UNL d   1     -54.929-101.177 -41.072  0.00  0.00     0.190 A 
ATOM      6  C   UNL d   1     -54.906-101.755 -40.493  0.00  0.00     0.094 A 
ATOM      7  C   UNL d   1     -54.875-101.539 -39.697  0.00  0.00     0.170 A 
ATOM      8  C   UNL d   1     -54.907-102.584 -40.540  0.00  0.00     0.127 A 
ATOM      9  N   UNL d   1     -54.856-102.237 -39.247  0.00  0.00    -0.209 N 
ATOM     10  N   UNL d   1     -54.867-100.746 -39.484  0.00  0.00    -0.205 NA
ATOM     11  C   UNL d   1     -54.824-102.276 -38.417  0.00  0.00     0.123 C 
ATOM     12  N   UNL d   1     -54.876-102.879 -39.766  0.00  0.00    -0.162 NA
ATOM     13  C   UNL d   1     -54.890-100.169 -40.067  0.00  0.00     0.202 A 
ATOM     14  N   UNL d   1     -54.922-100.386 -40.867  0.00  0.00    -0.203 NA
ENDBRANCH   4   5
ENDBRANCH   2   4
BRANCH   1  15
ATOM     15  C   UNL d   1     -55.443-100.504 -43.805  0.00  0.00     0.070 A 
ATOM     16  C   UNL d   1     -55.383-100.695 -44.600  0.00  0.00     0.063 A 
ATOM     17  C   UNL d   1     -55.574-100.139 -45.176  0.00  0.00     0.023 A 
ATOM     18 CL   UNL d   1     -55.127-101.452 -44.817  0.00  0.00    -0.082 Cl
ATOM     19  C   UNL d   1     -55.831 -99.380 -44.949  0.00  0.00     0.059 A 
ATOM     20  C   UNL d   1     -55.892 -99.189 -44.142  0.00  0.00     0.012 A 
ATOM     21 CL   UNL d   1     -56.026 -98.817 -45.527  0.00  0.00    -0.082 Cl
ATOM     22  C   UNL d   1     -55.699 -99.749 -43.575  0.00  0.00     0.007 A 
ENDBRANCH   1  15
TORSDOF 3
ENDMDL
MODEL 2
REMARK VINA RESULT:      61.3      1.524      2.382
REMARK  3 active torsions:
REMARK  status: ('A' for Active; 'I' for Inactive)
REMARK    1  A    between atoms: C_4  and  C_8 
REMARK    2  A    between atoms: N_13  and  C_7 
REMARK       I    between atoms: C_8  and  N_12 
REMARK    3  A    between atoms: N_12  and  N_13 
ROOT
ATOM      1  C   UNL d   1     -55.905 -99.736 -43.732  0.00  0.00     0.297 C 
ATOM      2  N   UNL d   1     -55.664-100.525 -43.826  0.00  0.00    -0.104 NA
ATOM      3  O   UNL d   1     -55.397 -99.194 -43.365  0.00  0.00    -0.264 OA
ENDROOT
BRANCH   2   4
ATOM      4  N   UNL d   1     -54.927-100.768 -43.558  0.00  0.00    -0.125 NA
BRANCH   4   5
ATOM      5  C   UNL d   1     -54.855-101.462 -43.117  0.00  0.00     0.190 A 
ATOM      6  C   UNL d   1     -54.842-101.426 -42.300  0.00  0.00     0.094 A 
ATOM      7  C   UNL d   1     -54.770-102.120 -41.858  0.00  0.00     0.170 A 
ATOM      8  C   UNL d   1     -54.889-100.784 -41.774  0.00  0.00     0.127 A 
ATOM      9  N   UNL d   1     -54.772-101.909 -41.055  0.00  0.00    -0.209 N 
ATOM     10  N   UNL d   1     -54.712-102.846 -42.238  0.00  0.00    -0.205 NA
ATOM     11  C   UNL d   1     -54.711-102.439 -40.417  0.00  0.00     0.123 C 
ATOM     12  N   UNL d   1     -54.845-101.088 -41.004  0.00  0.00    -0.162 NA
ATOM     13  C   UNL d   1     -54.726-102.878 -43.058  0.00  0.00     0.202 A 
ATOM     14  N   UNL d   1     -54.798-102.181 -43.501  0.00  0.00    -0.203 NA
ENDBRANCH   4   5
ENDBRANCH   2   4
BRANCH   1  15
ATOM     15  C   UNL d   1     -56.645 -99.491 -44.002  0.00  0.00     0.070 A 
ATOM     16  C   UNL d   1     -56.707 -99.058 -44.694  0.00  0.00     0.063 A 
ATOM     17  C   UNL d   1     -57.443 -98.811 -44.966  0.00  0.00     0.023 A 
ATOM     18 CL   UNL d   1     -56.020 -98.871 -45.119  0.00  0.00    -0.082 Cl
ATOM     19  C   UNL d   1     -58.129 -99.003 -44.533  0.00  0.00     0.059 A 
ATOM     20  C   UNL d   1     -58.064 -99.443 -43.830  0.00  0.00     0.012 A 
ATOM     21 CL   UNL d   1     -58.874 -98.756 -44.802  0.00  0.00    -0.082 Cl
ATOM     22  C   UNL d   1     -57.325 -99.684 -43.568  0.00  0.00     0.007 A 
ENDBRANCH   1  15
TORSDOF 3
ENDMDL
