MODEL 1
REMARK VINA RESULT:      27.8      0.000      0.000
REMARK  6 active torsions:
REMARK  status: ('A' for Active; 'I' for Inactive)
REMARK    1  A    between atoms: C_12  and  N_3 
REMARK    2  A    between atoms: C_8  and  C_4 
REMARK    3  A    between atoms: O_23  and  C_11 
REMARK    4  A    between atoms: C_19  and  C_12 
REMARK    5  A    between atoms: N_13  and  C_19 
REMARK    6  A    between atoms: O_26  and  C_17 
ROOT
ATOM      1  C   UNL d   1     -42.332-122.734 -50.251  0.00  0.00     0.083 A 
ATOM      2  C   UNL d   1     -41.729-123.274 -50.409  0.00  0.00     0.161 A 
ATOM      3  N   UNL d   1     -42.220-122.835 -51.567  0.00  0.00    -0.270 N 
ATOM      4  C   UNL d   1     -42.629-122.469 -50.963  0.00  0.00     0.074 A 
ATOM      5  C   UNL d   1     -41.658-123.337 -51.230  0.00  0.00     0.288 A 
ATOM      6  C   UNL d   1     -42.533-122.554 -49.473  0.00  0.00     0.201 A 
ATOM      7  O   UNL d   1     -41.326-123.634 -49.789  0.00  0.00    -0.302 OA
ATOM      8  C   UNL d   1     -42.129-122.915 -48.852  0.00  0.00     0.064 A 
ATOM      9  C   UNL d   1     -41.526-123.455 -49.010  0.00  0.00     0.103 A 
ATOM     10  O   UNL d   1     -41.123-123.817 -51.633  0.00  0.00    -0.264 OA
ATOM     11  O   UNL d   1     -43.136-122.014 -49.316  0.00  0.00    -0.286 OA
ATOM     12  C   UNL d   1     -42.331-122.735 -48.082  0.00  0.00     0.035 A 
ATOM     13  C   UNL d   1     -41.123-123.816 -48.390  0.00  0.00     0.027 A 
ATOM     14  C   UNL d   1     -41.926-123.097 -47.454  0.00  0.00     0.140 A 
ATOM     15  C   UNL d   1     -41.324-123.636 -47.620  0.00  0.00     0.032 A 
ATOM     16  F   UNL d   1     -42.127-122.917 -46.676  0.00  0.00    -0.204 F 
ENDROOT
BRANCH   4  17
ATOM     17  C   UNL d   1     -43.242-121.920 -51.066  0.00  0.00     0.041 A 
ATOM     18  C   UNL d   1     -44.020-122.129 -50.896  0.00  0.00     0.118 A 
ATOM     19  C   UNL d   1     -44.624-121.581 -50.999  0.00  0.00     0.116 A 
ATOM     20  C   UNL d   1     -44.452-120.820 -51.274  0.00  0.00     0.026 A 
ATOM     21  C   UNL d   1     -43.671-120.610 -51.445  0.00  0.00     0.002 A 
ATOM     22  C   UNL d   1     -43.064-121.163 -51.340  0.00  0.00     0.004 A 
BRANCH  18  23
ATOM     23  O   UNL d   1     -44.189-122.886 -50.622  0.00  0.00    -0.326 OA
ATOM     24  C   UNL d   1     -44.962-123.020 -50.352  0.00  0.00     0.181 C 
ENDBRANCH  18  23
BRANCH  19  25
ATOM     25  O   UNL d   1     -45.405-121.791 -50.829  0.00  0.00    -0.326 OA
ATOM     26  C   UNL d   1     -45.895-121.266 -50.426  0.00  0.00     0.181 C 
ENDBRANCH  19  25
ENDBRANCH   4  17
BRANCH   3  27
ATOM     27  C   UNL d   1     -42.337-122.730 -52.377  0.00  0.00     0.102 C 
BRANCH  27  28
ATOM     28  C   UNL d   1     -41.714-122.835 -52.909  0.00  0.00     0.100 C 
BRANCH  28  29
ATOM     29  N   UNL d   1     -41.850-122.801 -53.722  0.00  0.00    -0.298 N 
ATOM     30  C   UNL d   1     -42.182-122.124 -54.054  0.00  0.00     0.107 A 
ATOM     31  C   UNL d   1     -42.319-122.088 -54.859  0.00  0.00     0.142 A 
ATOM     32  O   UNL d   1     -42.123-122.736 -55.340  0.00  0.00    -0.300 OA
ATOM     33  C   UNL d   1     -41.792-123.413 -55.009  0.00  0.00     0.142 A 
ATOM     34  C   UNL d   1     -41.654-123.450 -54.196  0.00  0.00     0.107 A 
ENDBRANCH  28  29
ENDBRANCH  27  28
ENDBRANCH   3  27
TORSDOF 6
ENDMDL
