MODEL 1
REMARK VINA RESULT:      -2.7      0.000      0.000
REMARK  3 active torsions:
REMARK  status: ('A' for Active; 'I' for Inactive)
REMARK    1  A    between atoms: C_2  and  S_1 
REMARK    2  A    between atoms: N_3  and  S_1 
REMARK    3  A    between atoms: C_8  and  N_3 
ROOT
ATOM      1  S   UNL d   1     -41.758-122.988 -51.588  0.00  0.00     0.327 S 
ATOM      2  O   UNL d   1     -42.200-123.677 -51.715  0.00  0.00    -0.186 OA
ATOM      3  O   UNL d   1     -41.317-122.302 -51.461  0.00  0.00    -0.186 OA
ENDROOT
BRANCH   1   4
ATOM      4  C   UNL d   1     -41.749-123.143 -50.779  0.00  0.00     0.116 A 
ATOM      5  C   UNL d   1     -42.354-122.859 -50.298  0.00  0.00     0.013 A 
ATOM      6  C   UNL d   1     -42.345-123.016 -49.479  0.00  0.00     0.001 A 
ATOM      7  C   UNL d   1     -42.975-122.418 -50.618  0.00  0.00     0.001 A 
ATOM      8  C   UNL d   1     -42.951-122.732 -48.998  0.00  0.00     0.000 A 
ATOM      9  C   UNL d   1     -41.732-123.455 -49.149  0.00  0.00     0.000 A 
ATOM     10  C   UNL d   1     -43.564-122.294 -49.328  0.00  0.00     0.000 A 
ATOM     11  C   UNL d   1     -43.580-122.134 -50.138  0.00  0.00     0.000 A 
ATOM     12  C   UNL d   1     -41.123-123.740 -49.631  0.00  0.00     0.001 A 
ATOM     13  C   UNL d   1     -41.131-123.584 -50.449  0.00  0.00     0.014 A 
ENDBRANCH   1   4
BRANCH   1  14
ATOM     14  N   UNL d   1     -41.766-122.833 -52.398  0.00  0.00    -0.318 NA
BRANCH  14  15
ATOM     15  C   UNL d   1     -41.775-122.678 -53.208  0.00  0.00     0.141 A 
ATOM     16  C   UNL d   1     -42.081-121.976 -53.492  0.00  0.00     0.028 A 
ATOM     17  C   UNL d   1     -42.090-121.823 -54.294  0.00  0.00     0.101 A 
ATOM     18  C   UNL d   1     -42.444-121.093 -54.145  0.00  0.00     0.029 C 
ATOM     19  C   UNL d   1     -42.349-121.192 -54.764  0.00  0.00     0.029 C 
ATOM     20  N   UNL d   1     -41.788-122.376 -54.822  0.00  0.00    -0.295 NA
ATOM     21  C   UNL d   1     -41.478-123.085 -54.542  0.00  0.00     0.101 A 
ATOM     22  C   UNL d   1     -41.469-123.241 -53.732  0.00  0.00     0.028 A 
ATOM     23  C   UNL d   1     -41.123-123.817 -54.681  0.00  0.00     0.029 C 
ATOM     24  C   UNL d   1     -41.232-123.496 -55.217  0.00  0.00     0.029 C 
ENDBRANCH  14  15
ENDBRANCH   1  14
TORSDOF 3
ENDMDL
MODEL 2
REMARK VINA RESULT:      -2.7      0.091      1.386
REMARK  3 active torsions:
REMARK  status: ('A' for Active; 'I' for Inactive)
REMARK    1  A    between atoms: C_2  and  S_1 
REMARK    2  A    between atoms: N_3  and  S_1 
REMARK    3  A    between atoms: C_8  and  N_3 
ROOT
ATOM      1  S   UNL d   1     -41.776-123.029 -51.564  0.00  0.00     0.327 S 
ATOM      2  O   UNL d   1     -41.454-122.277 -51.431  0.00  0.00    -0.186 OA
ATOM      3  O   UNL d   1     -42.097-123.778 -51.695  0.00  0.00    -0.186 OA
ENDROOT
BRANCH   1   4
ATOM      4  C   UNL d   1     -41.754-123.181 -50.754  0.00  0.00     0.116 A 
ATOM      5  C   UNL d   1     -42.334-122.871 -50.259  0.00  0.00     0.013 A 
ATOM      6  C   UNL d   1     -42.311-123.025 -49.441  0.00  0.00     0.001 A 
ATOM      7  C   UNL d   1     -42.944-122.405 -50.566  0.00  0.00     0.001 A 
ATOM      8  C   UNL d   1     -42.892-122.714 -48.946  0.00  0.00     0.000 A 
ATOM      9  C   UNL d   1     -41.709-123.488 -49.124  0.00  0.00     0.000 A 
ATOM     10  C   UNL d   1     -43.495-122.251 -49.263  0.00  0.00     0.000 A 
ATOM     11  C   UNL d   1     -43.525-122.094 -50.072  0.00  0.00     0.000 A 
ATOM     12  C   UNL d   1     -41.125-123.800 -49.620  0.00  0.00     0.001 A 
ATOM     13  C   UNL d   1     -41.147-123.647 -50.438  0.00  0.00     0.014 A 
ENDBRANCH   1   4
BRANCH   1  14
ATOM     14  N   UNL d   1     -41.799-122.877 -52.374  0.00  0.00    -0.318 NA
BRANCH  14  15
ATOM     15  C   UNL d   1     -41.821-122.724 -53.185  0.00  0.00     0.141 A 
ATOM     16  C   UNL d   1     -41.496-123.254 -53.713  0.00  0.00     0.028 A 
ATOM     17  C   UNL d   1     -41.518-123.103 -54.516  0.00  0.00     0.101 A 
ATOM     18  C   UNL d   1     -41.123-123.814 -54.656  0.00  0.00     0.029 C 
ATOM     19  C   UNL d   1     -41.252-123.501 -55.192  0.00  0.00     0.029 C 
ATOM     20  N   UNL d   1     -41.870-122.414 -54.796  0.00  0.00    -0.295 NA
ATOM     21  C   UNL d   1     -42.200-121.877 -54.267  0.00  0.00     0.101 A 
ATOM     22  C   UNL d   1     -42.177-122.029 -53.456  0.00  0.00     0.028 A 
ATOM     23  C   UNL d   1     -42.594-121.168 -54.117  0.00  0.00     0.029 C 
ATOM     24  C   UNL d   1     -42.496-121.264 -54.737  0.00  0.00     0.029 C 
ENDBRANCH  14  15
ENDBRANCH   1  14
TORSDOF 3
ENDMDL
MODEL 3
REMARK VINA RESULT:      -2.5      0.855      4.435
REMARK  3 active torsions:
REMARK  status: ('A' for Active; 'I' for Inactive)
REMARK    1  A    between atoms: C_2  and  S_1 
REMARK    2  A    between atoms: N_3  and  S_1 
REMARK    3  A    between atoms: C_8  and  N_3 
ROOT
ATOM      1  S   UNL d   1     -41.810-123.048 -52.699  0.00  0.00     0.327 S 
ATOM      2  O   UNL d   1     -42.413-123.613 -52.768  0.00  0.00    -0.186 OA
ATOM      3  O   UNL d   1     -41.211-122.485 -52.631  0.00  0.00    -0.186 OA
ENDROOT
BRANCH   1   4
ATOM      4  C   UNL d   1     -41.670-123.099 -53.509  0.00  0.00     0.116 A 
ATOM      5  C   UNL d   1     -41.923-122.498 -54.011  0.00  0.00     0.013 A 
ATOM      6  C   UNL d   1     -41.781-122.550 -54.831  0.00  0.00     0.001 A 
ATOM      7  C   UNL d   1     -42.320-121.839 -53.711  0.00  0.00     0.001 A 
ATOM      8  C   UNL d   1     -42.035-121.948 -55.333  0.00  0.00     0.000 A 
ATOM      9  C   UNL d   1     -41.386-123.203 -55.141  0.00  0.00     0.000 A 
ATOM     10  C   UNL d   1     -42.430-121.296 -55.023  0.00  0.00     0.000 A 
ATOM     11  C   UNL d   1     -42.575-121.237 -54.213  0.00  0.00     0.000 A 
ATOM     12  C   UNL d   1     -41.130-123.808 -54.638  0.00  0.00     0.001 A 
ATOM     13  C   UNL d   1     -41.273-123.756 -53.819  0.00  0.00     0.014 A 
ENDBRANCH   1   4
BRANCH   1  14
ATOM     14  N   UNL d   1     -41.951-122.996 -51.888  0.00  0.00    -0.318 NA
BRANCH  14  15
ATOM     15  C   UNL d   1     -42.092-122.945 -51.077  0.00  0.00     0.141 A 
ATOM     16  C   UNL d   1     -41.620-123.351 -50.549  0.00  0.00     0.028 A 
ATOM     17  C   UNL d   1     -41.760-123.300 -49.745  0.00  0.00     0.101 A 
ATOM     18  C   UNL d   1     -41.124-123.807 -49.608  0.00  0.00     0.029 C 
ATOM     19  C   UNL d   1     -41.406-123.625 -49.071  0.00  0.00     0.029 C 
ATOM     20  N   UNL d   1     -42.378-122.837 -49.463  0.00  0.00    -0.295 NA
ATOM     21  C   UNL d   1     -42.857-122.425 -49.991  0.00  0.00     0.101 A 
ATOM     22  C   UNL d   1     -42.716-122.477 -50.803  0.00  0.00     0.028 A 
ATOM     23  C   UNL d   1     -43.492-121.919 -50.139  0.00  0.00     0.029 C 
ATOM     24  C   UNL d   1     -43.409-122.028 -49.520  0.00  0.00     0.029 C 
ENDBRANCH  14  15
ENDBRANCH   1  14
TORSDOF 3
ENDMDL
