MODEL 1
REMARK VINA RESULT:      12.6      0.000      0.000
REMARK  1 active torsions:
REMARK  status: ('A' for Active; 'I' for Inactive)
REMARK       I    between atoms: C_2  and  N_1 
REMARK    1  A    between atoms: C_4  and  C_2 
ROOT
ATOM      1  N   UNL d   1      44.432 -15.322  36.836  0.00  0.00    -0.272 N 
ATOM      2  C   UNL d   1      43.654 -15.116  37.027  0.00  0.00     0.287 C 
ATOM      3  C   UNL d   1      45.117 -14.918  37.062  0.00  0.00     0.067 A 
ATOM      4  C   UNL d   1      44.640 -15.963  36.390  0.00  0.00     0.083 A 
ATOM      5  O   UNL d   1      43.507 -14.447  37.489  0.00  0.00    -0.264 OA
ATOM      6  C   UNL d   1      45.762 -15.313  36.752  0.00  0.00     0.018 A 
ATOM      7  C   UNL d   1      45.475 -15.966  36.331  0.00  0.00     0.021 A 
ATOM      8  C   UNL d   1      45.234 -14.245  37.508  0.00  0.00     0.018 A 
ATOM      9  C   UNL d   1      46.531 -15.042  36.882  0.00  0.00     0.002 A 
ATOM     10  C   UNL d   1      45.997 -13.962  37.647  0.00  0.00     0.002 A 
ATOM     11  C   UNL d   1      46.643 -14.362  37.333  0.00  0.00     0.000 A 
ENDROOT
BRANCH   2  12
ATOM     12  C   UNL d   1      43.023 -15.581  36.757  0.00  0.00     0.156 A 
ATOM     13  O   UNL d   1      42.954 -16.385  36.570  0.00  0.00    -0.300 OA
ATOM     14  C   UNL d   1      42.185 -16.525  36.330  0.00  0.00     0.123 A 
ATOM     15  C   UNL d   1      41.770 -15.823  36.362  0.00  0.00     0.029 A 
ATOM     16  C   UNL d   1      42.280 -15.234  36.626  0.00  0.00     0.032 A 
ENDBRANCH   2  12
TORSDOF 1
ENDMDL
MODEL 2
REMARK VINA RESULT:      12.7      0.867      3.267
REMARK  1 active torsions:
REMARK  status: ('A' for Active; 'I' for Inactive)
REMARK       I    between atoms: C_2  and  N_1 
REMARK    1  A    between atoms: C_4  and  C_2 
ROOT
ATOM      1  N   UNL d   1      44.062 -15.437  36.696  0.00  0.00    -0.272 N 
ATOM      2  C   UNL d   1      44.527 -14.784  36.898  0.00  0.00     0.287 C 
ATOM      3  C   UNL d   1      43.236 -15.464  36.669  0.00  0.00     0.067 A 
ATOM      4  C   UNL d   1      44.355 -16.162  36.490  0.00  0.00     0.083 A 
ATOM      5  O   UNL d   1      44.166 -14.069  37.099  0.00  0.00    -0.264 OA
ATOM      6  C   UNL d   1      43.010 -16.217  36.444  0.00  0.00     0.018 A 
ATOM      7  C   UNL d   1      43.701 -16.659  36.330  0.00  0.00     0.021 A 
ATOM      8  C   UNL d   1      42.665 -14.902  36.821  0.00  0.00     0.018 A 
ATOM      9  C   UNL d   1      42.214 -16.418  36.367  0.00  0.00     0.002 A 
ATOM     10  C   UNL d   1      41.864 -15.088  36.748  0.00  0.00     0.002 A 
ATOM     11  C   UNL d   1      41.641 -15.846  36.521  0.00  0.00     0.000 A 
ENDROOT
BRANCH   2  12
ATOM     12  C   UNL d   1      45.353 -14.845  36.898  0.00  0.00     0.156 A 
ATOM     13  O   UNL d   1      45.893 -15.194  36.375  0.00  0.00    -0.300 OA
ATOM     14  C   UNL d   1      46.646 -15.076  36.672  0.00  0.00     0.123 A 
ATOM     15  C   UNL d   1      46.589 -14.660  37.371  0.00  0.00     0.029 A 
ATOM     16  C   UNL d   1      45.793 -14.513  37.519  0.00  0.00     0.032 A 
ENDBRANCH   2  12
TORSDOF 1
ENDMDL
MODEL 3
REMARK VINA RESULT:      13.6      7.477      8.010
REMARK  1 active torsions:
REMARK  status: ('A' for Active; 'I' for Inactive)
REMARK       I    between atoms: C_2  and  N_1 
REMARK    1  A    between atoms: C_4  and  C_2 
ROOT
ATOM      1  N   UNL d   1      46.198 -18.073  43.531  0.00  0.00    -0.272 N 
ATOM      2  C   UNL d   1      46.137 -17.744  44.287  0.00  0.00     0.287 C 
ATOM      3  C   UNL d   1      46.356 -18.863  43.349  0.00  0.00     0.067 A 
ATOM      4  C   UNL d   1      46.110 -17.657  42.843  0.00  0.00     0.083 A 
ATOM      5  O   UNL d   1      46.237 -18.223  44.952  0.00  0.00    -0.264 OA
ATOM      6  C   UNL d   1      46.367 -18.943  42.535  0.00  0.00     0.018 A 
ATOM      7  C   UNL d   1      46.215 -18.196  42.211  0.00  0.00     0.021 A 
ATOM      8  C   UNL d   1      46.490 -19.517  43.818  0.00  0.00     0.018 A 
ATOM      9  C   UNL d   1      46.512 -19.673  42.180  0.00  0.00     0.002 A 
ATOM     10  C   UNL d   1      46.637 -20.254  43.478  0.00  0.00     0.002 A 
ATOM     11  C   UNL d   1      46.647 -20.330  42.659  0.00  0.00     0.000 A 
ENDROOT
BRANCH   2  12
ATOM     12  C   UNL d   1      45.975 -16.936  44.378  0.00  0.00     0.156 A 
ATOM     13  O   UNL d   1      46.261 -16.258  43.999  0.00  0.00    -0.300 OA
ATOM     14  C   UNL d   1      45.892 -15.607  44.330  0.00  0.00     0.123 A 
ATOM     15  C   UNL d   1      45.379 -15.865  44.910  0.00  0.00     0.029 A 
ATOM     16  C   UNL d   1      45.424 -16.686  44.947  0.00  0.00     0.032 A 
ENDBRANCH   2  12
TORSDOF 1
ENDMDL
