MODEL 1
REMARK VINA RESULT:      -0.5      0.000      0.000
REMARK  4 active torsions:
REMARK  status: ('A' for Active; 'I' for Inactive)
REMARK    1  A    between atoms: C_14  and  N_1 
REMARK    2  A    between atoms: S_12  and  C_2 
REMARK       I    between atoms: N_7  and  C_10 
REMARK    3  A    between atoms: C_10  and  C_16 
REMARK    4  A    between atoms: C_16  and  S_12 
ROOT
ATOM      1  N   UNL d   1      32.773  21.834 -22.255  0.00  0.00    -0.254 N 
ATOM      2  C   UNL d   1      33.074  21.339 -22.843  0.00  0.00     0.183 A 
ATOM      3  N   UNL d   1      33.237  21.645 -23.591  0.00  0.00    -0.201 NA
ATOM      4  C   UNL d   1      32.633  22.638 -22.415  0.00  0.00     0.271 A 
ATOM      5  C   UNL d   1      32.799  22.939 -23.168  0.00  0.00     0.115 A 
ATOM      6  C   UNL d   1      33.102  22.439 -23.756  0.00  0.00     0.192 A 
ATOM      7  N   UNL d   1      32.978  23.659 -24.276  0.00  0.00    -0.145 NA
ATOM      8  N   UNL d   1      33.211  22.892 -24.443  0.00  0.00    -0.128 NA
ATOM      9  C   UNL d   1      32.722  23.700 -23.496  0.00  0.00     0.130 A 
ATOM     10  O   UNL d   1      32.328  23.136 -21.818  0.00  0.00    -0.266 OA
ENDROOT
BRANCH   2  11
ATOM     11  S   UNL d   1      33.209  20.549 -22.681  0.00  0.00    -0.044 SA
BRANCH  11  12
ATOM     12  C   UNL d   1      33.162  19.981 -23.293  0.00  0.00     0.099 C 
BRANCH  12  13
ATOM     13  C   UNL d   1      33.160  19.177 -23.111  0.00  0.00     0.271 C 
ATOM     14  N   UNL d   1      33.078  18.617 -23.709  0.00  0.00    -0.273 N 
ATOM     15  C   UNL d   1      33.076  17.818 -23.529  0.00  0.00     0.067 A 
ATOM     16  C   UNL d   1      32.999  18.869 -24.490  0.00  0.00     0.083 A 
ATOM     17  C   UNL d   1      32.994  17.259 -24.131  0.00  0.00     0.016 A 
ATOM     18  C   UNL d   1      33.155  17.570 -22.746  0.00  0.00     0.018 A 
ATOM     19  C   UNL d   1      32.992  16.457 -23.944  0.00  0.00     0.001 A 
ATOM     20  C   UNL d   1      32.915  17.496 -24.908  0.00  0.00     0.003 A 
ATOM     21  C   UNL d   1      33.071  16.205 -23.162  0.00  0.00     0.000 A 
ATOM     22  C   UNL d   1      33.153  16.766 -22.564  0.00  0.00     0.002 A 
ATOM     23  C   UNL d   1      32.917  18.311 -25.095  0.00  0.00     0.019 A 
ATOM     24  O   UNL d   1      33.240  18.937 -22.326  0.00  0.00    -0.266 OA
ENDBRANCH  12  13
ENDBRANCH  11  12
ENDBRANCH   2  11
BRANCH   1  25
ATOM     25  C   UNL d   1      32.606  21.531 -21.499  0.00  0.00     0.069 A 
ATOM     26  C   UNL d   1      33.206  21.493 -20.934  0.00  0.00     0.018 A 
ATOM     27  C   UNL d   1      33.043  21.191 -20.180  0.00  0.00     0.002 A 
ATOM     28  C   UNL d   1      32.279  20.930 -19.998  0.00  0.00     0.000 A 
ATOM     29  C   UNL d   1      31.684  20.971 -20.568  0.00  0.00     0.002 A 
ATOM     30  C   UNL d   1      31.851  21.272 -21.319  0.00  0.00     0.018 A 
ENDBRANCH   1  25
TORSDOF 4
ENDMDL
MODEL 2
REMARK VINA RESULT:      -0.3      1.379      2.875
REMARK  4 active torsions:
REMARK  status: ('A' for Active; 'I' for Inactive)
REMARK    1  A    between atoms: C_14  and  N_1 
REMARK    2  A    between atoms: S_12  and  C_2 
REMARK       I    between atoms: N_7  and  C_10 
REMARK    3  A    between atoms: C_10  and  C_16 
REMARK    4  A    between atoms: C_16  and  S_12 
ROOT
ATOM      1  N   UNL d   1      32.784  22.288 -21.076  0.00  0.00    -0.254 N 
ATOM      2  C   UNL d   1      33.006  21.499 -21.172  0.00  0.00     0.183 A 
ATOM      3  N   UNL d   1      33.169  21.037 -20.509  0.00  0.00    -0.201 NA
ATOM      4  C   UNL d   1      32.724  22.618 -20.315  0.00  0.00     0.271 A 
ATOM      5  C   UNL d   1      32.889  22.148 -19.654  0.00  0.00     0.115 A 
ATOM      6  C   UNL d   1      33.112  21.356 -19.753  0.00  0.00     0.192 A 
ATOM      7  N   UNL d   1      33.097  21.617 -18.448  0.00  0.00    -0.145 NA
ATOM      8  N   UNL d   1      33.240  21.031 -19.000  0.00  0.00    -0.128 NA
ATOM      9  C   UNL d   1      32.880  22.308 -18.836  0.00  0.00     0.130 A 
ATOM     10  O   UNL d   1      32.499  23.416 -20.221  0.00  0.00    -0.266 OA
ENDROOT
BRANCH   2  11
ATOM     11  S   UNL d   1      33.064  21.180 -21.923  0.00  0.00    -0.044 SA
BRANCH  11  12
ATOM     12  C   UNL d   1      33.237  20.369 -22.021  0.00  0.00     0.099 C 
BRANCH  12  13
ATOM     13  C   UNL d   1      33.151  20.015 -22.761  0.00  0.00     0.271 C 
ATOM     14  N   UNL d   1      33.106  19.195 -22.826  0.00  0.00    -0.273 N 
ATOM     15  C   UNL d   1      33.020  18.843 -23.560  0.00  0.00     0.067 A 
ATOM     16  C   UNL d   1      33.148  18.733 -22.144  0.00  0.00     0.083 A 
ATOM     17  C   UNL d   1      32.975  18.020 -23.622  0.00  0.00     0.016 A 
ATOM     18  C   UNL d   1      32.979  19.309 -24.240  0.00  0.00     0.018 A 
ATOM     19  C   UNL d   1      32.889  17.672 -24.363  0.00  0.00     0.001 A 
ATOM     20  C   UNL d   1      33.015  17.553 -22.954  0.00  0.00     0.003 A 
ATOM     21  C   UNL d   1      32.847  18.134 -25.045  0.00  0.00     0.000 A 
ATOM     22  C   UNL d   1      32.893  18.955 -24.980  0.00  0.00     0.002 A 
ATOM     23  C   UNL d   1      33.103  17.909 -22.203  0.00  0.00     0.019 A 
ATOM     24  O   UNL d   1      33.111  20.487 -23.436  0.00  0.00    -0.266 OA
ENDBRANCH  12  13
ENDBRANCH  11  12
ENDBRANCH   2  11
BRANCH   1  25
ATOM     25  C   UNL d   1      32.618  22.759 -21.741  0.00  0.00     0.069 A 
ATOM     26  C   UNL d   1      33.240  23.096 -22.167  0.00  0.00     0.018 A 
ATOM     27  C   UNL d   1      33.076  23.565 -22.829  0.00  0.00     0.002 A 
ATOM     28  C   UNL d   1      32.292  23.695 -23.061  0.00  0.00     0.000 A 
ATOM     29  C   UNL d   1      31.677  23.355 -22.629  0.00  0.00     0.002 A 
ATOM     30  C   UNL d   1      31.843  22.887 -21.969  0.00  0.00     0.018 A 
ENDBRANCH   1  25
TORSDOF 4
ENDMDL
