MODEL 1
REMARK VINA RESULT:      10.2      0.000      0.000
REMARK  4 active torsions:
REMARK  status: ('A' for Active; 'I' for Inactive)
REMARK    1  A    between atoms: C_7  and  N_2 
REMARK    2  A    between atoms: C_12  and  C_7 
REMARK    3  A    between atoms: C_9  and  O_11 
REMARK    4  A    between atoms: O_11  and  C_12 
ROOT
ATOM      1  C   UNL d   1      46.017 -18.172  42.588  0.00  0.00     0.296 A 
ATOM      2  N   UNL d   1      46.278 -18.027  43.354  0.00  0.00    -0.266 N 
ATOM      3  S   UNL d   1      45.940 -19.002  42.499  0.00  0.00    -0.025 SA
ATOM      4  C   UNL d   1      46.364 -18.756  43.740  0.00  0.00     0.074 A 
ATOM      5  C   UNL d   1      46.157 -19.353  43.217  0.00  0.00     0.050 A 
ATOM      6  O   UNL d   1      45.858 -17.611  42.010  0.00  0.00    -0.259 OA
ATOM      7  C   UNL d   1      46.608 -18.940  44.509  0.00  0.00     0.018 A 
ATOM      8  C   UNL d   1      46.188 -20.148  43.450  0.00  0.00     0.008 A 
ATOM      9  C   UNL d   1      46.640 -19.732  44.745  0.00  0.00     0.002 A 
ATOM     10  C   UNL d   1      46.433 -20.330  44.221  0.00  0.00     0.001 A 
ENDROOT
BRANCH   2  11
ATOM     11  C   UNL d   1      46.429 -17.285  43.682  0.00  0.00     0.110 C 
BRANCH  11  12
ATOM     12  C   UNL d   1      45.838 -16.883  44.089  0.00  0.00     0.142 C 
BRANCH  12  13
ATOM     13  O   UNL d   1      46.025 -16.301  44.647  0.00  0.00    -0.304 OA
BRANCH  13  14
ATOM     14  C   UNL d   1      45.629 -15.577  44.643  0.00  0.00     0.100 A 
ATOM     15  C   UNL d   1      45.995 -14.909  44.325  0.00  0.00     0.025 A 
ATOM     16  C   UNL d   1      45.600 -14.191  44.322  0.00  0.00     0.002 A 
ATOM     17  C   UNL d   1      45.967 -13.524  44.003  0.00  0.00     0.000 C 
ATOM     18  C   UNL d   1      44.839 -14.139  44.637  0.00  0.00     0.000 A 
ATOM     19  C   UNL d   1      44.476 -14.811  44.955  0.00  0.00     0.002 A 
ATOM     20  C   UNL d   1      44.878 -15.528  44.954  0.00  0.00     0.025 A 
ENDBRANCH  13  14
ENDBRANCH  12  13
ENDBRANCH  11  12
ENDBRANCH   2  11
TORSDOF 4
ENDMDL
