MODEL 1
REMARK VINA RESULT:      45.9      0.000      0.000
REMARK  4 active torsions:
REMARK  status: ('A' for Active; 'I' for Inactive)
REMARK    1  A    between atoms: C_5  and  N_1 
REMARK    2  A    between atoms: C_7  and  C_5 
REMARK    3  A    between atoms: O_10  and  C_8 
REMARK    4  A    between atoms: C_14  and  O_10 
ROOT
ATOM      1  C   UNL d   1     -52.208  24.901  33.319  0.00  0.00     0.087 C 
ENDROOT
BRANCH   1   2
ATOM      2  N   UNL d   1     -51.410  25.084  33.350  0.00  0.00    -0.251 N 
ATOM      3  C   UNL d   1     -50.755  24.569  33.385  0.00  0.00     0.378 A 
ATOM      4  O   UNL d   1     -50.063  25.031  33.408  0.00  0.00    -0.258 OA
ATOM      5  O   UNL d   1     -50.789  23.745  33.394  0.00  0.00    -0.237 OA
ATOM      6  C   UNL d   1     -50.283  25.827  33.388  0.00  0.00     0.121 A 
ATOM      7  C   UNL d   1     -51.111  25.861  33.352  0.00  0.00     0.092 A 
ATOM      8  C   UNL d   1     -49.845  26.536  33.396  0.00  0.00     0.026 A 
ATOM      9  C   UNL d   1     -51.497  26.596  33.326  0.00  0.00     0.020 A 
ATOM     10  C   UNL d   1     -51.058  27.293  33.335  0.00  0.00     0.002 A 
ATOM     11  C   UNL d   1     -50.230  27.263  33.370  0.00  0.00     0.002 A 
ENDBRANCH   1   2
BRANCH   1  12
ATOM     12  C   UNL d   1     -52.527  24.333  33.821  0.00  0.00     0.041 A 
ATOM     13  C   UNL d   1     -53.333  24.190  33.824  0.00  0.00     0.101 A 
ATOM     14  C   UNL d   1     -53.651  23.623  34.326  0.00  0.00     0.025 A 
ATOM     15  C   UNL d   1     -53.152  23.196  34.830  0.00  0.00     0.002 A 
ATOM     16  C   UNL d   1     -52.339  23.337  34.831  0.00  0.00     0.000 A 
ATOM     17  C   UNL d   1     -52.024  23.907  34.326  0.00  0.00     0.004 A 
BRANCH  13  18
ATOM     18  O   UNL d   1     -53.831  24.616  33.320  0.00  0.00    -0.307 OA
BRANCH  18  19
ATOM     19  C   UNL d   1     -54.563  24.887  33.595  0.00  0.00     0.100 C 
ATOM     20  C   UNL d   1     -54.982  24.451  34.150  0.00  0.00     0.027 C 
ATOM     21  C   UNL d   1     -54.869  25.598  33.310  0.00  0.00     0.027 C 
ENDBRANCH  18  19
ENDBRANCH  13  18
ENDBRANCH   1  12
TORSDOF 4
ENDMDL
MODEL 2
REMARK VINA RESULT:      48.0      1.124      2.116
REMARK  4 active torsions:
REMARK  status: ('A' for Active; 'I' for Inactive)
REMARK    1  A    between atoms: C_5  and  N_1 
REMARK    2  A    between atoms: C_7  and  C_5 
REMARK    3  A    between atoms: O_10  and  C_8 
REMARK    4  A    between atoms: C_14  and  O_10 
ROOT
ATOM      1  C   UNL d   1     -51.739  25.074  33.366  0.00  0.00     0.087 C 
ENDROOT
BRANCH   1   2
ATOM      2  N   UNL d   1     -51.143  25.614  33.520  0.00  0.00    -0.251 N 
ATOM      3  C   UNL d   1     -51.203  26.432  33.675  0.00  0.00     0.378 A 
ATOM      4  O   UNL d   1     -50.436  26.730  33.796  0.00  0.00    -0.258 OA
ATOM      5  O   UNL d   1     -51.904  26.867  33.703  0.00  0.00    -0.237 OA
ATOM      6  C   UNL d   1     -49.901  26.106  33.718  0.00  0.00     0.121 A 
ATOM      7  C   UNL d   1     -50.334  25.420  33.549  0.00  0.00     0.092 A 
ATOM      8  C   UNL d   1     -49.071  26.061  33.777  0.00  0.00     0.026 A 
ATOM      9  C   UNL d   1     -49.941  24.696  33.439  0.00  0.00     0.020 A 
ATOM     10  C   UNL d   1     -49.121  24.658  33.499  0.00  0.00     0.002 A 
ATOM     11  C   UNL d   1     -48.685  25.343  33.669  0.00  0.00     0.002 A 
ENDBRANCH   1   2
BRANCH   1  12
ATOM     12  C   UNL d   1     -52.529  25.296  33.416  0.00  0.00     0.041 A 
ATOM     13  C   UNL d   1     -53.110  24.732  33.538  0.00  0.00     0.101 A 
ATOM     14  C   UNL d   1     -53.898  24.955  33.589  0.00  0.00     0.025 A 
ATOM     15  C   UNL d   1     -54.105  25.754  33.515  0.00  0.00     0.002 A 
ATOM     16  C   UNL d   1     -53.522  26.326  33.392  0.00  0.00     0.000 A 
ATOM     17  C   UNL d   1     -52.732  26.098  33.342  0.00  0.00     0.004 A 
BRANCH  13  18
ATOM     18  O   UNL d   1     -52.904  23.935  33.612  0.00  0.00    -0.307 OA
BRANCH  18  19
ATOM     19  C   UNL d   1     -53.291  23.458  34.166  0.00  0.00     0.100 C 
ATOM     20  C   UNL d   1     -52.917  23.253  34.868  0.00  0.00     0.027 C 
ATOM     21  C   UNL d   1     -54.055  23.190  34.012  0.00  0.00     0.027 C 
ENDBRANCH  18  19
ENDBRANCH  13  18
ENDBRANCH   1  12
TORSDOF 4
ENDMDL
