MODEL 1
REMARK VINA RESULT:      36.0      0.000      0.000
REMARK  2 active torsions:
REMARK  status: ('A' for Active; 'I' for Inactive)
REMARK    1  A    between atoms: C_9  and  C_3 
REMARK    2  A    between atoms: C_8  and  C_4 
ROOT
ATOM      1  N   UNL d   1     -52.369  25.616  33.339  0.00  0.00    -0.242 NA
ATOM      2  N   UNL d   1     -51.304  24.359  33.364  0.00  0.00    -0.242 NA
ATOM      3  C   UNL d   1     -51.558  25.762  33.346  0.00  0.00     0.099 A 
ATOM      4  C   UNL d   1     -51.029  25.137  33.359  0.00  0.00     0.099 A 
ATOM      5  C   UNL d   1     -52.644  24.842  33.343  0.00  0.00     0.101 A 
ATOM      6  C   UNL d   1     -52.114  24.218  33.356  0.00  0.00     0.099 A 
ATOM      7  C   UNL d   1     -53.452  24.699  33.336  0.00  0.00     0.042 A 
ATOM      8  C   UNL d   1     -52.387  23.441  33.361  0.00  0.00     0.022 A 
ATOM      9  C   UNL d   1     -53.729  23.923  33.341  0.00  0.00     0.104 A 
ATOM     10  N   UNL d   1     -54.534  23.783  33.333  0.00  0.00    -0.148 N 
ATOM     11  C   UNL d   1     -53.199  23.298  33.353  0.00  0.00     0.023 A 
ENDROOT
BRANCH   3  12
ATOM     12  C   UNL d   1     -51.287  26.533  33.341  0.00  0.00     0.019 A 
ATOM     13  C   UNL d   1     -50.469  26.685  33.367  0.00  0.00     0.002 A 
ATOM     14  C   UNL d   1     -50.187  27.465  33.362  0.00  0.00     0.000 A 
ATOM     15  C   UNL d   1     -50.725  28.100  33.332  0.00  0.00     0.000 A 
ATOM     16  C   UNL d   1     -51.546  27.940  33.307  0.00  0.00     0.000 A 
ATOM     17  C   UNL d   1     -51.820  27.163  33.312  0.00  0.00     0.002 A 
ENDBRANCH   3  12
BRANCH   4  18
ATOM     18  C   UNL d   1     -50.222  25.275  33.367  0.00  0.00     0.019 A 
ATOM     19  C   UNL d   1     -49.694  24.630  33.368  0.00  0.00     0.002 A 
ATOM     20  C   UNL d   1     -48.874  24.763  33.376  0.00  0.00     0.000 A 
ATOM     21  C   UNL d   1     -48.577  25.543  33.382  0.00  0.00     0.000 A 
ATOM     22  C   UNL d   1     -49.101  26.189  33.381  0.00  0.00     0.000 A 
ATOM     23  C   UNL d   1     -49.925  26.056  33.373  0.00  0.00     0.002 A 
ENDBRANCH   4  18
TORSDOF 2
ENDMDL
