MODEL 1
REMARK VINA RESULT:      -8.4      0.000      0.000
REMARK  2 active torsions:
REMARK  status: ('A' for Active; 'I' for Inactive)
REMARK    1  A    between atoms: C_3  and  C_1 
REMARK       I    between atoms: N_6  and  C_3 
REMARK    2  A    between atoms: C_11  and  N_6 
ROOT
ATOM      1  C   UNL d   1     -48.823  13.852  22.468  0.00  0.00     0.121 A 
ATOM      2  C   UNL d   1     -49.438  13.544  22.159  0.00  0.00     0.305 A 
ATOM      3  C   UNL d   1     -48.882  14.527  22.935  0.00  0.00     0.012 A 
ATOM      4  O   UNL d   1     -50.246  13.891  22.284  0.00  0.00    -0.273 OA
ATOM      5  C   UNL d   1     -49.603  14.893  23.086  0.00  0.00     0.023 A 
ATOM      6  C   UNL d   1     -50.294  14.571  22.756  0.00  0.00     0.103 A 
ATOM      7  O   UNL d   1     -49.407  12.847  21.673  0.00  0.00    -0.259 OA
ATOM      8  C   UNL d   1     -49.648  15.557  23.547  0.00  0.00     0.002 A 
ATOM      9  C   UNL d   1     -51.017  14.920  22.895  0.00  0.00     0.025 A 
ATOM     10  C   UNL d   1     -50.373  15.922  23.696  0.00  0.00     0.000 A 
ATOM     11  C   UNL d   1     -51.064  15.600  23.367  0.00  0.00     0.002 A 
ENDROOT
BRANCH   1  12
ATOM     12  C   UNL d   1     -48.085  13.496  22.327  0.00  0.00     0.284 C 
ATOM     13  N   UNL d   1     -47.605  13.431  22.886  0.00  0.00    -0.208 NA
ATOM     14  O   UNL d   1     -47.893  13.221  21.575  0.00  0.00    -0.265 OA
BRANCH  13  15
ATOM     15  C   UNL d   1     -46.818  13.074  22.824  0.00  0.00     0.087 A 
ATOM     16  C   UNL d   1     -46.213  13.329  22.336  0.00  0.00     0.049 A 
ATOM     17  C   UNL d   1     -45.484  12.948  22.320  0.00  0.00     0.142 A 
ATOM     18  F   UNL d   1     -44.882  13.206  21.832  0.00  0.00    -0.204 F 
ATOM     19  C   UNL d   1     -45.362  12.285  22.816  0.00  0.00     0.030 A 
ATOM     20  C   UNL d   1     -45.976  12.031  23.306  0.00  0.00     0.004 A 
ATOM     21  C   UNL d   1     -46.697  12.408  23.322  0.00  0.00     0.019 A 
ENDBRANCH  13  15
ENDBRANCH   1  12
TORSDOF 2
ENDMDL
MODEL 2
REMARK VINA RESULT:      -8.2      0.998      1.376
REMARK  2 active torsions:
REMARK  status: ('A' for Active; 'I' for Inactive)
REMARK    1  A    between atoms: C_3  and  C_1 
REMARK       I    between atoms: N_6  and  C_3 
REMARK    2  A    between atoms: C_11  and  N_6 
ROOT
ATOM      1  C   UNL d   1     -48.399  13.888  22.936  0.00  0.00     0.121 A 
ATOM      2  C   UNL d   1     -48.181  14.601  22.819  0.00  0.00     0.305 A 
ATOM      3  C   UNL d   1     -49.172  13.718  23.158  0.00  0.00     0.012 A 
ATOM      4  O   UNL d   1     -48.743  15.282  22.914  0.00  0.00    -0.273 OA
ATOM      5  C   UNL d   1     -49.738  14.306  23.262  0.00  0.00     0.023 A 
ATOM      6  C   UNL d   1     -49.520  15.099  23.138  0.00  0.00     0.103 A 
ATOM      7  O   UNL d   1     -47.389  14.806  22.589  0.00  0.00    -0.259 OA
ATOM      8  C   UNL d   1     -50.497  14.126  23.481  0.00  0.00     0.002 A 
ATOM      9  C   UNL d   1     -50.066  15.695  23.236  0.00  0.00     0.025 A 
ATOM     10  C   UNL d   1     -51.061  14.720  23.584  0.00  0.00     0.000 A 
ATOM     11  C   UNL d   1     -50.843  15.512  23.460  0.00  0.00     0.002 A 
ENDROOT
BRANCH   1  12
ATOM     12  C   UNL d   1     -47.842  13.279  22.836  0.00  0.00     0.284 C 
ATOM     13  N   UNL d   1     -47.536  12.971  23.435  0.00  0.00    -0.208 NA
ATOM     14  O   UNL d   1     -47.636  13.024  22.081  0.00  0.00    -0.265 OA
BRANCH  13  15
ATOM     15  C   UNL d   1     -46.950  12.333  23.418  0.00  0.00     0.087 A 
ATOM     16  C   UNL d   1     -46.174  12.401  23.167  0.00  0.00     0.049 A 
ATOM     17  C   UNL d   1     -45.662  11.757  23.174  0.00  0.00     0.142 A 
ATOM     18  F   UNL d   1     -44.888  11.829  22.923  0.00  0.00    -0.204 F 
ATOM     19  C   UNL d   1     -45.944  11.017  23.446  0.00  0.00     0.030 A 
ATOM     20  C   UNL d   1     -46.727  10.954  23.698  0.00  0.00     0.004 A 
ATOM     21  C   UNL d   1     -47.233  11.591  23.691  0.00  0.00     0.019 A 
ENDBRANCH  13  15
ENDBRANCH   1  12
TORSDOF 2
ENDMDL
MODEL 3
REMARK VINA RESULT:      -8.1      1.870      4.472
REMARK  2 active torsions:
REMARK  status: ('A' for Active; 'I' for Inactive)
REMARK    1  A    between atoms: C_3  and  C_1 
REMARK       I    between atoms: N_6  and  C_3 
REMARK    2  A    between atoms: C_11  and  N_6 
ROOT
ATOM      1  C   UNL d   1     -47.562  13.473  23.054  0.00  0.00     0.121 A 
ATOM      2  C   UNL d   1     -46.868  13.729  22.909  0.00  0.00     0.305 A 
ATOM      3  C   UNL d   1     -47.681  12.694  23.290  0.00  0.00     0.012 A 
ATOM      4  O   UNL d   1     -46.153  13.207  22.985  0.00  0.00    -0.273 OA
ATOM      5  C   UNL d   1     -47.057  12.164  23.378  0.00  0.00     0.023 A 
ATOM      6  C   UNL d   1     -46.284  12.424  23.223  0.00  0.00     0.103 A 
ATOM      7  O   UNL d   1     -46.716  14.529  22.664  0.00  0.00    -0.259 OA
ATOM      8  C   UNL d   1     -47.186  11.398  23.611  0.00  0.00     0.002 A 
ATOM      9  C   UNL d   1     -45.654  11.913  23.305  0.00  0.00     0.025 A 
ATOM     10  C   UNL d   1     -46.559  10.870  23.698  0.00  0.00     0.000 A 
ATOM     11  C   UNL d   1     -45.785  11.130  23.543  0.00  0.00     0.002 A 
ENDROOT
BRANCH   1  12
ATOM     12  C   UNL d   1     -48.205  13.993  22.972  0.00  0.00     0.284 C 
ATOM     13  N   UNL d   1     -48.872  13.717  22.810  0.00  0.00    -0.208 NA
ATOM     14  O   UNL d   1     -48.099  14.804  23.068  0.00  0.00    -0.265 OA
BRANCH  13  15
ATOM     15  C   UNL d   1     -49.591  14.189  22.707  0.00  0.00     0.087 A 
ATOM     16  C   UNL d   1     -49.840  14.798  23.194  0.00  0.00     0.049 A 
ATOM     17  C   UNL d   1     -50.535  15.212  23.045  0.00  0.00     0.142 A 
ATOM     18  F   UNL d   1     -50.780  15.818  23.533  0.00  0.00    -0.204 F 
ATOM     19  C   UNL d   1     -50.996  15.002  22.379  0.00  0.00     0.030 A 
ATOM     20  C   UNL d   1     -50.742  14.388  21.891  0.00  0.00     0.004 A 
ATOM     21  C   UNL d   1     -50.054  13.979  22.038  0.00  0.00     0.019 A 
ENDBRANCH  13  15
ENDBRANCH   1  12
TORSDOF 2
ENDMDL
MODEL 4
REMARK VINA RESULT:      -7.8      1.939      4.421
REMARK  2 active torsions:
REMARK  status: ('A' for Active; 'I' for Inactive)
REMARK    1  A    between atoms: C_3  and  C_1 
REMARK       I    between atoms: N_6  and  C_3 
REMARK    2  A    between atoms: C_11  and  N_6 
ROOT
ATOM      1  C   UNL d   1     -48.357  12.392  23.289  0.00  0.00     0.121 A 
ATOM      2  C   UNL d   1     -48.443  11.686  23.541  0.00  0.00     0.305 A 
ATOM      3  C   UNL d   1     -47.606  12.697  23.148  0.00  0.00     0.012 A 
ATOM      4  O   UNL d   1     -47.746  11.158  23.695  0.00  0.00    -0.273 OA
ATOM      5  C   UNL d   1     -46.924  12.256  23.272  0.00  0.00     0.023 A 
ATOM      6  C   UNL d   1     -46.995  11.475  23.549  0.00  0.00     0.103 A 
ATOM      7  O   UNL d   1     -49.206  11.345  23.696  0.00  0.00    -0.259 OA
ATOM      8  C   UNL d   1     -46.189  12.567  23.129  0.00  0.00     0.002 A 
ATOM      9  C   UNL d   1     -46.330  11.023  23.678  0.00  0.00     0.025 A 
ATOM     10  C   UNL d   1     -45.507  12.121  23.255  0.00  0.00     0.000 A 
ATOM     11  C   UNL d   1     -45.578  11.340  23.532  0.00  0.00     0.002 A 
ENDROOT
BRANCH   1  12
ATOM     12  C   UNL d   1     -49.035  12.854  23.158  0.00  0.00     0.284 C 
ATOM     13  N   UNL d   1     -49.035  13.340  22.599  0.00  0.00    -0.208 NA
ATOM     14  O   UNL d   1     -49.695  12.772  23.642  0.00  0.00    -0.265 OA
BRANCH  13  15
ATOM     15  C   UNL d   1     -49.699  13.859  22.395  0.00  0.00     0.087 A 
ATOM     16  C   UNL d   1     -49.909  14.546  22.786  0.00  0.00     0.049 A 
ATOM     17  C   UNL d   1     -50.552  14.999  22.545  0.00  0.00     0.142 A 
ATOM     18  F   UNL d   1     -50.759  15.684  22.937  0.00  0.00    -0.204 F 
ATOM     19  C   UNL d   1     -50.999  14.747  21.883  0.00  0.00     0.030 A 
ATOM     20  C   UNL d   1     -50.783  14.054  21.492  0.00  0.00     0.004 A 
ATOM     21  C   UNL d   1     -50.147  13.606  21.731  0.00  0.00     0.019 A 
ENDBRANCH  13  15
ENDBRANCH   1  12
TORSDOF 2
ENDMDL
MODEL 5
REMARK VINA RESULT:      -7.6      1.701      2.217
REMARK  2 active torsions:
REMARK  status: ('A' for Active; 'I' for Inactive)
REMARK    1  A    between atoms: C_3  and  C_1 
REMARK       I    between atoms: N_6  and  C_3 
REMARK    2  A    between atoms: C_11  and  N_6 
ROOT
ATOM      1  C   UNL d   1     -48.098  12.323  23.230  0.00  0.00     0.121 A 
ATOM      2  C   UNL d   1     -48.283  11.593  23.285  0.00  0.00     0.305 A 
ATOM      3  C   UNL d   1     -48.678  12.905  23.258  0.00  0.00     0.012 A 
ATOM      4  O   UNL d   1     -49.126  11.332  23.381  0.00  0.00    -0.273 OA
ATOM      5  C   UNL d   1     -49.476  12.724  23.345  0.00  0.00     0.023 A 
ATOM      6  C   UNL d   1     -49.703  11.927  23.408  0.00  0.00     0.103 A 
ATOM      7  O   UNL d   1     -47.704  10.971  23.260  0.00  0.00    -0.259 OA
ATOM      8  C   UNL d   1     -50.038  13.307  23.371  0.00  0.00     0.002 A 
ATOM      9  C   UNL d   1     -50.488  11.729  23.495  0.00  0.00     0.025 A 
ATOM     10  C   UNL d   1     -50.837  13.121  23.458  0.00  0.00     0.000 A 
ATOM     11  C   UNL d   1     -51.064  12.324  23.521  0.00  0.00     0.002 A 
ENDROOT
BRANCH   1  12
ATOM     12  C   UNL d   1     -47.297  12.525  23.141  0.00  0.00     0.284 C 
ATOM     13  N   UNL d   1     -47.093  12.936  22.561  0.00  0.00    -0.208 NA
ATOM     14  O   UNL d   1     -46.740  12.272  23.692  0.00  0.00    -0.265 OA
BRANCH  13  15
ATOM     15  C   UNL d   1     -46.281  13.191  22.395  0.00  0.00     0.087 A 
ATOM     16  C   UNL d   1     -45.668  12.709  22.146  0.00  0.00     0.049 A 
ATOM     17  C   UNL d   1     -44.915  13.008  22.004  0.00  0.00     0.142 A 
ATOM     18  F   UNL d   1     -44.307  12.524  21.756  0.00  0.00    -0.204 F 
ATOM     19  C   UNL d   1     -44.777  13.826  22.118  0.00  0.00     0.030 A 
ATOM     20  C   UNL d   1     -45.397  14.308  22.369  0.00  0.00     0.004 A 
ATOM     21  C   UNL d   1     -46.142  14.011  22.509  0.00  0.00     0.019 A 
ENDBRANCH  13  15
ENDBRANCH   1  12
TORSDOF 2
ENDMDL
MODEL 6
REMARK VINA RESULT:      -7.5      2.449      5.049
REMARK  2 active torsions:
REMARK  status: ('A' for Active; 'I' for Inactive)
REMARK    1  A    between atoms: C_3  and  C_1 
REMARK       I    between atoms: N_6  and  C_3 
REMARK    2  A    between atoms: C_11  and  N_6 
ROOT
ATOM      1  C   UNL d   1     -46.337  11.972  23.152  0.00  0.00     0.121 A 
ATOM      2  C   UNL d   1     -45.836  12.444  22.843  0.00  0.00     0.305 A 
ATOM      3  C   UNL d   1     -46.099  11.240  23.442  0.00  0.00     0.012 A 
ATOM      4  O   UNL d   1     -44.976  12.234  22.778  0.00  0.00    -0.273 OA
ATOM      5  C   UNL d   1     -45.316  10.990  23.409  0.00  0.00     0.023 A 
ATOM      6  C   UNL d   1     -44.747  11.494  23.073  0.00  0.00     0.103 A 
ATOM      7  O   UNL d   1     -46.054  13.206  22.536  0.00  0.00    -0.259 OA
ATOM      8  C   UNL d   1     -45.094  10.266  23.698  0.00  0.00     0.002 A 
ATOM      9  C   UNL d   1     -43.967  11.263  23.032  0.00  0.00     0.025 A 
ATOM     10  C   UNL d   1     -44.307  10.020  23.664  0.00  0.00     0.000 A 
ATOM     11  C   UNL d   1     -43.738  10.523  23.327  0.00  0.00     0.002 A 
ENDROOT
BRANCH   1  12
ATOM     12  C   UNL d   1     -47.133  12.207  23.194  0.00  0.00     0.284 C 
ATOM     13  N   UNL d   1     -47.656  11.749  22.940  0.00  0.00    -0.208 NA
ATOM     14  O   UNL d   1     -47.335  12.938  23.513  0.00  0.00    -0.265 OA
BRANCH  13  15
ATOM     15  C   UNL d   1     -48.506  11.917  22.947  0.00  0.00     0.087 A 
ATOM     16  C   UNL d   1     -48.926  12.296  22.355  0.00  0.00     0.049 A 
ATOM     17  C   UNL d   1     -49.735  12.427  22.418  0.00  0.00     0.142 A 
ATOM     18  F   UNL d   1     -50.150  12.806  21.826  0.00  0.00    -0.204 F 
ATOM     19  C   UNL d   1     -50.136  12.165  23.105  0.00  0.00     0.030 A 
ATOM     20  C   UNL d   1     -49.710  11.784  23.698  0.00  0.00     0.004 A 
ATOM     21  C   UNL d   1     -48.909  11.654  23.636  0.00  0.00     0.019 A 
ENDBRANCH  13  15
ENDBRANCH   1  12
TORSDOF 2
ENDMDL
MODEL 7
REMARK VINA RESULT:      -7.4      1.850      2.730
REMARK  2 active torsions:
REMARK  status: ('A' for Active; 'I' for Inactive)
REMARK    1  A    between atoms: C_3  and  C_1 
REMARK       I    between atoms: N_6  and  C_3 
REMARK    2  A    between atoms: C_11  and  N_6 
ROOT
ATOM      1  C   UNL d   1     -47.184  12.488  23.388  0.00  0.00     0.121 A 
ATOM      2  C   UNL d   1     -47.364  13.215  23.293  0.00  0.00     0.305 A 
ATOM      3  C   UNL d   1     -47.772  11.917  23.459  0.00  0.00     0.012 A 
ATOM      4  O   UNL d   1     -48.209  13.485  23.252  0.00  0.00    -0.273 OA
ATOM      5  C   UNL d   1     -48.572  12.107  23.429  0.00  0.00     0.023 A 
ATOM      6  C   UNL d   1     -48.793  12.901  23.324  0.00  0.00     0.103 A 
ATOM      7  O   UNL d   1     -46.777  13.825  23.217  0.00  0.00    -0.259 OA
ATOM      8  C   UNL d   1     -49.142  11.536  23.500  0.00  0.00     0.002 A 
ATOM      9  C   UNL d   1     -49.580  13.108  23.292  0.00  0.00     0.025 A 
ATOM     10  C   UNL d   1     -49.944  11.730  23.469  0.00  0.00     0.000 A 
ATOM     11  C   UNL d   1     -50.165  12.525  23.364  0.00  0.00     0.002 A 
ENDROOT
BRANCH   1  12
ATOM     12  C   UNL d   1     -46.381  12.277  23.421  0.00  0.00     0.284 C 
ATOM     13  N   UNL d   1     -46.179  11.599  23.202  0.00  0.00    -0.208 NA
ATOM     14  O   UNL d   1     -45.820  12.814  23.694  0.00  0.00    -0.265 OA
BRANCH  13  15
ATOM     15  C   UNL d   1     -45.366  11.301  23.204  0.00  0.00     0.087 A 
ATOM     16  C   UNL d   1     -44.729  11.639  22.818  0.00  0.00     0.049 A 
ATOM     17  C   UNL d   1     -43.976  11.309  22.857  0.00  0.00     0.142 A 
ATOM     18  F   UNL d   1     -43.344  11.649  22.471  0.00  0.00    -0.204 F 
ATOM     19  C   UNL d   1     -43.864  10.609  23.303  0.00  0.00     0.030 A 
ATOM     20  C   UNL d   1     -44.509  10.272  23.691  0.00  0.00     0.004 A 
ATOM     21  C   UNL d   1     -45.253  10.599  23.652  0.00  0.00     0.019 A 
ENDBRANCH  13  15
ENDBRANCH   1  12
TORSDOF 2
ENDMDL
MODEL 8
REMARK VINA RESULT:      -7.1      7.969     10.440
REMARK  2 active torsions:
REMARK  status: ('A' for Active; 'I' for Inactive)
REMARK    1  A    between atoms: C_3  and  C_1 
REMARK       I    between atoms: N_6  and  C_3 
REMARK    2  A    between atoms: C_11  and  N_6 
ROOT
ATOM      1  C   UNL d   1     -39.666  14.398  17.610  0.00  0.00     0.121 A 
ATOM      2  C   UNL d   1     -39.420  13.717  17.398  0.00  0.00     0.305 A 
ATOM      3  C   UNL d   1     -39.438  15.072  17.197  0.00  0.00     0.012 A 
ATOM      4  O   UNL d   1     -38.880  13.612  16.700  0.00  0.00    -0.273 OA
ATOM      5  C   UNL d   1     -38.940  15.038  16.544  0.00  0.00     0.023 A 
ATOM      6  C   UNL d   1     -38.657  14.298  16.292  0.00  0.00     0.103 A 
ATOM      7  O   UNL d   1     -39.639  13.003  17.805  0.00  0.00    -0.259 OA
ATOM      8  C   UNL d   1     -38.722  15.709  16.145  0.00  0.00     0.002 A 
ATOM      9  C   UNL d   1     -38.163  14.245  15.647  0.00  0.00     0.025 A 
ATOM     10  C   UNL d   1     -38.222  15.670  15.490  0.00  0.00     0.000 A 
ATOM     11  C   UNL d   1     -37.939  14.931  15.238  0.00  0.00     0.002 A 
ENDROOT
BRANCH   1  12
ATOM     12  C   UNL d   1     -40.170  14.453  18.268  0.00  0.00     0.284 C 
ATOM     13  N   UNL d   1     -39.942  14.827  18.864  0.00  0.00    -0.208 NA
ATOM     14  O   UNL d   1     -40.911  14.096  18.255  0.00  0.00    -0.265 OA
BRANCH  13  15
ATOM     15  C   UNL d   1     -40.405  14.931  19.589  0.00  0.00     0.087 A 
ATOM     16  C   UNL d   1     -40.619  14.340  20.112  0.00  0.00     0.049 A 
ATOM     17  C   UNL d   1     -41.061  14.500  20.787  0.00  0.00     0.142 A 
ATOM     18  F   UNL d   1     -41.272  13.907  21.306  0.00  0.00    -0.204 F 
ATOM     19  C   UNL d   1     -41.296  15.289  20.939  0.00  0.00     0.030 A 
ATOM     20  C   UNL d   1     -41.078  15.882  20.409  0.00  0.00     0.004 A 
ATOM     21  C   UNL d   1     -40.640  15.723  19.742  0.00  0.00     0.019 A 
ENDBRANCH  13  15
ENDBRANCH   1  12
TORSDOF 2
ENDMDL
MODEL 9
REMARK VINA RESULT:      -6.5      8.666      9.279
REMARK  2 active torsions:
REMARK  status: ('A' for Active; 'I' for Inactive)
REMARK    1  A    between atoms: C_3  and  C_1 
REMARK       I    between atoms: N_6  and  C_3 
REMARK    2  A    between atoms: C_11  and  N_6 
ROOT
ATOM      1  C   UNL d   1     -40.222  14.818  19.861  0.00  0.00     0.121 A 
ATOM      2  C   UNL d   1     -40.561  15.490  19.904  0.00  0.00     0.305 A 
ATOM      3  C   UNL d   1     -40.092  14.460  19.132  0.00  0.00     0.012 A 
ATOM      4  O   UNL d   1     -40.833  15.922  19.177  0.00  0.00    -0.273 OA
ATOM      5  C   UNL d   1     -40.322  14.811  18.425  0.00  0.00     0.023 A 
ATOM      6  C   UNL d   1     -40.698  15.552  18.447  0.00  0.00     0.103 A 
ATOM      7  O   UNL d   1     -40.708  15.884  20.643  0.00  0.00    -0.259 OA
ATOM      8  C   UNL d   1     -40.189  14.448  17.713  0.00  0.00     0.002 A 
ATOM      9  C   UNL d   1     -40.932  15.915  17.757  0.00  0.00     0.025 A 
ATOM     10  C   UNL d   1     -40.421  14.804  17.005  0.00  0.00     0.000 A 
ATOM     11  C   UNL d   1     -40.797  15.545  17.028  0.00  0.00     0.002 A 
ENDROOT
BRANCH   1  12
ATOM     12  C   UNL d   1     -39.982  14.447  20.565  0.00  0.00     0.284 C 
ATOM     13  N   UNL d   1     -39.259  14.400  20.718  0.00  0.00    -0.208 NA
ATOM     14  O   UNL d   1     -40.541  14.137  21.084  0.00  0.00    -0.265 OA
BRANCH  13  15
ATOM     15  C   UNL d   1     -38.927  14.030  21.428  0.00  0.00     0.087 A 
ATOM     16  C   UNL d   1     -39.106  14.228  22.201  0.00  0.00     0.049 A 
ATOM     17  C   UNL d   1     -38.757  13.840  22.837  0.00  0.00     0.142 A 
ATOM     18  F   UNL d   1     -38.939  14.041  23.607  0.00  0.00    -0.204 F 
ATOM     19  C   UNL d   1     -38.206  13.229  22.685  0.00  0.00     0.030 A 
ATOM     20  C   UNL d   1     -38.028  13.033  21.904  0.00  0.00     0.004 A 
ATOM     21  C   UNL d   1     -38.374  13.417  21.275  0.00  0.00     0.019 A 
ENDBRANCH  13  15
ENDBRANCH   1  12
TORSDOF 2
ENDMDL
