MODEL 1
REMARK VINA RESULT:      -8.5      0.000      0.000
REMARK  4 active torsions:
REMARK  status: ('A' for Active; 'I' for Inactive)
REMARK    1  A    between atoms: C_3  and  C_1 
REMARK    2  A    between atoms: N_2  and  C_9 
REMARK    3  A    between atoms: N_6  and  C_3 
REMARK    4  A    between atoms: C_10  and  C_5 
ROOT
ATOM      1  C   UNL d   1     -49.737  12.718  23.124  0.00  0.00     0.126 A 
ATOM      2  O   UNL d   1     -48.991  12.858  23.462  0.00  0.00    -0.305 OA
ATOM      3  C   UNL d   1     -48.464  12.338  23.104  0.00  0.00     0.100 A 
ATOM      4  C   UNL d   1     -49.643  12.134  22.587  0.00  0.00     0.029 A 
ATOM      5  C   UNL d   1     -48.879  11.895  22.566  0.00  0.00     0.027 A 
ENDROOT
BRANCH   3   6
ATOM      6  C   UNL d   1     -47.650  12.213  23.205  0.00  0.00     0.024 A 
ATOM      7  C   UNL d   1     -47.106  12.781  22.913  0.00  0.00     0.025 A 
ATOM      8  C   UNL d   1     -46.291  12.656  23.014  0.00  0.00     0.127 A 
ATOM      9  C   UNL d   1     -46.020  11.973  23.401  0.00  0.00     0.024 A 
ATOM     10  C   UNL d   1     -46.560  11.425  23.681  0.00  0.00     0.002 A 
ATOM     11  C   UNL d   1     -47.370  11.549  23.582  0.00  0.00     0.002 A 
BRANCH   8  12
ATOM     12  N   UNL d   1     -45.762  13.207  22.731  0.00  0.00    -0.114 N 
ATOM     13  O   UNL d   1     -45.092  13.012  22.277  0.00  0.00    -0.532 OA
ATOM     14  O   UNL d   1     -45.818  14.010  22.853  0.00  0.00    -0.532 OA
ENDBRANCH   8  12
ENDBRANCH   3   6
BRANCH   1  15
ATOM     15  C   UNL d   1     -50.467  13.091  23.286  0.00  0.00     0.143 C 
ATOM     16  S   UNL d   1     -51.064  12.705  23.685  0.00  0.00    -0.057 SA
BRANCH  15  17
ATOM     17  N   UNL d   1     -50.607  13.872  23.043  0.00  0.00    -0.290 N 
ATOM     18  C   UNL d   1     -50.927  13.990  22.310  0.00  0.00     0.108 A 
ATOM     19  C   UNL d   1     -51.064  14.772  22.074  0.00  0.00     0.142 A 
ATOM     20  O   UNL d   1     -50.888  15.382  22.552  0.00  0.00    -0.300 OA
ATOM     21  C   UNL d   1     -50.576  15.284  23.273  0.00  0.00     0.142 A 
ATOM     22  C   UNL d   1     -50.425  14.487  23.536  0.00  0.00     0.108 A 
ENDBRANCH  15  17
ENDBRANCH   1  15
TORSDOF 4
ENDMDL
MODEL 2
REMARK VINA RESULT:      -5.9      9.412     10.534
REMARK  4 active torsions:
REMARK  status: ('A' for Active; 'I' for Inactive)
REMARK    1  A    between atoms: C_3  and  C_1 
REMARK    2  A    between atoms: N_2  and  C_9 
REMARK    3  A    between atoms: N_6  and  C_3 
REMARK    4  A    between atoms: C_10  and  C_5 
ROOT
ATOM      1  C   UNL d   1     -40.346  15.107  18.074  0.00  0.00     0.126 A 
ATOM      2  O   UNL d   1     -40.043  15.519  18.730  0.00  0.00    -0.305 OA
ATOM      3  C   UNL d   1     -40.253  15.089  19.399  0.00  0.00     0.100 A 
ATOM      4  C   UNL d   1     -40.719  14.460  18.357  0.00  0.00     0.029 A 
ATOM      5  C   UNL d   1     -40.670  14.437  19.156  0.00  0.00     0.027 A 
ENDROOT
BRANCH   3   6
ATOM      6  C   UNL d   1     -40.114  15.214  20.208  0.00  0.00     0.024 A 
ATOM      7  C   UNL d   1     -39.560  14.729  20.611  0.00  0.00     0.025 A 
ATOM      8  C   UNL d   1     -39.420  14.854  21.420  0.00  0.00     0.127 A 
ATOM      9  C   UNL d   1     -39.826  15.454  21.824  0.00  0.00     0.024 A 
ATOM     10  C   UNL d   1     -40.364  15.922  21.421  0.00  0.00     0.002 A 
ATOM     11  C   UNL d   1     -40.504  15.798  20.617  0.00  0.00     0.002 A 
BRANCH   8  12
ATOM     12  N   UNL d   1     -38.883  14.383  21.812  0.00  0.00    -0.114 N 
ATOM     13  O   UNL d   1     -39.080  13.655  22.165  0.00  0.00    -0.532 OA
ATOM     14  O   UNL d   1     -38.094  14.560  21.909  0.00  0.00    -0.532 OA
ENDBRANCH   8  12
ENDBRANCH   3   6
BRANCH   1  15
ATOM     15  C   UNL d   1     -40.292  15.299  17.263  0.00  0.00     0.143 C 
ATOM     16  S   UNL d   1     -40.945  15.548  16.840  0.00  0.00    -0.057 SA
BRANCH  15  17
ATOM     17  N   UNL d   1     -39.570  15.241  16.859  0.00  0.00    -0.290 N 
ATOM     18  C   UNL d   1     -39.154  15.922  16.727  0.00  0.00     0.108 A 
ATOM     19  C   UNL d   1     -38.434  15.857  16.323  0.00  0.00     0.142 A 
ATOM     20  O   UNL d   1     -38.164  15.151  16.076  0.00  0.00    -0.300 OA
ATOM     21  C   UNL d   1     -38.558  14.476  16.198  0.00  0.00     0.142 A 
ATOM     22  C   UNL d   1     -39.303  14.519  16.612  0.00  0.00     0.108 A 
ENDBRANCH  15  17
ENDBRANCH   1  15
TORSDOF 4
ENDMDL
MODEL 3
REMARK VINA RESULT:      -5.6      9.100     10.339
REMARK  4 active torsions:
REMARK  status: ('A' for Active; 'I' for Inactive)
REMARK    1  A    between atoms: C_3  and  C_1 
REMARK    2  A    between atoms: N_2  and  C_9 
REMARK    3  A    between atoms: N_6  and  C_3 
REMARK    4  A    between atoms: C_10  and  C_5 
ROOT
ATOM      1  C   UNL d   1     -39.969  14.968  20.732  0.00  0.00     0.126 A 
ATOM      2  O   UNL d   1     -39.559  14.894  20.013  0.00  0.00    -0.305 OA
ATOM      3  C   UNL d   1     -40.113  14.684  19.442  0.00  0.00     0.100 A 
ATOM      4  C   UNL d   1     -40.736  14.806  20.581  0.00  0.00     0.029 A 
ATOM      5  C   UNL d   1     -40.837  14.633  19.805  0.00  0.00     0.027 A 
ENDROOT
BRANCH   3   6
ATOM      6  C   UNL d   1     -40.045  14.533  18.629  0.00  0.00     0.024 A 
ATOM      7  C   UNL d   1     -39.502  13.952  18.362  0.00  0.00     0.025 A 
ATOM      8  C   UNL d   1     -39.434  13.800  17.548  0.00  0.00     0.127 A 
ATOM      9  C   UNL d   1     -39.900  14.221  17.006  0.00  0.00     0.024 A 
ATOM     10  C   UNL d   1     -40.427  14.785  17.278  0.00  0.00     0.002 A 
ATOM     11  C   UNL d   1     -40.496  14.937  18.086  0.00  0.00     0.002 A 
BRANCH   8  12
ATOM     12  N   UNL d   1     -38.906  13.236  17.288  0.00  0.00    -0.114 N 
ATOM     13  O   UNL d   1     -38.265  13.403  16.784  0.00  0.00    -0.532 OA
ATOM     14  O   UNL d   1     -38.937  12.446  17.483  0.00  0.00    -0.532 OA
ENDBRANCH   8  12
ENDBRANCH   3   6
BRANCH   1  15
ATOM     15  C   UNL d   1     -39.674  15.171  21.487  0.00  0.00     0.143 C 
ATOM     16  S   UNL d   1     -39.838  15.894  21.829  0.00  0.00    -0.057 SA
BRANCH  15  17
ATOM     17  N   UNL d   1     -39.203  14.639  21.916  0.00  0.00    -0.290 N 
ATOM     18  C   UNL d   1     -38.404  14.761  21.922  0.00  0.00     0.108 A 
ATOM     19  C   UNL d   1     -37.940  14.226  22.353  0.00  0.00     0.142 A 
ATOM     20  O   UNL d   1     -38.270  13.619  22.743  0.00  0.00    -0.300 OA
ATOM     21  C   UNL d   1     -39.050  13.485  22.747  0.00  0.00     0.142 A 
ATOM     22  C   UNL d   1     -39.547  14.023  22.311  0.00  0.00     0.108 A 
ENDBRANCH  15  17
ENDBRANCH   1  15
TORSDOF 4
ENDMDL
MODEL 4
REMARK VINA RESULT:      -5.6      9.510     10.856
REMARK  4 active torsions:
REMARK  status: ('A' for Active; 'I' for Inactive)
REMARK    1  A    between atoms: C_3  and  C_1 
REMARK    2  A    between atoms: N_2  and  C_9 
REMARK    3  A    between atoms: N_6  and  C_3 
REMARK    4  A    between atoms: C_10  and  C_5 
ROOT
ATOM      1  C   UNL d   1     -40.019  14.839  19.209  0.00  0.00     0.126 A 
ATOM      2  O   UNL d   1     -39.295  14.653  18.846  0.00  0.00    -0.305 OA
ATOM      3  C   UNL d   1     -39.461  14.117  18.244  0.00  0.00     0.100 A 
ATOM      4  C   UNL d   1     -40.585  14.424  18.827  0.00  0.00     0.029 A 
ATOM      5  C   UNL d   1     -40.261  13.983  18.242  0.00  0.00     0.027 A 
ENDROOT
BRANCH   3   6
ATOM      6  C   UNL d   1     -38.974  13.732  17.692  0.00  0.00     0.024 A 
ATOM      7  C   UNL d   1     -38.791  14.113  16.967  0.00  0.00     0.025 A 
ATOM      8  C   UNL d   1     -38.305  13.728  16.415  0.00  0.00     0.127 A 
ATOM      9  C   UNL d   1     -38.004  12.973  16.582  0.00  0.00     0.024 A 
ATOM     10  C   UNL d   1     -38.189  12.610  17.292  0.00  0.00     0.002 A 
ATOM     11  C   UNL d   1     -38.672  12.993  17.841  0.00  0.00     0.002 A 
BRANCH   8  12
ATOM     12  N   UNL d   1     -38.126  14.097  15.711  0.00  0.00    -0.114 N 
ATOM     13  O   UNL d   1     -38.066  13.696  14.983  0.00  0.00    -0.532 OA
ATOM     14  O   UNL d   1     -37.986  14.895  15.627  0.00  0.00    -0.532 OA
ENDBRANCH   8  12
ENDBRANCH   3   6
BRANCH   1  15
ATOM     15  C   UNL d   1     -40.170  15.354  19.849  0.00  0.00     0.143 C 
ATOM     16  S   UNL d   1     -40.755  15.922  19.811  0.00  0.00    -0.057 SA
BRANCH  15  17
ATOM     17  N   UNL d   1     -39.726  15.305  20.548  0.00  0.00    -0.290 N 
ATOM     18  C   UNL d   1     -39.113  15.823  20.646  0.00  0.00     0.108 A 
ATOM     19  C   UNL d   1     -38.674  15.768  21.346  0.00  0.00     0.142 A 
ATOM     20  O   UNL d   1     -38.850  15.225  21.899  0.00  0.00    -0.300 OA
ATOM     21  C   UNL d   1     -39.446  14.711  21.820  0.00  0.00     0.142 A 
ATOM     22  C   UNL d   1     -39.912  14.750  21.106  0.00  0.00     0.108 A 
ENDBRANCH  15  17
ENDBRANCH   1  15
TORSDOF 4
ENDMDL
