MODEL 1
REMARK VINA RESULT:       6.2      0.000      0.000
REMARK  3 active torsions:
REMARK  status: ('A' for Active; 'I' for Inactive)
REMARK    1  A    between atoms: C_8  and  C_1 
REMARK    2  A    between atoms: O_12  and  C_8 
REMARK    3  A    between atoms: C_21  and  O_12 
ROOT
ATOM      1  C   UNL d   1     -41.657-122.196 -51.939  0.00  0.00     0.084 A 
ATOM      2  C   UNL d   1     -41.803-122.381 -51.161  0.00  0.00     0.065 A 
ATOM      3  C   UNL d   1     -41.708-121.661 -50.688  0.00  0.00     0.107 A 
ATOM      4  N   UNL d   1     -41.507-121.046 -51.173  0.00  0.00    -0.302 N 
ATOM      5  C   UNL d   1     -41.475-121.380 -51.949  0.00  0.00     0.070 A 
ATOM      6  C   UNL d   1     -42.008-123.097 -50.813  0.00  0.00     0.197 A 
ATOM      7  C   UNL d   1     -41.819-121.661 -49.871  0.00  0.00     0.212 A 
ATOM      8  C   UNL d   1     -42.117-123.097 -50.007  0.00  0.00     0.042 A 
ATOM      9  C   UNL d   1     -42.022-122.377 -49.534  0.00  0.00     0.043 A 
ATOM     10  C   UNL d   1     -41.346-120.219 -51.013  0.00  0.00     0.080 A 
ATOM     11  C   UNL d   1     -41.282-120.883 -52.562  0.00  0.00     0.018 A 
ATOM     12  O   UNL d   1     -42.101-123.805 -51.278  0.00  0.00    -0.286 OA
ATOM     13  O   UNL d   1     -41.727-120.957 -49.403  0.00  0.00    -0.285 OA
ATOM     14  C   UNL d   1     -41.155-119.729 -51.625  0.00  0.00     0.019 A 
ATOM     15  C   UNL d   1     -41.123-120.064 -52.407  0.00  0.00     0.003 A 
ATOM     16  C   UNL d   1     -42.323-123.817 -49.662  0.00  0.00     0.003 A 
ATOM     17  C   UNL d   1     -42.134-122.386 -48.722  0.00  0.00     0.003 A 
ATOM     18  C   UNL d   1     -42.433-123.816 -48.849  0.00  0.00     0.000 A 
ATOM     19  C   UNL d   1     -42.339-123.103 -48.382  0.00  0.00     0.000 A 
ENDROOT
BRANCH   1  20
ATOM     20  C   UNL d   1     -41.689-122.743 -52.594  0.00  0.00     0.302 C 
ATOM     21  O   UNL d   1     -41.200-123.388 -52.597  0.00  0.00    -0.259 OA
BRANCH  20  22
ATOM     22  O   UNL d   1     -42.207-122.640 -53.235  0.00  0.00    -0.273 OA
BRANCH  22  23
ATOM     23  C   UNL d   1     -42.059-122.995 -54.006  0.00  0.00     0.103 C 
ATOM     24  C   UNL d   1     -41.815-123.814 -54.054  0.00  0.00     0.027 C 
ATOM     25  C   UNL d   1     -42.156-122.535 -54.717  0.00  0.00     0.027 C 
ENDBRANCH  22  23
ENDBRANCH  20  22
ENDBRANCH   1  20
TORSDOF 3
ENDMDL
MODEL 2
REMARK VINA RESULT:       7.2      1.540      2.211
REMARK  3 active torsions:
REMARK  status: ('A' for Active; 'I' for Inactive)
REMARK    1  A    between atoms: C_8  and  C_1 
REMARK    2  A    between atoms: O_12  and  C_8 
REMARK    3  A    between atoms: C_21  and  O_12 
ROOT
ATOM      1  C   UNL d   1     -42.535-122.778 -50.629  0.00  0.00     0.084 A 
ATOM      2  C   UNL d   1     -42.377-122.922 -49.845  0.00  0.00     0.065 A 
ATOM      3  C   UNL d   1     -43.014-122.572 -49.372  0.00  0.00     0.107 A 
ATOM      4  N   UNL d   1     -43.550-122.220 -49.863  0.00  0.00    -0.302 N 
ATOM      5  C   UNL d   1     -43.252-122.349 -50.643  0.00  0.00     0.070 A 
ATOM      6  C   UNL d   1     -41.750-123.319 -49.491  0.00  0.00     0.197 A 
ATOM      7  C   UNL d   1     -43.019-122.621 -48.549  0.00  0.00     0.212 A 
ATOM      8  C   UNL d   1     -41.756-123.367 -48.679  0.00  0.00     0.042 A 
ATOM      9  C   UNL d   1     -42.393-123.017 -48.206  0.00  0.00     0.043 A 
ATOM     10  C   UNL d   1     -44.279-121.795 -49.706  0.00  0.00     0.080 A 
ATOM     11  C   UNL d   1     -43.685-122.051 -51.263  0.00  0.00     0.018 A 
ATOM     12  O   UNL d   1     -41.124-123.663 -49.956  0.00  0.00    -0.286 OA
ATOM     13  O   UNL d   1     -43.642-122.279 -48.080  0.00  0.00    -0.285 OA
ATOM     14  C   UNL d   1     -44.706-121.501 -50.324  0.00  0.00     0.019 A 
ATOM     15  C   UNL d   1     -44.405-121.630 -51.111  0.00  0.00     0.003 A 
ATOM     16  C   UNL d   1     -41.125-123.766 -48.328  0.00  0.00     0.003 A 
ATOM     17  C   UNL d   1     -42.390-123.070 -47.388  0.00  0.00     0.003 A 
ATOM     18  C   UNL d   1     -41.132-123.813 -47.509  0.00  0.00     0.000 A 
ATOM     19  C   UNL d   1     -41.762-123.467 -47.041  0.00  0.00     0.000 A 
ENDROOT
BRANCH   1  20
ATOM     20  C   UNL d   1     -42.049-123.026 -51.287  0.00  0.00     0.302 C 
ATOM     21  O   UNL d   1     -41.953-123.816 -51.434  0.00  0.00    -0.259 OA
BRANCH  20  22
ATOM     22  O   UNL d   1     -41.666-122.484 -51.786  0.00  0.00    -0.273 OA
BRANCH  22  23
ATOM     23  C   UNL d   1     -41.399-122.698 -52.577  0.00  0.00     0.103 C 
ATOM     24  C   UNL d   1     -41.150-123.502 -52.736  0.00  0.00     0.027 C 
ATOM     25  C   UNL d   1     -41.384-122.115 -53.199  0.00  0.00     0.027 C 
ENDBRANCH  22  23
ENDBRANCH  20  22
ENDBRANCH   1  20
TORSDOF 3
ENDMDL
