MODEL 1
REMARK VINA RESULT:      10.0      0.000      0.000
REMARK  6 active torsions:
REMARK  status: ('A' for Active; 'I' for Inactive)
REMARK    1  A    between atoms: C_2  and  S_1 
REMARK    2  A    between atoms: N_7  and  S_1 
REMARK    3  A    between atoms: C_15  and  N_7 
REMARK    4  A    between atoms: C_14  and  O_21 
REMARK    5  A    between atoms: C_24  and  C_15 
REMARK    6  A    between atoms: O_21  and  C_24 
ROOT
ATOM      1  S   UNL d   1      46.103 -17.685  44.153  0.00  0.00     0.285 S 
ATOM      2  O   UNL d   1      45.902 -18.198  44.777  0.00  0.00    -0.198 OA
ATOM      3  O   UNL d   1      46.302 -17.178  43.533  0.00  0.00    -0.198 OA
ENDROOT
BRANCH   1   4
ATOM      4  C   UNL d   1      46.237 -18.350  43.662  0.00  0.00     0.107 A 
ATOM      5  C   UNL d   1      46.242 -18.267  42.848  0.00  0.00     0.040 A 
ATOM      6  C   UNL d   1      46.374 -18.922  42.378  0.00  0.00     0.123 A 
ATOM      7  O   UNL d   1      46.380 -18.842  41.557  0.00  0.00    -0.301 OA
ATOM      8  C   UNL d   1      46.500 -19.662  42.722  0.00  0.00     0.123 A 
ATOM      9  C   UNL d   1      46.513 -19.501  41.078  0.00  0.00     0.149 A 
ATOM     10  C   UNL d   1      46.639 -20.242  41.422  0.00  0.00     0.149 A 
ATOM     11  O   UNL d   1      46.633 -20.321  42.243  0.00  0.00    -0.301 OA
ATOM     12  C   UNL d   1      46.495 -19.746  43.535  0.00  0.00     0.028 A 
ATOM     13  C   UNL d   1      46.363 -19.090  44.005  0.00  0.00     0.015 A 
ENDBRANCH   1   4
BRANCH   1  14
ATOM     14  N   UNL d   1      45.968 -17.035  44.647  0.00  0.00    -0.155 NA
BRANCH  14  15
ATOM     15  C   UNL d   1      46.291 -16.301  44.460  0.00  0.00     0.139 C 
BRANCH  15  16
ATOM     16  C   UNL d   1      45.885 -15.607  44.639  0.00  0.00     0.144 C 
BRANCH  16  17
ATOM     17  O   UNL d   1      46.284 -14.889  44.684  0.00  0.00    -0.303 OA
BRANCH  17  18
ATOM     18  C   UNL d   1      45.921 -14.191  44.441  0.00  0.00     0.100 A 
ATOM     19  C   UNL d   1      46.156 -13.472  44.769  0.00  0.00     0.027 A 
ATOM     20  C   UNL d   1      45.794 -12.770  44.528  0.00  0.00     0.032 A 
ATOM     21  C   UNL d   1      45.196 -12.789  43.959  0.00  0.00     0.140 A 
ATOM     22  C   UNL d   1      44.960 -13.508  43.632  0.00  0.00     0.032 A 
ATOM     23  F   UNL d   1      44.824 -12.080  43.711  0.00  0.00    -0.204 F 
ATOM     24  C   UNL d   1      45.324 -14.206  43.875  0.00  0.00     0.027 A 
ENDBRANCH  17  18
ENDBRANCH  16  17
ENDBRANCH  15  16
ENDBRANCH  14  15
ENDBRANCH   1  14
TORSDOF 6
ENDMDL
