MODEL 1
REMARK VINA RESULT:      -3.5      0.000      0.000
REMARK  7 active torsions:
REMARK  status: ('A' for Active; 'I' for Inactive)
REMARK    1  A    between atoms: C_7  and  N_1 
REMARK    2  A    between atoms: C_6  and  C_4 
REMARK    3  A    between atoms: C_9  and  C_6 
REMARK    4  A    between atoms: C_8  and  C_7 
REMARK       I    between atoms: N_12  and  C_8 
REMARK    5  A    between atoms: C_10  and  C_9 
REMARK    6  A    between atoms: C_16  and  C_10 
REMARK    7  A    between atoms: C_15  and  N_12 
ROOT
ATOM      1  N   UNL d   1      32.748  18.701 -23.685  0.00  0.00    -0.230 N 
ATOM      2  C   UNL d   1      32.534  18.904 -24.458  0.00  0.00     0.299 A 
ATOM      3  C   UNL d   1      32.386  17.982 -23.503  0.00  0.00     0.274 A 
ATOM      4  C   UNL d   1      31.947  17.740 -24.163  0.00  0.00     0.090 A 
ATOM      5  S   UNL d   1      32.043  18.314 -24.747  0.00  0.00    -0.022 SA
ATOM      6  O   UNL d   1      32.776  19.585 -24.859  0.00  0.00    -0.259 OA
ATOM      7  O   UNL d   1      32.449  17.572 -22.785  0.00  0.00    -0.266 OA
ENDROOT
BRANCH   1   8
ATOM      8  C   UNL d   1      33.236  19.133 -23.180  0.00  0.00     0.149 C 
BRANCH   8   9
ATOM      9  C   UNL d   1      32.978  19.851 -22.863  0.00  0.00     0.297 C 
ATOM     10  N   UNL d   1      33.151  20.035 -22.080  0.00  0.00    -0.207 NA
ATOM     11  O   UNL d   1      32.553  20.375 -23.331  0.00  0.00    -0.264 OA
BRANCH  10  12
ATOM     12  C   UNL d   1      32.893  20.756 -21.761  0.00  0.00     0.085 A 
ATOM     13  C   UNL d   1      33.139  21.467 -22.109  0.00  0.00     0.022 A 
ATOM     14  C   UNL d   1      32.881  22.178 -21.791  0.00  0.00     0.044 A 
ATOM     15  C   UNL d   1      32.381  22.192 -21.131  0.00  0.00     0.196 A 
ATOM     16  C   UNL d   1      32.140  21.476 -20.789  0.00  0.00     0.044 A 
ATOM     17  O   UNL d   1      32.127  22.909 -20.817  0.00  0.00    -0.287 OA
ATOM     18  C   UNL d   1      32.396  20.757 -21.105  0.00  0.00     0.022 A 
ENDBRANCH  10  12
ENDBRANCH   8   9
ENDBRANCH   1   8
BRANCH   4  19
ATOM     19  C   UNL d   1      31.501  17.055 -24.219  0.00  0.00     0.011 C 
BRANCH  19  20
ATOM     20  C   UNL d   1      30.729  17.088 -24.502  0.00  0.00     0.001 C 
ATOM     21  C   UNL d   1      30.356  17.821 -24.608  0.00  0.00     0.000 C 
BRANCH  20  22
ATOM     22  C   UNL d   1      30.319  16.395 -24.684  0.00  0.00     0.000 C 
BRANCH  22  23
ATOM     23  C   UNL d   1      29.706  16.134 -24.202  0.00  0.00     0.000 A 
ATOM     24  C   UNL d   1      28.914  16.299 -24.414  0.00  0.00     0.000 A 
ATOM     25  C   UNL d   1      28.302  16.041 -23.937  0.00  0.00     0.000 A 
ATOM     26  C   UNL d   1      28.471  15.616 -23.248  0.00  0.00     0.000 A 
ATOM     27  C   UNL d   1      29.250  15.453 -23.039  0.00  0.00     0.000 A 
ATOM     28  C   UNL d   1      29.861  15.713 -23.518  0.00  0.00     0.000 A 
ENDBRANCH  22  23
ENDBRANCH  20  22
ENDBRANCH  19  20
ENDBRANCH   4  19
TORSDOF 7
ENDMDL
MODEL 2
REMARK VINA RESULT:      -3.4      1.488      5.549
REMARK  7 active torsions:
REMARK  status: ('A' for Active; 'I' for Inactive)
REMARK    1  A    between atoms: C_7  and  N_1 
REMARK    2  A    between atoms: C_6  and  C_4 
REMARK    3  A    between atoms: C_9  and  C_6 
REMARK    4  A    between atoms: C_8  and  C_7 
REMARK       I    between atoms: N_12  and  C_8 
REMARK    5  A    between atoms: C_10  and  C_9 
REMARK    6  A    between atoms: C_16  and  C_10 
REMARK    7  A    between atoms: C_15  and  N_12 
ROOT
ATOM      1  N   UNL d   1      32.335  17.477 -24.121  0.00  0.00    -0.230 N 
ATOM      2  C   UNL d   1      32.854  17.124 -23.582  0.00  0.00     0.299 A 
ATOM      3  C   UNL d   1      32.403  18.295 -24.039  0.00  0.00     0.274 A 
ATOM      4  C   UNL d   1      32.964  18.449 -23.449  0.00  0.00     0.090 A 
ATOM      5  S   UNL d   1      33.237  17.722 -23.172  0.00  0.00    -0.022 SA
ATOM      6  O   UNL d   1      32.960  16.310 -23.481  0.00  0.00    -0.259 OA
ATOM      7  O   UNL d   1      31.984  18.866 -24.472  0.00  0.00    -0.266 OA
ENDROOT
BRANCH   1   8
ATOM      8  C   UNL d   1      31.836  17.089 -24.650  0.00  0.00     0.149 C 
BRANCH   8   9
ATOM      9  C   UNL d   1      31.046  16.947 -24.452  0.00  0.00     0.297 C 
ATOM     10  N   UNL d   1      30.737  16.189 -24.535  0.00  0.00    -0.207 NA
ATOM     11  O   UNL d   1      30.577  17.561 -24.175  0.00  0.00    -0.264 OA
BRANCH  10  12
ATOM     12  C   UNL d   1      29.944  16.045 -24.337  0.00  0.00     0.085 A 
ATOM     13  C   UNL d   1      29.764  15.674 -23.618  0.00  0.00     0.022 A 
ATOM     14  C   UNL d   1      28.979  15.534 -23.426  0.00  0.00     0.044 A 
ATOM     15  C   UNL d   1      28.369  15.759 -23.939  0.00  0.00     0.196 A 
ATOM     16  C   UNL d   1      28.558  16.131 -24.656  0.00  0.00     0.044 A 
ATOM     17  O   UNL d   1      27.584  15.616 -23.740  0.00  0.00    -0.287 OA
ATOM     18  C   UNL d   1      29.347  16.274 -24.856  0.00  0.00     0.022 A 
ENDBRANCH  10  12
ENDBRANCH   8   9
ENDBRANCH   1   8
BRANCH   4  19
ATOM     19  C   UNL d   1      33.200  19.191 -23.192  0.00  0.00     0.011 C 
BRANCH  19  20
ATOM     20  C   UNL d   1      32.936  19.479 -22.468  0.00  0.00     0.001 C 
ATOM     21  C   UNL d   1      33.173  19.111 -21.763  0.00  0.00     0.000 C 
BRANCH  20  22
ATOM     22  C   UNL d   1      32.436  20.134 -22.434  0.00  0.00     0.000 C 
BRANCH  22  23
ATOM     23  C   UNL d   1      32.640  20.793 -21.986  0.00  0.00     0.000 A 
ATOM     24  C   UNL d   1      32.631  20.747 -21.152  0.00  0.00     0.000 A 
ATOM     25  C   UNL d   1      32.833  21.401 -20.705  0.00  0.00     0.000 A 
ATOM     26  C   UNL d   1      33.045  22.106 -21.083  0.00  0.00     0.000 A 
ATOM     27  C   UNL d   1      33.054  22.153 -21.905  0.00  0.00     0.000 A 
ATOM     28  C   UNL d   1      32.851  21.496 -22.349  0.00  0.00     0.000 A 
ENDBRANCH  22  23
ENDBRANCH  20  22
ENDBRANCH  19  20
ENDBRANCH   4  19
TORSDOF 7
ENDMDL
