MODEL 1
REMARK VINA RESULT:      -2.4      0.000      0.000
REMARK  4 active torsions:
REMARK  status: ('A' for Active; 'I' for Inactive)
REMARK    1  A    between atoms: N_2  and  C_1 
REMARK    2  A    between atoms: N_11  and  C_6 
REMARK    3  A    between atoms: C_13  and  N_11 
REMARK    4  A    between atoms: O_20  and  C_14 
ROOT
ATOM      1  C   UNL d   1      32.258  18.638 -23.813  0.00  0.00     0.752 A 
ATOM      2  N   UNL d   1      32.503  18.897 -23.068  0.00  0.00    -0.040 NA
ATOM      3  C   UNL d   1      32.988  19.556 -22.998  0.00  0.00     0.182 A 
ATOM      4  N   UNL d   1      32.505  19.045 -24.488  0.00  0.00    -0.059 NA
ATOM      5  C   UNL d   1      33.235  19.964 -23.673  0.00  0.00     0.059 A 
ATOM      6  C   UNL d   1      32.993  19.708 -24.421  0.00  0.00     0.103 A 
ATOM      7  C   UNL d   1      33.239  20.116 -25.097  0.00  0.00     0.021 C 
ENDROOT
BRANCH   3   8
ATOM      8  N   UNL d   1      33.231  19.815 -22.256  0.00  0.00    -0.226 NA
BRANCH   8   9
ATOM      9  C   UNL d   1      32.918  20.508 -21.927  0.00  0.00     0.083 A 
ATOM     10  C   UNL d   1      33.189  21.241 -22.205  0.00  0.00     0.021 A 
ATOM     11  C   UNL d   1      32.873  21.934 -21.873  0.00  0.00     0.026 A 
ATOM     12  C   UNL d   1      32.304  21.893 -21.282  0.00  0.00     0.094 A 
ATOM     13  C   UNL d   1      32.043  21.156 -21.013  0.00  0.00     0.026 A 
ATOM     14  C   UNL d   1      32.349  20.461 -21.335  0.00  0.00     0.021 A 
BRANCH  12  15
ATOM     15  O   UNL d   1      31.998  22.579 -20.960  0.00  0.00    -0.328 OA
ATOM     16  C   UNL d   1      32.229  23.310 -21.251  0.00  0.00     0.181 C 
ENDBRANCH  12  15
ENDBRANCH   8   9
ENDBRANCH   3   8
BRANCH   1  17
ATOM     17  N   UNL d   1      31.821  18.044 -23.886  0.00  0.00    -0.058 N 
ATOM     18  N   UNL d   1      30.687  17.522 -24.250  0.00  0.00    -0.151 NA
ATOM     19  C   UNL d   1      30.937  16.838 -24.033  0.00  0.00     0.103 A 
ATOM     20  C   UNL d   1      30.497  16.239 -24.107  0.00  0.00     0.022 C 
ATOM     21  C   UNL d   1      31.626  16.772 -23.746  0.00  0.00     0.041 A 
ATOM     22  C   UNL d   1      32.068  17.367 -23.672  0.00  0.00     0.102 A 
ATOM     23  C   UNL d   1      32.762  17.299 -23.383  0.00  0.00     0.021 C 
ENDBRANCH   1  17
TORSDOF 4
ENDMDL
MODEL 2
REMARK VINA RESULT:      -0.5      2.546      4.197
REMARK  4 active torsions:
REMARK  status: ('A' for Active; 'I' for Inactive)
REMARK    1  A    between atoms: N_2  and  C_1 
REMARK    2  A    between atoms: N_11  and  C_6 
REMARK    3  A    between atoms: C_13  and  N_11 
REMARK    4  A    between atoms: O_20  and  C_14 
ROOT
ATOM      1  C   UNL d   1      30.055  16.040 -23.719  0.00  0.00     0.752 A 
ATOM      2  N   UNL d   1      30.413  16.381 -24.381  0.00  0.00    -0.040 NA
ATOM      3  C   UNL d   1      31.231  16.413 -24.438  0.00  0.00     0.182 A 
ATOM      4  N   UNL d   1      30.525  15.731 -23.114  0.00  0.00    -0.059 NA
ATOM      5  C   UNL d   1      31.702  16.104 -23.833  0.00  0.00     0.059 A 
ATOM      6  C   UNL d   1      31.348  15.762 -23.169  0.00  0.00     0.103 A 
ATOM      7  C   UNL d   1      31.819  15.453 -22.564  0.00  0.00     0.021 C 
ENDROOT
BRANCH   3   8
ATOM      8  N   UNL d   1      31.588  16.753 -25.097  0.00  0.00    -0.226 NA
BRANCH   8   9
ATOM      9  C   UNL d   1      32.008  17.464 -25.030  0.00  0.00     0.083 A 
ATOM     10  C   UNL d   1      31.586  18.179 -25.022  0.00  0.00     0.021 A 
ATOM     11  C   UNL d   1      32.010  18.890 -24.955  0.00  0.00     0.026 A 
ATOM     12  C   UNL d   1      32.830  18.885 -24.897  0.00  0.00     0.094 A 
ATOM     13  C   UNL d   1      33.238  18.166 -24.905  0.00  0.00     0.026 A 
ATOM     14  C   UNL d   1      32.827  17.453 -24.972  0.00  0.00     0.021 A 
BRANCH  12  15
ATOM     15  O   UNL d   1      33.240  19.589 -24.831  0.00  0.00    -0.328 OA
ATOM     16  C   UNL d   1      33.186  20.034 -24.145  0.00  0.00     0.181 C 
ENDBRANCH  12  15
ENDBRANCH   8   9
ENDBRANCH   3   8
BRANCH   1  17
ATOM     17  N   UNL d   1      29.316  16.007 -23.659  0.00  0.00    -0.058 N 
ATOM     18  N   UNL d   1      28.235  16.221 -22.970  0.00  0.00    -0.151 NA
ATOM     19  C   UNL d   1      27.821  15.937 -23.541  0.00  0.00     0.103 A 
ATOM     20  C   UNL d   1      27.077  15.903 -23.482  0.00  0.00     0.022 C 
ATOM     21  C   UNL d   1      28.165  15.693 -24.161  0.00  0.00     0.041 A 
ATOM     22  C   UNL d   1      28.907  15.726 -24.224  0.00  0.00     0.102 A 
ATOM     23  C   UNL d   1      29.252  15.480 -24.848  0.00  0.00     0.021 C 
ENDBRANCH   1  17
TORSDOF 4
ENDMDL
MODEL 3
REMARK VINA RESULT:      -0.0      1.886      4.433
REMARK  4 active torsions:
REMARK  status: ('A' for Active; 'I' for Inactive)
REMARK    1  A    between atoms: N_2  and  C_1 
REMARK    2  A    between atoms: N_11  and  C_6 
REMARK    3  A    between atoms: C_13  and  N_11 
REMARK    4  A    between atoms: O_20  and  C_14 
ROOT
ATOM      1  C   UNL d   1      32.947  20.093 -22.713  0.00  0.00     0.752 A 
ATOM      2  N   UNL d   1      32.959  19.267 -22.686  0.00  0.00    -0.040 NA
ATOM      3  C   UNL d   1      33.064  18.833 -23.376  0.00  0.00     0.182 A 
ATOM      4  N   UNL d   1      33.041  20.480 -23.437  0.00  0.00    -0.059 NA
ATOM      5  C   UNL d   1      33.157  19.219 -24.100  0.00  0.00     0.059 A 
ATOM      6  C   UNL d   1      33.146  20.046 -24.131  0.00  0.00     0.103 A 
ATOM      7  C   UNL d   1      33.240  20.433 -24.856  0.00  0.00     0.021 C 
ENDROOT
BRANCH   3   8
ATOM      8  N   UNL d   1      33.075  18.011 -23.349  0.00  0.00    -0.226 NA
BRANCH   8   9
ATOM      9  C   UNL d   1      32.492  17.568 -23.738  0.00  0.00     0.083 A 
ATOM     10  C   UNL d   1      32.694  17.163 -24.434  0.00  0.00     0.021 A 
ATOM     11  C   UNL d   1      32.107  16.720 -24.820  0.00  0.00     0.026 A 
ATOM     12  C   UNL d   1      31.343  16.685 -24.519  0.00  0.00     0.094 A 
ATOM     13  C   UNL d   1      31.155  17.092 -23.825  0.00  0.00     0.026 A 
ATOM     14  C   UNL d   1      31.730  17.536 -23.432  0.00  0.00     0.021 A 
BRANCH  12  15
ATOM     15  O   UNL d   1      30.771  16.247 -24.905  0.00  0.00    -0.328 OA
ATOM     16  C   UNL d   1      29.980  16.339 -24.709  0.00  0.00     0.181 C 
ENDBRANCH  12  15
ENDBRANCH   8   9
ENDBRANCH   3   8
BRANCH   1  17
ATOM     17  N   UNL d   1      32.854  20.494 -22.096  0.00  0.00    -0.058 N 
ATOM     18  N   UNL d   1      32.518  21.611 -21.523  0.00  0.00    -0.151 NA
ATOM     19  C   UNL d   1      32.666  21.302 -20.844  0.00  0.00     0.103 A 
ATOM     20  C   UNL d   1      32.572  21.704 -20.222  0.00  0.00     0.022 C 
ATOM     21  C   UNL d   1      32.905  20.593 -20.806  0.00  0.00     0.041 A 
ATOM     22  C   UNL d   1      33.000  20.188 -21.425  0.00  0.00     0.102 A 
ATOM     23  C   UNL d   1      33.241  19.474 -21.385  0.00  0.00     0.021 C 
ENDBRANCH   1  17
TORSDOF 4
ENDMDL
MODEL 4
REMARK VINA RESULT:       0.0      1.818      4.690
REMARK  4 active torsions:
REMARK  status: ('A' for Active; 'I' for Inactive)
REMARK    1  A    between atoms: N_2  and  C_1 
REMARK    2  A    between atoms: N_11  and  C_6 
REMARK    3  A    between atoms: C_13  and  N_11 
REMARK    4  A    between atoms: O_20  and  C_14 
ROOT
ATOM      1  C   UNL d   1      33.147  20.773 -22.676  0.00  0.00     0.752 A 
ATOM      2  N   UNL d   1      33.171  20.177 -23.248  0.00  0.00    -0.040 NA
ATOM      3  C   UNL d   1      33.217  19.389 -23.023  0.00  0.00     0.182 A 
ATOM      4  N   UNL d   1      33.171  20.571 -21.875  0.00  0.00    -0.059 NA
ATOM      5  C   UNL d   1      33.241  19.187 -22.222  0.00  0.00     0.059 A 
ATOM      6  C   UNL d   1      33.217  19.779 -21.645  0.00  0.00     0.103 A 
ATOM      7  C   UNL d   1      33.241  19.577 -20.844  0.00  0.00     0.021 C 
ENDROOT
BRANCH   3   8
ATOM      8  N   UNL d   1      33.241  18.796 -23.592  0.00  0.00    -0.226 NA
BRANCH   8   9
ATOM      9  C   UNL d   1      32.589  18.298 -23.709  0.00  0.00     0.083 A 
ATOM     10  C   UNL d   1      32.589  17.548 -23.354  0.00  0.00     0.021 A 
ATOM     11  C   UNL d   1      31.934  17.050 -23.473  0.00  0.00     0.026 A 
ATOM     12  C   UNL d   1      31.300  17.298 -23.934  0.00  0.00     0.094 A 
ATOM     13  C   UNL d   1      31.312  18.047 -24.283  0.00  0.00     0.026 A 
ATOM     14  C   UNL d   1      31.957  18.549 -24.171  0.00  0.00     0.021 A 
BRANCH  12  15
ATOM     15  O   UNL d   1      30.659  16.803 -24.048  0.00  0.00    -0.328 OA
ATOM     16  C   UNL d   1      30.701  16.194 -24.595  0.00  0.00     0.181 C 
ENDBRANCH  12  15
ENDBRANCH   8   9
ENDBRANCH   3   8
BRANCH   1  17
ATOM     17  N   UNL d   1      33.105  21.487 -22.869  0.00  0.00    -0.058 N 
ATOM     18  N   UNL d   1      33.203  22.413 -23.777  0.00  0.00    -0.151 NA
ATOM     19  C   UNL d   1      33.019  22.936 -23.256  0.00  0.00     0.103 A 
ATOM     20  C   UNL d   1      32.976  23.656 -23.450  0.00  0.00     0.022 C 
ATOM     21  C   UNL d   1      32.882  22.722 -22.551  0.00  0.00     0.041 A 
ATOM     22  C   UNL d   1      32.923  22.004 -22.354  0.00  0.00     0.102 A 
ATOM     23  C   UNL d   1      32.785  21.791 -21.644  0.00  0.00     0.021 C 
ENDBRANCH   1  17
TORSDOF 4
ENDMDL
