MODEL 1
REMARK VINA RESULT:      -2.6      0.000      0.000
REMARK  6 active torsions:
REMARK  status: ('A' for Active; 'I' for Inactive)
REMARK       I    between atoms: C_2  and  N_1 
REMARK    1  A    between atoms: C_3  and  C_2 
REMARK    2  A    between atoms: C_12  and  C_4 
REMARK       I    between atoms: C_5  and  N_8 
REMARK    3  A    between atoms: C_6  and  C_5 
REMARK       I    between atoms: N_9  and  C_6 
REMARK    4  A    between atoms: N_8  and  C_12 
REMARK    5  A    between atoms: C_19  and  N_9 
REMARK    6  A    between atoms: C_20  and  C_19 
ROOT
ATOM      1  C   UNL d   1     -41.564-123.251 -51.780  0.00  0.00     0.337 C 
ATOM      2  N   UNL d   1     -41.830-123.403 -51.019  0.00  0.00    -0.199 NA
ATOM      3  O   UNL d   1     -41.123-123.817 -52.180  0.00  0.00    -0.260 OA
ENDROOT
BRANCH   2   4
ATOM      4  C   UNL d   1     -42.272-122.836 -50.619  0.00  0.00     0.146 C 
BRANCH   4   5
ATOM      5  C   UNL d   1     -42.761-123.067 -49.987  0.00  0.00     0.190 A 
ATOM      6  N   UNL d   1     -42.522-123.115 -49.202  0.00  0.00    -0.250 N 
ATOM      7  C   UNL d   1     -41.796-122.966 -48.830  0.00  0.00     0.272 C 
ATOM      8  C   UNL d   1     -43.179-123.365 -48.766  0.00  0.00     0.112 A 
ATOM      9  O   UNL d   1     -41.148-122.717 -49.279  0.00  0.00    -0.266 OA
ATOM     10  C   UNL d   1     -43.810-123.466 -49.282  0.00  0.00     0.144 A 
ATOM     11  O   UNL d   1     -43.540-123.278 -50.043  0.00  0.00    -0.285 OA
BRANCH   7  12
ATOM     12  C   UNL d   1     -41.717-123.063 -48.017  0.00  0.00     0.086 A 
ATOM     13  S   UNL d   1     -41.943-122.579 -47.383  0.00  0.00    -0.082 SA
ATOM     14  C   UNL d   1     -41.718-122.968 -46.677  0.00  0.00     0.036 A 
ATOM     15  C   UNL d   1     -41.360-123.681 -46.889  0.00  0.00     0.008 A 
ATOM     16  C   UNL d   1     -41.357-123.744 -47.709  0.00  0.00     0.012 A 
ENDBRANCH   7  12
ENDBRANCH   4   5
ENDBRANCH   2   4
BRANCH   1  17
ATOM     17  C   UNL d   1     -41.736-122.529 -52.153  0.00  0.00     0.337 C 
ATOM     18  N   UNL d   1     -41.886-122.499 -52.958  0.00  0.00    -0.202 NA
ATOM     19  O   UNL d   1     -41.754-121.838 -51.707  0.00  0.00    -0.260 OA
BRANCH  18  20
ATOM     20  C   UNL d   1     -42.056-121.801 -53.341  0.00  0.00     0.102 C 
BRANCH  20  21
ATOM     21  C   UNL d   1     -42.160-121.771 -54.163  0.00  0.00     0.019 A 
ATOM     22  C   UNL d   1     -41.545-121.952 -54.657  0.00  0.00     0.002 A 
ATOM     23  C   UNL d   1     -41.638-121.926 -55.472  0.00  0.00     0.000 A 
ATOM     24  C   UNL d   1     -42.374-121.710 -55.802  0.00  0.00     0.000 A 
ATOM     25  C   UNL d   1     -42.995-121.528 -55.299  0.00  0.00     0.000 A 
ATOM     26  C   UNL d   1     -42.462-121.685 -56.637  0.00  0.00     0.000 C 
ATOM     27  C   UNL d   1     -42.879-121.561 -54.481  0.00  0.00     0.002 A 
ENDBRANCH  20  21
ENDBRANCH  18  20
ENDBRANCH   1  17
TORSDOF 6
ENDMDL
