MODEL 1
REMARK VINA RESULT:      10.0      0.000      0.000
REMARK  3 active torsions:
REMARK  status: ('A' for Active; 'I' for Inactive)
REMARK    1  A    between atoms: C_11  and  N_1 
REMARK    2  A    between atoms: C_3  and  C_2 
REMARK    3  A    between atoms: C_13  and  C_16 
ROOT
ATOM      1  N   UNL d   1     -41.976-122.652 -52.770  0.00  0.00    -0.260 N 
ATOM      2  C   UNL d   1     -42.195-122.597 -54.079  0.00  0.00     0.093 A 
ATOM      3  C   UNL d   1     -41.578-123.265 -53.079  0.00  0.00     0.153 A 
ATOM      4  C   UNL d   1     -42.368-122.223 -53.369  0.00  0.00     0.272 A 
ATOM      5  S   UNL d   1     -41.705-123.242 -53.894  0.00  0.00    -0.053 SA
ATOM      6  S   UNL d   1     -41.125-123.814 -52.655  0.00  0.00    -0.052 SA
ATOM      7  O   UNL d   1     -42.838-121.551 -53.277  0.00  0.00    -0.266 OA
ENDROOT
BRANCH   2   8
ATOM      8  C   UNL d   1     -42.443-122.395 -54.827  0.00  0.00     0.068 A 
ATOM      9  C   UNL d   1     -43.132-122.666 -55.172  0.00  0.00     0.258 A 
ATOM     10  N   UNL d   1     -43.201-122.355 -55.912  0.00  0.00    -0.321 N 
ATOM     11  O   UNL d   1     -43.671-123.180 -54.814  0.00  0.00    -0.267 OA
ATOM     12  H   UNL d   1     -43.824-122.497 -56.437  0.00  0.00     0.169 HD
ATOM     13  C   UNL d   1     -42.544-121.873 -56.047  0.00  0.00     0.059 A 
ATOM     14  C   UNL d   1     -42.072-121.893 -55.383  0.00  0.00     0.021 A 
ATOM     15  C   UNL d   1     -42.323-121.414 -56.712  0.00  0.00     0.017 A 
ATOM     16  C   UNL d   1     -41.375-121.465 -55.356  0.00  0.00     0.002 A 
ATOM     17  C   UNL d   1     -41.146-121.009 -56.003  0.00  0.00     0.000 A 
ATOM     18  C   UNL d   1     -41.619-120.983 -56.681  0.00  0.00     0.002 A 
ENDBRANCH   2   8
BRANCH   1  19
ATOM     19  C   UNL d   1     -42.026-122.435 -51.990  0.00  0.00     0.068 A 
ATOM     20  C   UNL d   1     -41.379-122.147 -51.587  0.00  0.00     0.018 A 
ATOM     21  C   UNL d   1     -41.453-121.929 -50.780  0.00  0.00     0.008 A 
ATOM     22  C   UNL d   1     -42.175-122.009 -50.408  0.00  0.00     0.065 A 
ATOM     23  C   UNL d   1     -42.831-122.302 -50.819  0.00  0.00     0.008 A 
ATOM     24  C   UNL d   1     -42.759-122.512 -51.596  0.00  0.00     0.018 A 
BRANCH  22  25
ATOM     25  C   UNL d   1     -42.231-121.782 -49.587  0.00  0.00     0.211 C 
ATOM     26  O   UNL d   1     -42.939-121.902 -49.172  0.00  0.00    -0.644 OA
ATOM     27  O   UNL d   1     -41.579-121.441 -49.204  0.00  0.00    -0.644 OA
ENDBRANCH  22  25
ENDBRANCH   1  19
TORSDOF 3
ENDMDL
MODEL 2
REMARK VINA RESULT:      10.6      1.423      4.640
REMARK  3 active torsions:
REMARK  status: ('A' for Active; 'I' for Inactive)
REMARK    1  A    between atoms: C_11  and  N_1 
REMARK    2  A    between atoms: C_3  and  C_2 
REMARK    3  A    between atoms: C_13  and  C_16 
ROOT
ATOM      1  N   UNL d   1     -41.702-122.544 -53.828  0.00  0.00    -0.260 N 
ATOM      2  C   UNL d   1     -41.607-122.613 -52.505  0.00  0.00     0.093 A 
ATOM      3  C   UNL d   1     -41.362-123.245 -53.674  0.00  0.00     0.153 A 
ATOM      4  C   UNL d   1     -41.864-122.133 -53.120  0.00  0.00     0.272 A 
ATOM      5  S   UNL d   1     -41.297-123.300 -52.853  0.00  0.00    -0.053 SA
ATOM      6  S   UNL d   1     -41.124-123.803 -54.238  0.00  0.00    -0.052 SA
ATOM      7  O   UNL d   1     -42.214-121.390 -53.042  0.00  0.00    -0.266 OA
ENDROOT
BRANCH   2   8
ATOM      8  C   UNL d   1     -41.639-122.465 -51.706  0.00  0.00     0.068 A 
ATOM      9  C   UNL d   1     -41.847-123.019 -51.144  0.00  0.00     0.258 A 
ATOM     10  N   UNL d   1     -41.820-122.683 -50.412  0.00  0.00    -0.321 N 
ATOM     11  O   UNL d   1     -42.053-123.804 -51.305  0.00  0.00    -0.267 OA
ATOM     12  H   UNL d   1     -41.993-123.066 -49.700  0.00  0.00     0.169 HD
ATOM     13  C   UNL d   1     -41.590-121.895 -50.504  0.00  0.00     0.059 A 
ATOM     14  C   UNL d   1     -41.476-121.752 -51.299  0.00  0.00     0.021 A 
ATOM     15  C   UNL d   1     -41.470-121.285 -49.942  0.00  0.00     0.017 A 
ATOM     16  C   UNL d   1     -41.244-121.013 -51.559  0.00  0.00     0.002 A 
ATOM     17  C   UNL d   1     -41.123-120.405 -51.018  0.00  0.00     0.000 A 
ATOM     18  C   UNL d   1     -41.236-120.540 -50.209  0.00  0.00     0.002 A 
ENDBRANCH   2   8
BRANCH   1  19
ATOM     19  C   UNL d   1     -41.886-122.231 -54.553  0.00  0.00     0.068 A 
ATOM     20  C   UNL d   1     -42.656-122.073 -54.766  0.00  0.00     0.018 A 
ATOM     21  C   UNL d   1     -42.824-121.748 -55.521  0.00  0.00     0.008 A 
ATOM     22  C   UNL d   1     -42.209-121.595 -56.036  0.00  0.00     0.065 A 
ATOM     23  C   UNL d   1     -41.426-121.756 -55.819  0.00  0.00     0.008 A 
ATOM     24  C   UNL d   1     -41.267-122.068 -55.091  0.00  0.00     0.018 A 
BRANCH  22  25
ATOM     25  C   UNL d   1     -42.398-121.265 -56.800  0.00  0.00     0.211 C 
ATOM     26  O   UNL d   1     -42.978-121.622 -57.273  0.00  0.00    -0.644 OA
ATOM     27  O   UNL d   1     -42.002-120.588 -57.071  0.00  0.00    -0.644 OA
ENDBRANCH  22  25
ENDBRANCH   1  19
TORSDOF 3
ENDMDL
MODEL 3
REMARK VINA RESULT:      11.5      1.646      4.991
REMARK  3 active torsions:
REMARK  status: ('A' for Active; 'I' for Inactive)
REMARK    1  A    between atoms: C_11  and  N_1 
REMARK    2  A    between atoms: C_3  and  C_2 
REMARK    3  A    between atoms: C_13  and  C_16 
ROOT
ATOM      1  N   UNL d   1     -42.007-121.717 -52.588  0.00  0.00    -0.260 N 
ATOM      2  C   UNL d   1     -42.207-121.948 -51.295  0.00  0.00     0.093 A 
ATOM      3  C   UNL d   1     -41.708-121.087 -52.209  0.00  0.00     0.153 A 
ATOM      4  C   UNL d   1     -42.322-122.266 -52.044  0.00  0.00     0.272 A 
ATOM      5  S   UNL d   1     -41.826-121.218 -51.403  0.00  0.00    -0.053 SA
ATOM      6  S   UNL d   1     -41.349-120.431 -52.566  0.00  0.00    -0.052 SA
ATOM      7  O   UNL d   1     -42.682-122.989 -52.214  0.00  0.00    -0.266 OA
ENDROOT
BRANCH   2   8
ATOM      8  C   UNL d   1     -42.416-122.267 -50.577  0.00  0.00     0.068 A 
ATOM      9  C   UNL d   1     -41.911-122.330 -49.938  0.00  0.00     0.258 A 
ATOM     10  N   UNL d   1     -42.302-122.671 -49.321  0.00  0.00    -0.321 N 
ATOM     11  O   UNL d   1     -41.123-122.080 -49.929  0.00  0.00    -0.267 OA
ATOM     12  H   UNL d   1     -41.979-122.829 -48.575  0.00  0.00     0.169 HD
ATOM     13  C   UNL d   1     -43.073-122.832 -49.567  0.00  0.00     0.059 A 
ATOM     14  C   UNL d   1     -43.152-122.587 -50.340  0.00  0.00     0.021 A 
ATOM     15  C   UNL d   1     -43.720-123.181 -49.165  0.00  0.00     0.017 A 
ATOM     16  C   UNL d   1     -43.862-122.676 -50.735  0.00  0.00     0.002 A 
ATOM     17  C   UNL d   1     -44.506-123.018 -50.351  0.00  0.00     0.000 A 
ATOM     18  C   UNL d   1     -44.436-123.270 -49.566  0.00  0.00     0.002 A 
ENDBRANCH   2   8
BRANCH   1  19
ATOM     19  C   UNL d   1     -42.026-121.853 -53.387  0.00  0.00     0.068 A 
ATOM     20  C   UNL d   1     -41.743-122.546 -53.708  0.00  0.00     0.018 A 
ATOM     21  C   UNL d   1     -41.772-122.665 -54.538  0.00  0.00     0.008 A 
ATOM     22  C   UNL d   1     -42.086-122.081 -55.016  0.00  0.00     0.065 A 
ATOM     23  C   UNL d   1     -42.373-121.378 -54.688  0.00  0.00     0.008 A 
ATOM     24  C   UNL d   1     -42.344-121.264 -53.889  0.00  0.00     0.018 A 
BRANCH  22  25
ATOM     25  C   UNL d   1     -42.107-122.220 -55.858  0.00  0.00     0.211 C 
ATOM     26  O   UNL d   1     -41.420-122.120 -56.312  0.00  0.00    -0.644 OA
ATOM     27  O   UNL d   1     -42.814-122.454 -56.224  0.00  0.00    -0.644 OA
ENDBRANCH  22  25
ENDBRANCH   1  19
TORSDOF 3
ENDMDL
