MODEL 1
REMARK VINA RESULT:      74.3      0.000      0.000
REMARK  5 active torsions:
REMARK  status: ('A' for Active; 'I' for Inactive)
REMARK    1  A    between atoms: C_10  and  N_6 
REMARK    2  A    between atoms: N_13  and  C_9 
REMARK    3  A    between atoms: C_14  and  C_10 
REMARK    4  A    between atoms: C_21  and  N_13 
REMARK    5  A    between atoms: C_24  and  C_21 
ROOT
ATOM      1  C   UNL d   1     -51.548  26.336  36.115  0.00  0.00     0.176 A 
ATOM      2  C   UNL d   1     -52.208  25.892  36.031  0.00  0.00     0.159 A 
ATOM      3  N   UNL d   1     -51.125  26.572  35.478  0.00  0.00    -0.181 NA
ATOM      4  N   UNL d   1     -51.297  26.554  36.854  0.00  0.00    -0.240 N 
ATOM      5  N   UNL d   1     -52.374  25.878  37.416  0.00  0.00    -0.223 N 
ATOM      6  N   UNL d   1     -52.043  25.906  34.659  0.00  0.00    -0.258 N 
ATOM      7  C   UNL d   1     -51.704  26.329  37.501  0.00  0.00     0.343 A 
ATOM      8  C   UNL d   1     -52.620  25.664  36.687  0.00  0.00     0.287 A 
ATOM      9  C   UNL d   1     -51.364  26.363  34.757  0.00  0.00     0.292 A 
ATOM     10  O   UNL d   1     -51.457  26.544  38.240  0.00  0.00    -0.245 OA
ATOM     11  O   UNL d   1     -53.296  25.209  36.601  0.00  0.00    -0.265 OA
ATOM     12  C   UNL d   1     -50.631  27.002  36.939  0.00  0.00     0.105 C 
ATOM     13  C   UNL d   1     -52.806  25.638  38.090  0.00  0.00     0.107 C 
ENDROOT
BRANCH   6  14
ATOM     14  C   UNL d   1     -52.579  25.516  34.169  0.00  0.00     0.084 C 
BRANCH  14  15
ATOM     15  C   UNL d   1     -52.416  24.748  33.890  0.00  0.00     0.018 A 
ATOM     16  C   UNL d   1     -51.630  24.527  33.771  0.00  0.00     0.002 A 
ATOM     17  C   UNL d   1     -51.468  23.760  33.491  0.00  0.00     0.000 A 
ATOM     18  C   UNL d   1     -50.769  23.337  33.306  0.00  0.00     0.000 C 
ATOM     19  C   UNL d   1     -52.093  23.225  33.335  0.00  0.00     0.000 A 
ATOM     20  C   UNL d   1     -52.871  23.472  33.463  0.00  0.00     0.000 A 
ATOM     21  C   UNL d   1     -53.032  24.232  33.739  0.00  0.00     0.002 A 
ENDBRANCH  14  15
ENDBRANCH   6  14
BRANCH   9  22
ATOM     22  N   UNL d   1     -50.958  26.588  34.110  0.00  0.00    -0.365 NA
BRANCH  22  23
ATOM     23  C   UNL d   1     -50.738  26.886  33.363  0.00  0.00     0.164 C 
BRANCH  23  24
ATOM     24  C   UNL d   1     -50.334  27.620  33.306  0.00  0.00     0.035 C 
ATOM     25  C   UNL d   1     -50.759  28.337  33.314  0.00  0.00     0.003 C 
ENDBRANCH  23  24
ENDBRANCH  22  23
ENDBRANCH   9  22
TORSDOF 5
ENDMDL
