MODEL 1
REMARK VINA RESULT:      36.0      0.000      0.000
REMARK  5 active torsions:
REMARK  status: ('A' for Active; 'I' for Inactive)
REMARK    1  A    between atoms: S_2  and  C_1 
REMARK    2  A    between atoms: C_8  and  S_2 
REMARK    3  A    between atoms: C_18  and  N_6 
REMARK    4  A    between atoms: O_22  and  C_16 
REMARK    5  A    between atoms: C_23  and  O_22 
ROOT
ATOM      1  C   UNL d   1      14.277  12.956  -2.408  0.00  0.00     0.144 A 
ATOM      2  C   UNL d   1      14.457  13.742  -2.249  0.00  0.00     0.209 A 
ATOM      3  C   UNL d   1      14.727  13.979  -1.515  0.00  0.00     0.058 A 
ATOM      4  C   UNL d   1      14.373  12.385  -1.802  0.00  0.00     0.095 A 
ATOM      5  N   UNL d   1      14.646  12.617  -1.056  0.00  0.00    -0.303 N 
ATOM      6  C   UNL d   1      14.823  13.408  -0.909  0.00  0.00     0.067 A 
ATOM      7  C   UNL d   1      15.094  13.637  -0.166  0.00  0.00     0.020 A 
ATOM      8  C   UNL d   1      14.905  14.762  -1.359  0.00  0.00     0.029 A 
ATOM      9  O   UNL d   1      14.362  14.304  -2.846  0.00  0.00    -0.286 OA
ATOM     10  C   UNL d   1      15.177  15.005  -0.620  0.00  0.00     0.100 A 
ATOM     11  C   UNL d   1      15.273  14.434  -0.014  0.00  0.00     0.026 A 
ENDROOT
BRANCH   1  12
ATOM     12  S   UNL d   1      14.005  12.713  -3.147  0.00  0.00     0.214 S 
ATOM     13  O   UNL d   1      14.349  11.971  -3.046  0.00  0.00    -0.217 OA
ATOM     14  O   UNL d   1      13.655  13.463  -3.254  0.00  0.00    -0.217 OA
BRANCH  12  15
ATOM     15  C   UNL d   1      13.727  12.480  -3.890  0.00  0.00     0.088 A 
ATOM     16  C   UNL d   1      13.049  12.013  -3.955  0.00  0.00     0.011 A 
ATOM     17  C   UNL d   1      12.770  11.780  -4.694  0.00  0.00     0.001 A 
ATOM     18  C   UNL d   1      13.169  12.014  -5.380  0.00  0.00     0.000 A 
ATOM     19  C   UNL d   1      13.847  12.481  -5.319  0.00  0.00     0.001 A 
ATOM     20  C   UNL d   1      12.890  11.781  -6.127  0.00  0.00     0.000 C 
ATOM     21  C   UNL d   1      14.125  12.714  -4.580  0.00  0.00     0.011 A 
ENDBRANCH  12  15
ENDBRANCH   1  12
BRANCH   5  22
ATOM     22  C   UNL d   1      14.743  12.061  -0.454  0.00  0.00     0.080 C 
ATOM     23  C   UNL d   1      14.083  11.787  -0.044  0.00  0.00     0.021 C 
ENDBRANCH   5  22
BRANCH  10  24
ATOM     24  O   UNL d   1      15.355  15.787  -0.464  0.00  0.00    -0.305 OA
BRANCH  24  25
ATOM     25  C   UNL d   1      14.977  16.401  -0.857  0.00  0.00     0.123 C 
ATOM     26  C   UNL d   1      15.409  16.981  -1.250  0.00  0.00     0.029 C 
ENDBRANCH  24  25
ENDBRANCH  10  24
TORSDOF 5
ENDMDL
