MODEL 1
REMARK VINA RESULT:      69.3      0.000      0.000
REMARK  5 active torsions:
REMARK  status: ('A' for Active; 'I' for Inactive)
REMARK    1  A    between atoms: C_11  and  C_4 
REMARK    2  A    between atoms: N_10  and  C_5 
REMARK    3  A    between atoms: C_12  and  C_8 
REMARK    4  A    between atoms: C_16  and  N_10 
REMARK    5  A    between atoms: C_17  and  C_16 
ROOT
ATOM      1  C   UNL d   1      44.553 -16.329  38.250  0.00  0.00     0.167 A 
ATOM      2  N   UNL d   1      45.020 -16.811  38.739  0.00  0.00    -0.195 N 
ATOM      3  N   UNL d   1      44.910 -15.794  37.759  0.00  0.00    -0.231 NA
ATOM      4  C   UNL d   1      43.754 -16.397  38.270  0.00  0.00     0.057 A 
ATOM      5  C   UNL d   1      45.822 -16.735  38.711  0.00  0.00     0.167 A 
ATOM      6  N   UNL d   1      43.868 -17.408  39.244  0.00  0.00    -0.161 NA
ATOM      7  C   UNL d   1      46.184 -16.199  38.220  0.00  0.00     0.054 A 
ATOM      8  C   UNL d   1      45.720 -15.720  37.734  0.00  0.00     0.063 A 
ATOM      9  C   UNL d   1      43.411 -16.936  38.766  0.00  0.00     0.124 A 
ENDROOT
BRANCH   5  10
ATOM     10  N   UNL d   1      46.298 -17.226  39.209  0.00  0.00    -0.224 NA
BRANCH  10  11
ATOM     11  C   UNL d   1      46.642 -17.255  39.977  0.00  0.00     0.120 C 
BRANCH  11  12
ATOM     12  C   UNL d   1      46.638 -17.965  40.422  0.00  0.00     0.101 A 
ATOM     13  N   UNL d   1      46.627 -18.717  40.025  0.00  0.00    -0.242 NA
ATOM     14  C   UNL d   1      46.623 -19.429  40.480  0.00  0.00     0.099 A 
ATOM     15  C   UNL d   1      46.630 -19.396  41.326  0.00  0.00     0.021 A 
ATOM     16  C   UNL d   1      46.641 -18.637  41.717  0.00  0.00     0.003 A 
ATOM     17  C   UNL d   1      46.645 -17.933  41.265  0.00  0.00     0.021 A 
ENDBRANCH  11  12
ENDBRANCH  10  11
ENDBRANCH   5  10
BRANCH   8  18
ATOM     18  C   UNL d   1      46.087 -15.157  37.216  0.00  0.00     0.036 C 
ATOM     19  C   UNL d   1      46.452 -14.596  36.706  0.00  0.00     0.006 C 
ATOM     20  C   UNL d   1      46.167 -15.332  36.390  0.00  0.00     0.006 C 
ATOM     21  C   UNL d   1      46.373 -14.421  37.534  0.00  0.00     0.006 C 
ENDBRANCH   8  18
BRANCH   4  22
ATOM     22  C   UNL d   1      43.297 -15.926  37.792  0.00  0.00     0.005 A 
ATOM     23  C   UNL d   1      42.996 -15.220  38.074  0.00  0.00     0.001 A 
ATOM     24  C   UNL d   1      42.546 -14.756  37.604  0.00  0.00     0.011 A 
ATOM     25  C   UNL d   1      42.377 -14.978  36.832  0.00  0.00     0.058 A 
ATOM     26  C   UNL d   1      42.669 -15.669  36.548  0.00  0.00     0.011 A 
ATOM     27 CL   UNL d   1      41.903 -14.489  36.337  0.00  0.00    -0.082 Cl
ATOM     28  C   UNL d   1      43.131 -16.146  37.031  0.00  0.00     0.001 A 
ENDBRANCH   4  22
TORSDOF 5
ENDMDL
MODEL 2
REMARK VINA RESULT:      72.0      2.662      5.796
REMARK  5 active torsions:
REMARK  status: ('A' for Active; 'I' for Inactive)
REMARK    1  A    between atoms: C_11  and  C_4 
REMARK    2  A    between atoms: N_10  and  C_5 
REMARK    3  A    between atoms: C_12  and  C_8 
REMARK    4  A    between atoms: C_16  and  N_10 
REMARK    5  A    between atoms: C_17  and  C_16 
ROOT
ATOM      1  C   UNL d   1      45.889 -18.704  41.577  0.00  0.00     0.167 A 
ATOM      2  N   UNL d   1      45.853 -18.489  40.776  0.00  0.00    -0.195 N 
ATOM      3  N   UNL d   1      45.889 -18.126  42.146  0.00  0.00    -0.231 NA
ATOM      4  C   UNL d   1      45.925 -19.479  41.781  0.00  0.00     0.057 A 
ATOM      5  C   UNL d   1      45.818 -17.707  40.583  0.00  0.00     0.167 A 
ATOM      6  N   UNL d   1      45.889 -19.834  40.419  0.00  0.00    -0.161 NA
ATOM      7  C   UNL d   1      45.817 -17.125  41.149  0.00  0.00     0.054 A 
ATOM      8  C   UNL d   1      45.853 -17.339  41.945  0.00  0.00     0.063 A 
ATOM      9  C   UNL d   1      45.924 -20.044  41.203  0.00  0.00     0.124 A 
ENDROOT
BRANCH   5  10
ATOM     10  N   UNL d   1      45.780 -17.488  39.766  0.00  0.00    -0.224 NA
BRANCH  10  11
ATOM     11  C   UNL d   1      45.263 -17.495  39.102  0.00  0.00     0.120 C 
BRANCH  11  12
ATOM     12  C   UNL d   1      45.305 -16.893  38.520  0.00  0.00     0.101 A 
ATOM     13  N   UNL d   1      44.789 -16.917  37.845  0.00  0.00    -0.242 NA
ATOM     14  C   UNL d   1      44.836 -16.307  37.262  0.00  0.00     0.099 A 
ATOM     15  C   UNL d   1      45.394 -15.676  37.348  0.00  0.00     0.021 A 
ATOM     16  C   UNL d   1      45.909 -15.659  38.028  0.00  0.00     0.003 A 
ATOM     17  C   UNL d   1      45.861 -16.264  38.605  0.00  0.00     0.021 A 
ENDBRANCH  11  12
ENDBRANCH  10  11
ENDBRANCH   5  10
BRANCH   8  18
ATOM     18  C   UNL d   1      45.853 -16.739  42.547  0.00  0.00     0.036 C 
ATOM     19  C   UNL d   1      45.848 -16.146  43.143  0.00  0.00     0.006 C 
ATOM     20  C   UNL d   1      46.584 -16.384  42.789  0.00  0.00     0.006 C 
ATOM     21  C   UNL d   1      45.116 -16.502  42.900  0.00  0.00     0.006 C 
ENDBRANCH   8  18
BRANCH   4  22
ATOM     22  C   UNL d   1      45.960 -19.689  42.565  0.00  0.00     0.005 A 
ATOM     23  C   UNL d   1      46.603 -19.473  43.021  0.00  0.00     0.001 A 
ATOM     24  C   UNL d   1      46.638 -19.680  43.792  0.00  0.00     0.011 A 
ATOM     25  C   UNL d   1      46.032 -20.112  44.140  0.00  0.00     0.058 A 
ATOM     26  C   UNL d   1      45.399 -20.327  43.698  0.00  0.00     0.011 A 
ATOM     27 CL   UNL d   1      46.069 -20.330  44.953  0.00  0.00    -0.082 Cl
ATOM     28  C   UNL d   1      45.362 -20.114  42.906  0.00  0.00     0.001 A 
ENDBRANCH   4  22
TORSDOF 5
ENDMDL
