MODEL 1
REMARK VINA RESULT:      36.5      0.000      0.000
REMARK  5 active torsions:
REMARK  status: ('A' for Active; 'I' for Inactive)
REMARK    1  A    between atoms: C_9  and  C_5 
REMARK    2  A    between atoms: N_14  and  C_6 
REMARK    3  A    between atoms: N_11  and  C_9 
REMARK    4  A    between atoms: C_15  and  N_11 
REMARK    5  A    between atoms: C_16  and  C_15 
ROOT
ATOM      1  N   UNL d   1      13.594  14.351  -4.062  0.00  0.00    -0.258 N 
ATOM      2  N   UNL d   1      13.495  13.571  -5.195  0.00  0.00    -0.209 NA
ATOM      3  C   UNL d   1      13.603  14.294  -4.853  0.00  0.00     0.152 A 
ATOM      4  C   UNL d   1      13.479  13.706  -3.571  0.00  0.00     0.270 A 
ATOM      5  C   UNL d   1      13.366  12.950  -3.928  0.00  0.00     0.111 A 
ATOM      6  C   UNL d   1      13.380  12.921  -4.738  0.00  0.00     0.170 A 
ATOM      7  C   UNL d   1      13.723  14.972  -5.329  0.00  0.00     0.035 A 
ATOM      8  C   UNL d   1      13.710  15.123  -3.697  0.00  0.00     0.084 A 
ATOM      9  O   UNL d   1      13.467  13.751  -2.754  0.00  0.00    -0.266 OA
ATOM     10  C   UNL d   1      13.822  15.756  -4.162  0.00  0.00     0.019 A 
ATOM     11  C   UNL d   1      13.835  15.716  -4.977  0.00  0.00     0.005 A 
ATOM     12  C   UNL d   1      13.733  14.915  -6.152  0.00  0.00     0.003 C 
ENDROOT
BRANCH   5  13
ATOM     13  C   UNL d   1      13.244  12.262  -3.457  0.00  0.00     0.107 C 
BRANCH  13  14
ATOM     14  N   UNL d   1      13.774  12.062  -2.848  0.00  0.00    -0.242 NA
BRANCH  14  15
ATOM     15  C   UNL d   1      13.474  11.784  -2.129  0.00  0.00     0.099 C 
BRANCH  15  16
ATOM     16  C   UNL d   1      13.930  11.817  -1.456  0.00  0.00     0.019 A 
ATOM     17  C   UNL d   1      13.581  11.857  -0.715  0.00  0.00     0.002 A 
ATOM     18  C   UNL d   1      14.026  11.891  -0.035  0.00  0.00     0.000 A 
ATOM     19  C   UNL d   1      14.854  11.885  -0.096  0.00  0.00     0.000 A 
ATOM     20  C   UNL d   1      15.211  11.844  -0.854  0.00  0.00     0.000 A 
ATOM     21  C   UNL d   1      14.758  11.811  -1.518  0.00  0.00     0.002 A 
ENDBRANCH  15  16
ENDBRANCH  14  15
ENDBRANCH  13  14
ENDBRANCH   5  13
BRANCH   6  22
ATOM     22  N   UNL d   1      13.267  12.166  -5.095  0.00  0.00    -0.223 NA
ATOM     23  C   UNL d   1      13.386  12.082  -5.910  0.00  0.00     0.121 C 
ENDBRANCH   6  22
TORSDOF 5
ENDMDL
