MODEL 1
REMARK VINA RESULT:      -6.3      0.000      0.000
REMARK  6 active torsions:
REMARK  status: ('A' for Active; 'I' for Inactive)
REMARK    1  A    between atoms: N_2  and  S_1 
REMARK    2  A    between atoms: C_4  and  S_1 
REMARK    3  A    between atoms: C_3  and  N_2 
REMARK    4  A    between atoms: N_7  and  C_3 
REMARK    5  A    between atoms: C_11  and  N_7 
REMARK    6  A    between atoms: C_15  and  C_14 
ROOT
ATOM      1  S   UNL d   1     -41.869-122.683 -51.014  0.00  0.00     0.287 S 
ATOM      2  O   UNL d   1     -42.049-123.472 -51.178  0.00  0.00    -0.198 OA
ATOM      3  O   UNL d   1     -41.689-121.891 -50.849  0.00  0.00    -0.198 OA
ENDROOT
BRANCH   1   4
ATOM      4  N   UNL d   1     -41.720-122.551 -51.819  0.00  0.00    -0.128 NA
BRANCH   4   5
ATOM      5  C   UNL d   1     -41.322-122.770 -52.508  0.00  0.00     0.232 C 
ATOM      6  S   UNL d   1     -41.125-123.559 -52.642  0.00  0.00    -0.036 SA
BRANCH   5   7
ATOM      7  N   UNL d   1     -41.123-122.194 -53.063  0.00  0.00    -0.217 NA
BRANCH   7   8
ATOM      8  C   UNL d   1     -41.479-122.210 -53.809  0.00  0.00     0.084 A 
ATOM      9  C   UNL d   1     -42.106-121.701 -53.968  0.00  0.00     0.019 A 
ATOM     10  C   UNL d   1     -42.466-121.711 -54.708  0.00  0.00     0.002 A 
ATOM     11  C   UNL d   1     -42.200-122.226 -55.284  0.00  0.00     0.000 A 
ATOM     12  C   UNL d   1     -41.572-122.734 -55.120  0.00  0.00     0.002 A 
ATOM     13  C   UNL d   1     -41.214-122.725 -54.385  0.00  0.00     0.019 A 
ENDBRANCH   7   8
ENDBRANCH   5   7
ENDBRANCH   4   5
ENDBRANCH   1   4
BRANCH   1  14
ATOM     14  C   UNL d   1     -42.020-122.818 -50.205  0.00  0.00     0.105 A 
ATOM     15  C   UNL d   1     -41.444-123.179 -49.739  0.00  0.00     0.013 A 
ATOM     16  C   UNL d   1     -41.594-123.314 -48.930  0.00  0.00     0.001 A 
ATOM     17  C   UNL d   1     -42.322-123.086 -48.592  0.00  0.00     0.000 A 
ATOM     18  C   UNL d   1     -42.898-122.722 -49.067  0.00  0.00     0.001 A 
ATOM     19  C   UNL d   1     -42.748-122.589 -49.867  0.00  0.00     0.013 A 
BRANCH  17  20
ATOM     20  C   UNL d   1     -42.460-123.224 -47.791  0.00  0.00     0.000 C 
ATOM     21  C   UNL d   1     -41.873-123.074 -47.239  0.00  0.00     0.000 C 
ENDBRANCH  17  20
ENDBRANCH   1  14
TORSDOF 6
ENDMDL
MODEL 2
REMARK VINA RESULT:      -5.6      0.842      4.975
REMARK  6 active torsions:
REMARK  status: ('A' for Active; 'I' for Inactive)
REMARK    1  A    between atoms: N_2  and  S_1 
REMARK    2  A    between atoms: C_4  and  S_1 
REMARK    3  A    between atoms: C_3  and  N_2 
REMARK    4  A    between atoms: N_7  and  C_3 
REMARK    5  A    between atoms: C_11  and  N_7 
REMARK    6  A    between atoms: C_15  and  C_14 
ROOT
ATOM      1  S   UNL d   1     -41.447-122.803 -52.533  0.00  0.00     0.287 S 
ATOM      2  O   UNL d   1     -41.641-123.584 -52.717  0.00  0.00    -0.198 OA
ATOM      3  O   UNL d   1     -41.253-122.018 -52.349  0.00  0.00    -0.198 OA
ENDROOT
BRANCH   1   4
ATOM      4  N   UNL d   1     -41.333-123.018 -51.740  0.00  0.00    -0.128 NA
BRANCH   4   5
ATOM      5  C   UNL d   1     -41.513-122.898 -50.944  0.00  0.00     0.232 C 
ATOM      6  S   UNL d   1     -41.123-122.314 -50.512  0.00  0.00    -0.036 SA
BRANCH   5   7
ATOM      7  N   UNL d   1     -42.085-123.367 -50.581  0.00  0.00    -0.217 NA
BRANCH   7   8
ATOM      8  C   UNL d   1     -42.169-123.341 -49.759  0.00  0.00     0.084 A 
ATOM      9  C   UNL d   1     -42.872-123.062 -49.433  0.00  0.00     0.019 A 
ATOM     10  C   UNL d   1     -42.962-123.033 -48.616  0.00  0.00     0.002 A 
ATOM     11  C   UNL d   1     -42.355-123.280 -48.128  0.00  0.00     0.000 A 
ATOM     12  C   UNL d   1     -41.653-123.558 -48.460  0.00  0.00     0.002 A 
ATOM     13  C   UNL d   1     -41.562-123.588 -49.271  0.00  0.00     0.019 A 
ENDBRANCH   7   8
ENDBRANCH   5   7
ENDBRANCH   4   5
ENDBRANCH   1   4
BRANCH   1  14
ATOM     14  C   UNL d   1     -41.563-122.588 -53.330  0.00  0.00     0.105 A 
ATOM     15  C   UNL d   1     -41.147-122.984 -53.922  0.00  0.00     0.013 A 
ATOM     16  C   UNL d   1     -41.262-122.769 -54.719  0.00  0.00     0.001 A 
ATOM     17  C   UNL d   1     -41.793-122.158 -54.919  0.00  0.00     0.000 A 
ATOM     18  C   UNL d   1     -42.209-121.763 -54.319  0.00  0.00     0.001 A 
ATOM     19  C   UNL d   1     -42.094-121.977 -53.530  0.00  0.00     0.013 A 
BRANCH  17  20
ATOM     20  C   UNL d   1     -41.900-121.953 -55.711  0.00  0.00     0.000 C 
ATOM     21  C   UNL d   1     -42.632-122.047 -56.068  0.00  0.00     0.000 C 
ENDBRANCH  17  20
ENDBRANCH   1  14
TORSDOF 6
ENDMDL
