MODEL 1
REMARK VINA RESULT:      32.3      0.000      0.000
REMARK  5 active torsions:
REMARK  status: ('A' for Active; 'I' for Inactive)
REMARK    1  A    between atoms: C_3  and  C_1 
REMARK    2  A    between atoms: C_6  and  C_1 
REMARK    3  A    between atoms: C_2  and  C_3 
REMARK       I    between atoms: N_4  and  C_2 
REMARK    4  A    between atoms: C_12  and  N_4 
REMARK    5  A    between atoms: N_7  and  C_5 
ROOT
ATOM      1  C   UNL d   1      15.422  13.004  -0.561  0.00  0.00     0.328 C 
ATOM      2  N   UNL d   1      15.397  13.819  -0.682  0.00  0.00    -0.365 NA
ATOM      3  O   UNL d   1      16.090  12.573  -0.783  0.00  0.00    -0.251 OA
ENDROOT
BRANCH   1   4
ATOM      4  C   UNL d   1      14.779  12.621  -0.217  0.00  0.00     0.076 C 
BRANCH   4   5
ATOM      5  C   UNL d   1      14.530  11.894  -0.513  0.00  0.00     0.007 C 
BRANCH   5   6
ATOM      6  C   UNL d   1      14.083  11.861  -1.209  0.00  0.00     0.011 A 
ATOM      7  C   UNL d   1      13.256  11.828  -1.168  0.00  0.00     0.058 A 
ATOM      8 CL   UNL d   1      12.878  11.826  -0.436  0.00  0.00    -0.082 Cl
ATOM      9  C   UNL d   1      12.809  11.795  -1.867  0.00  0.00     0.011 A 
ATOM     10  C   UNL d   1      13.191  11.797  -2.599  0.00  0.00     0.001 A 
ATOM     11  C   UNL d   1      14.015  11.830  -2.631  0.00  0.00     0.000 A 
ATOM     12  C   UNL d   1      14.461  11.863  -1.940  0.00  0.00     0.001 A 
ENDBRANCH   5   6
ENDBRANCH   4   5
ENDBRANCH   1   4
BRANCH   2  13
ATOM     13  C   UNL d   1      15.372  14.632  -0.802  0.00  0.00     0.135 A 
ATOM     14  C   UNL d   1      15.676  15.139  -0.223  0.00  0.00     0.034 A 
ATOM     15  C   UNL d   1      15.652  15.952  -0.344  0.00  0.00     0.020 A 
ATOM     16  C   UNL d   1      15.322  16.260  -1.045  0.00  0.00     0.064 A 
ATOM     17  C   UNL d   1      15.020  15.751  -1.617  0.00  0.00     0.020 A 
ATOM     18  C   UNL d   1      15.046  14.937  -1.496  0.00  0.00     0.034 A 
BRANCH  16  19
ATOM     19  N   UNL d   1      15.298  17.082  -1.164  0.00  0.00    -0.301 N 
ATOM     20  C   UNL d   1      15.688  17.584  -0.632  0.00  0.00     0.100 C 
ATOM     21  C   UNL d   1      14.888  17.391  -1.809  0.00  0.00     0.100 C 
ENDBRANCH  16  19
ENDBRANCH   2  13
TORSDOF 5
ENDMDL
MODEL 2
REMARK VINA RESULT:      34.4      2.847      4.741
REMARK  5 active torsions:
REMARK  status: ('A' for Active; 'I' for Inactive)
REMARK    1  A    between atoms: C_3  and  C_1 
REMARK    2  A    between atoms: C_6  and  C_1 
REMARK    3  A    between atoms: C_2  and  C_3 
REMARK       I    between atoms: N_4  and  C_2 
REMARK    4  A    between atoms: C_12  and  N_4 
REMARK    5  A    between atoms: N_7  and  C_5 
ROOT
ATOM      1  C   UNL d   1      13.460  12.869  -4.475  0.00  0.00     0.328 C 
ATOM      2  N   UNL d   1      13.573  12.671  -3.683  0.00  0.00    -0.365 NA
ATOM      3  O   UNL d   1      13.335  12.277  -5.035  0.00  0.00    -0.251 OA
ENDROOT
BRANCH   1   4
ATOM      4  C   UNL d   1      13.473  13.659  -4.705  0.00  0.00     0.076 C 
BRANCH   4   5
ATOM      5  C   UNL d   1      14.104  14.140  -4.484  0.00  0.00     0.007 C 
BRANCH   5   6
ATOM      6  C   UNL d   1      14.131  14.928  -4.733  0.00  0.00     0.011 A 
ATOM      7  C   UNL d   1      14.210  15.537  -4.176  0.00  0.00     0.058 A 
ATOM      8 CL   UNL d   1      14.262  15.357  -3.373  0.00  0.00    -0.082 Cl
ATOM      9  C   UNL d   1      14.236  16.327  -4.428  0.00  0.00     0.011 A 
ATOM     10  C   UNL d   1      14.184  16.504  -5.233  0.00  0.00     0.001 A 
ATOM     11  C   UNL d   1      14.105  15.892  -5.781  0.00  0.00     0.000 A 
ATOM     12  C   UNL d   1      14.078  15.107  -5.535  0.00  0.00     0.001 A 
ENDBRANCH   5   6
ENDBRANCH   4   5
ENDBRANCH   1   4
BRANCH   2  13
ATOM     13  C   UNL d   1      13.685  12.473  -2.893  0.00  0.00     0.135 A 
ATOM     14  C   UNL d   1      14.349  12.762  -2.491  0.00  0.00     0.034 A 
ATOM     15  C   UNL d   1      14.461  12.564  -1.701  0.00  0.00     0.020 A 
ATOM     16  C   UNL d   1      13.910  12.076  -1.310  0.00  0.00     0.064 A 
ATOM     17  C   UNL d   1      13.252  11.792  -1.714  0.00  0.00     0.020 A 
ATOM     18  C   UNL d   1      13.139  11.990  -2.506  0.00  0.00     0.034 A 
BRANCH  16  19
ATOM     19  N   UNL d   1      14.027  11.878  -0.512  0.00  0.00    -0.301 N 
ATOM     20  C   UNL d   1      14.797  11.781  -0.222  0.00  0.00     0.100 C 
ATOM     21  C   UNL d   1      13.376  11.780  -0.014  0.00  0.00     0.100 C 
ENDBRANCH  16  19
ENDBRANCH   2  13
TORSDOF 5
ENDMDL
