MODEL 1
REMARK VINA RESULT:      -3.8      0.000      0.000
REMARK  6 active torsions:
REMARK  status: ('A' for Active; 'I' for Inactive)
REMARK    1  A    between atoms: N_2  and  S_1 
REMARK    2  A    between atoms: C_6  and  S_1 
REMARK    3  A    between atoms: S_7  and  C_3 
REMARK    4  A    between atoms: N_4  and  C_10 
REMARK    5  A    between atoms: C_21  and  S_7 
REMARK    6  A    between atoms: C_20  and  C_21 
ROOT
ATOM      1  N   UNL d   1      59.125  -0.205  29.264  0.00  0.00    -0.208 N 
ATOM      2  C   UNL d   1      58.446   0.023  29.686  0.00  0.00     0.189 A 
ATOM      3  N   UNL d   1      57.791  -0.060  29.186  0.00  0.00    -0.219 NA
ATOM      4  C   UNL d   1      58.887  -0.431  28.499  0.00  0.00     0.114 A 
ATOM      5  C   UNL d   1      58.067  -0.340  28.456  0.00  0.00     0.121 A 
ENDROOT
BRANCH   1   6
ATOM      6  S   UNL d   1      59.901  -0.207  29.558  0.00  0.00     0.273 S 
ATOM      7  O   UNL d   1      59.802   0.589  29.721  0.00  0.00    -0.200 OA
ATOM      8  O   UNL d   1      60.619   0.036  29.891  0.00  0.00    -0.200 OA
BRANCH   6   9
ATOM      9  C   UNL d   1      60.019  -1.010  29.400  0.00  0.00     0.104 A 
ATOM     10  C   UNL d   1      60.089  -1.262  28.622  0.00  0.00     0.015 A 
ATOM     11  C   UNL d   1      60.207  -2.065  28.459  0.00  0.00     0.024 A 
ATOM     12  C   UNL d   1      60.253  -2.599  29.087  0.00  0.00     0.127 A 
ATOM     13  C   UNL d   1      60.182  -2.339  29.865  0.00  0.00     0.024 A 
ATOM     14  C   UNL d   1      60.064  -1.540  30.028  0.00  0.00     0.015 A 
BRANCH  12  15
ATOM     15  N   UNL d   1      60.372  -3.410  28.926  0.00  0.00    -0.114 N 
ATOM     16  O   UNL d   1      61.127  -3.738  29.018  0.00  0.00    -0.532 OA
ATOM     17  O   UNL d   1      59.742  -3.879  28.678  0.00  0.00    -0.532 OA
ENDBRANCH  12  15
ENDBRANCH   6   9
ENDBRANCH   1   6
BRANCH   2  18
ATOM     18  S   UNL d   1      58.429   0.290  30.475  0.00  0.00    -0.049 SA
BRANCH  18  19
ATOM     19  C   UNL d   1      57.721   0.564  30.799  0.00  0.00     0.040 C 
BRANCH  19  20
ATOM     20  C   UNL d   1      57.564   0.444  31.599  0.00  0.00     0.026 A 
ATOM     21  C   UNL d   1      58.125   0.681  32.177  0.00  0.00     0.099 A 
ATOM     22  N   UNL d   1      57.983   0.570  32.979  0.00  0.00    -0.242 NA
ATOM     23  C   UNL d   1      57.272   0.217  33.208  0.00  0.00     0.099 A 
ATOM     24  C   UNL d   1      56.718  -0.017  32.645  0.00  0.00     0.021 A 
ATOM     25  C   UNL d   1      56.865   0.097  31.841  0.00  0.00     0.004 A 
ENDBRANCH  19  20
ENDBRANCH  18  19
ENDBRANCH   2  18
TORSDOF 6
ENDMDL
