MODEL 1
REMARK VINA RESULT:      -3.5      0.000      0.000
REMARK  5 active torsions:
REMARK  status: ('A' for Active; 'I' for Inactive)
REMARK    1  A    between atoms: C_2  and  C_1 
REMARK       I    between atoms: N_3  and  C_2 
REMARK    2  A    between atoms: C_6  and  N_3 
REMARK    3  A    between atoms: O_15  and  C_5 
REMARK    4  A    between atoms: O_17  and  C_11 
REMARK    5  A    between atoms: O_18  and  C_14 
ROOT
ATOM      1  C   UNL d   1     -41.589-122.671 -50.759  0.00  0.00     0.281 C 
ATOM      2  N   UNL d   1     -42.177-123.196 -50.469  0.00  0.00    -0.206 NA
ATOM      3  O   UNL d   1     -41.129-122.255 -50.241  0.00  0.00    -0.265 OA
ENDROOT
BRANCH   1   4
ATOM      4  C   UNL d   1     -41.482-122.583 -51.580  0.00  0.00     0.080 A 
ATOM      5  C   UNL d   1     -41.439-123.235 -52.069  0.00  0.00     0.007 A 
ATOM      6  C   UNL d   1     -41.334-123.172 -52.887  0.00  0.00     0.000 A 
ATOM      7  C   UNL d   1     -41.293-123.817 -53.358  0.00  0.00     0.000 A 
ATOM      8  C   UNL d   1     -41.268-122.401 -53.227  0.00  0.00     0.002 A 
ATOM      9  C   UNL d   1     -41.188-123.751 -54.170  0.00  0.00     0.000 A 
ATOM     10  C   UNL d   1     -41.122-122.980 -54.510  0.00  0.00     0.000 A 
ATOM     11  C   UNL d   1     -41.165-122.308 -54.024  0.00  0.00     0.000 A 
ATOM     12  C   UNL d   1     -41.311-121.726 -52.735  0.00  0.00     0.024 A 
ATOM     13  C   UNL d   1     -41.417-121.812 -51.921  0.00  0.00     0.099 A 
BRANCH  13  14
ATOM     14  O   UNL d   1     -41.459-121.140 -51.434  0.00  0.00    -0.328 OA
ATOM     15  C   UNL d   1     -41.123-120.410 -51.695  0.00  0.00     0.181 C 
ENDBRANCH  13  14
ENDBRANCH   1   4
BRANCH   2  16
ATOM     16  C   UNL d   1     -42.284-123.285 -49.647  0.00  0.00     0.109 A 
ATOM     17  C   UNL d   1     -41.646-123.177 -49.162  0.00  0.00     0.045 A 
ATOM     18  C   UNL d   1     -41.770-123.268 -48.361  0.00  0.00     0.096 A 
ATOM     19  C   UNL d   1     -42.503-123.460 -48.048  0.00  0.00     0.026 A 
ATOM     20  C   UNL d   1     -43.126-123.563 -48.552  0.00  0.00     0.028 A 
ATOM     21  C   UNL d   1     -43.041-123.482 -49.346  0.00  0.00     0.112 A 
BRANCH  18  22
ATOM     22  O   UNL d   1     -41.123-123.161 -47.836  0.00  0.00    -0.328 OA
ATOM     23  C   UNL d   1     -41.251-123.156 -47.048  0.00  0.00     0.181 C 
ENDBRANCH  18  22
BRANCH  21  24
ATOM     24  O   UNL d   1     -43.708-123.595 -49.853  0.00  0.00    -0.327 OA
ATOM     25  C   UNL d   1     -44.444-123.777 -49.531  0.00  0.00     0.181 C 
ENDBRANCH  21  24
ENDBRANCH   2  16
TORSDOF 5
ENDMDL
MODEL 2
REMARK VINA RESULT:      -2.4      0.859      4.722
REMARK  5 active torsions:
REMARK  status: ('A' for Active; 'I' for Inactive)
REMARK    1  A    between atoms: C_2  and  C_1 
REMARK       I    between atoms: N_3  and  C_2 
REMARK    2  A    between atoms: C_6  and  N_3 
REMARK    3  A    between atoms: O_15  and  C_5 
REMARK    4  A    between atoms: O_17  and  C_11 
REMARK    5  A    between atoms: O_18  and  C_14 
ROOT
ATOM      1  C   UNL d   1     -42.140-123.224 -50.598  0.00  0.00     0.281 C 
ATOM      2  N   UNL d   1     -41.568-122.675 -50.877  0.00  0.00    -0.206 NA
ATOM      3  O   UNL d   1     -42.563-123.668 -51.123  0.00  0.00    -0.265 OA
ENDROOT
BRANCH   1   4
ATOM      4  C   UNL d   1     -42.268-123.306 -49.778  0.00  0.00     0.080 A 
ATOM      5  C   UNL d   1     -41.642-123.299 -49.255  0.00  0.00     0.007 A 
ATOM      6  C   UNL d   1     -41.745-123.379 -48.438  0.00  0.00     0.000 A 
ATOM      7  C   UNL d   1     -41.126-123.370 -47.932  0.00  0.00     0.000 A 
ATOM      8  C   UNL d   1     -42.528-123.473 -48.137  0.00  0.00     0.002 A 
ATOM      9  C   UNL d   1     -41.230-123.450 -47.122  0.00  0.00     0.000 A 
ATOM     10  C   UNL d   1     -42.014-123.544 -46.820  0.00  0.00     0.000 A 
ATOM     11  C   UNL d   1     -42.660-123.553 -47.343  0.00  0.00     0.000 A 
ATOM     12  C   UNL d   1     -43.177-123.482 -48.666  0.00  0.00     0.024 A 
ATOM     13  C   UNL d   1     -43.052-123.400 -49.477  0.00  0.00     0.099 A 
BRANCH  13  14
ATOM     14  O   UNL d   1     -43.698-123.410 -50.000  0.00  0.00    -0.328 OA
ATOM     15  C   UNL d   1     -44.486-123.435 -49.695  0.00  0.00     0.181 C 
ENDBRANCH  13  14
ENDBRANCH   1   4
BRANCH   2  16
ATOM     16  C   UNL d   1     -41.440-122.593 -51.696  0.00  0.00     0.109 A 
ATOM     17  C   UNL d   1     -41.510-123.247 -52.165  0.00  0.00     0.045 A 
ATOM     18  C   UNL d   1     -41.381-123.147 -52.964  0.00  0.00     0.096 A 
ATOM     19  C   UNL d   1     -41.189-122.420 -53.292  0.00  0.00     0.026 A 
ATOM     20  C   UNL d   1     -41.125-121.779 -52.803  0.00  0.00     0.028 A 
ATOM     21  C   UNL d   1     -41.245-121.841 -52.012  0.00  0.00     0.112 A 
BRANCH  18  22
ATOM     22  O   UNL d   1     -41.447-123.813 -53.472  0.00  0.00    -0.328 OA
ATOM     23  C   UNL d   1     -41.586-123.702 -54.251  0.00  0.00     0.181 C 
ENDBRANCH  18  22
BRANCH  21  24
ATOM     24  O   UNL d   1     -41.172-121.156 -51.522  0.00  0.00    -0.327 OA
ATOM     25  C   UNL d   1     -41.261-120.405 -51.848  0.00  0.00     0.181 C 
ENDBRANCH  21  24
ENDBRANCH   2  16
TORSDOF 5
ENDMDL
