MODEL 1
REMARK VINA RESULT:      -3.3      0.000      0.000
REMARK  6 active torsions:
REMARK  status: ('A' for Active; 'I' for Inactive)
REMARK    1  A    between atoms: C_2  and  S_1 
REMARK    2  A    between atoms: N_5  and  S_1 
REMARK    3  A    between atoms: O_14  and  C_4 
REMARK    4  A    between atoms: C_11  and  N_5 
REMARK    5  A    between atoms: C_15  and  C_11 
REMARK    6  A    between atoms: C_18  and  O_14 
ROOT
ATOM      1  C   UNL d   1      58.882  -0.700  29.771  0.00  0.00     0.129 A 
ATOM      2  C   UNL d   1      59.368  -0.044  29.871  0.00  0.00     0.026 A 
ATOM      3  C   UNL d   1      59.089  -1.288  29.233  0.00  0.00     0.112 A 
ATOM      4  C   UNL d   1      60.063   0.025  29.432  0.00  0.00     0.059 A 
ATOM      5  C   UNL d   1      59.785  -1.219  28.795  0.00  0.00     0.026 A 
ATOM      6  C   UNL d   1      60.272  -0.562  28.894  0.00  0.00     0.013 A 
ATOM      7 CL   UNL d   1      60.551   0.682  29.532  0.00  0.00    -0.082 Cl
ATOM      8  C   UNL d   1      60.967  -0.493  28.455  0.00  0.00     0.001 C 
ENDROOT
BRANCH   1   9
ATOM      9  S   UNL d   1      58.186  -0.769  30.210  0.00  0.00     0.287 S 
ATOM     10  O   UNL d   1      57.762  -0.427  29.591  0.00  0.00    -0.198 OA
ATOM     11  O   UNL d   1      58.611  -1.111  30.829  0.00  0.00    -0.198 OA
BRANCH   9  12
ATOM     12  N   UNL d   1      57.491  -0.838  30.649  0.00  0.00    -0.155 NA
BRANCH  12  13
ATOM     13  C   UNL d   1      57.347  -0.326  31.278  0.00  0.00     0.137 C 
BRANCH  13  14
ATOM     14  C   UNL d   1      56.778  -0.517  31.844  0.00  0.00     0.120 A 
ATOM     15  O   UNL d   1      56.471  -1.265  31.982  0.00  0.00    -0.304 OA
ATOM     16  C   UNL d   1      55.921  -1.202  32.592  0.00  0.00     0.123 A 
ATOM     17  C   UNL d   1      55.889  -0.413  32.830  0.00  0.00     0.029 A 
ATOM     18  C   UNL d   1      56.423   0.008  32.362  0.00  0.00     0.028 A 
ENDBRANCH  13  14
ENDBRANCH  12  13
ENDBRANCH   9  12
ENDBRANCH   1   9
BRANCH   3  19
ATOM     19  O   UNL d   1      58.602  -1.948  29.132  0.00  0.00    -0.304 OA
BRANCH  19  20
ATOM     20  C   UNL d   1      58.859  -2.584  28.678  0.00  0.00     0.123 C 
ATOM     21  C   UNL d   1      58.446  -3.304  28.695  0.00  0.00     0.029 C 
ENDBRANCH  19  20
ENDBRANCH   3  19
TORSDOF 6
ENDMDL
MODEL 2
REMARK VINA RESULT:      -2.3      1.357      2.142
REMARK  6 active torsions:
REMARK  status: ('A' for Active; 'I' for Inactive)
REMARK    1  A    between atoms: C_2  and  S_1 
REMARK    2  A    between atoms: N_5  and  S_1 
REMARK    3  A    between atoms: O_14  and  C_4 
REMARK    4  A    between atoms: C_11  and  N_5 
REMARK    5  A    between atoms: C_15  and  C_11 
REMARK    6  A    between atoms: C_18  and  O_14 
ROOT
ATOM      1  C   UNL d   1      58.208  -0.911  30.147  0.00  0.00     0.129 A 
ATOM      2  C   UNL d   1      57.989  -1.611  29.775  0.00  0.00     0.026 A 
ATOM      3  C   UNL d   1      58.930  -0.559  29.966  0.00  0.00     0.112 A 
ATOM      4  C   UNL d   1      58.491  -1.960  29.221  0.00  0.00     0.059 A 
ATOM      5  C   UNL d   1      59.433  -0.908  29.413  0.00  0.00     0.026 A 
ATOM      6  C   UNL d   1      59.213  -1.609  29.040  0.00  0.00     0.013 A 
ATOM      7 CL   UNL d   1      58.272  -2.662  28.849  0.00  0.00    -0.082 Cl
ATOM      8  C   UNL d   1      59.716  -1.958  28.487  0.00  0.00     0.001 C 
ENDROOT
BRANCH   1   9
ATOM      9  S   UNL d   1      57.705  -0.562  30.700  0.00  0.00     0.287 S 
ATOM     10  O   UNL d   1      57.982  -1.081  31.278  0.00  0.00    -0.198 OA
ATOM     11  O   UNL d   1      57.429  -0.043  30.121  0.00  0.00    -0.198 OA
BRANCH   9  12
ATOM     12  N   UNL d   1      57.203  -0.213  31.253  0.00  0.00    -0.155 NA
BRANCH  12  13
ATOM     13  C   UNL d   1      56.750  -0.684  31.755  0.00  0.00     0.137 C 
BRANCH  13  14
ATOM     14  C   UNL d   1      56.258  -0.335  32.318  0.00  0.00     0.120 A 
ATOM     15  O   UNL d   1      56.147   0.471  32.423  0.00  0.00    -0.304 OA
ATOM     16  C   UNL d   1      55.614   0.572  33.042  0.00  0.00     0.123 A 
ATOM     17  C   UNL d   1      55.396  -0.174  33.320  0.00  0.00     0.029 A 
ATOM     18  C   UNL d   1      55.799  -0.733  32.866  0.00  0.00     0.028 A 
ENDBRANCH  13  14
ENDBRANCH  12  13
ENDBRANCH   9  12
ENDBRANCH   1   9
BRANCH   3  19
ATOM     19  O   UNL d   1      59.153   0.145  30.339  0.00  0.00    -0.304 OA
BRANCH  19  20
ATOM     20  C   UNL d   1      59.882   0.486  30.172  0.00  0.00     0.123 C 
ATOM     21  C   UNL d   1      60.403   0.682  30.789  0.00  0.00     0.029 C 
ENDBRANCH  19  20
ENDBRANCH   3  19
TORSDOF 6
ENDMDL
MODEL 3
REMARK VINA RESULT:      -1.8      2.066      4.679
REMARK  6 active torsions:
REMARK  status: ('A' for Active; 'I' for Inactive)
REMARK    1  A    between atoms: C_2  and  S_1 
REMARK    2  A    between atoms: N_5  and  S_1 
REMARK    3  A    between atoms: O_14  and  C_4 
REMARK    4  A    between atoms: C_11  and  N_5 
REMARK    5  A    between atoms: C_15  and  C_11 
REMARK    6  A    between atoms: C_18  and  O_14 
ROOT
ATOM      1  C   UNL d   1      56.677  -0.020  32.300  0.00  0.00     0.129 A 
ATOM      2  C   UNL d   1      55.872  -0.139  32.416  0.00  0.00     0.026 A 
ATOM      3  C   UNL d   1      57.150   0.232  32.926  0.00  0.00     0.112 A 
ATOM      4  C   UNL d   1      55.537  -0.006  33.158  0.00  0.00     0.059 A 
ATOM      5  C   UNL d   1      56.815   0.365  33.668  0.00  0.00     0.026 A 
ATOM      6  C   UNL d   1      56.008   0.246  33.784  0.00  0.00     0.013 A 
ATOM      7 CL   UNL d   1      54.730  -0.125  33.274  0.00  0.00    -0.082 Cl
ATOM      8  C   UNL d   1      55.673   0.379  34.526  0.00  0.00     0.001 C 
ENDROOT
BRANCH   1   9
ATOM      9  S   UNL d   1      57.012  -0.153  31.558  0.00  0.00     0.287 S 
ATOM     10  O   UNL d   1      56.972   0.655  31.395  0.00  0.00    -0.198 OA
ATOM     11  O   UNL d   1      57.052  -0.961  31.720  0.00  0.00    -0.198 OA
BRANCH   9  12
ATOM     12  N   UNL d   1      57.347  -0.286  30.816  0.00  0.00    -0.155 NA
BRANCH  12  13
ATOM     13  C   UNL d   1      57.843  -0.933  30.696  0.00  0.00     0.137 C 
BRANCH  13  14
ATOM     14  C   UNL d   1      58.216  -1.039  29.968  0.00  0.00     0.120 A 
ATOM     15  O   UNL d   1      58.523  -0.443  29.496  0.00  0.00    -0.304 OA
ATOM     16  C   UNL d   1      58.844  -0.794  28.824  0.00  0.00     0.123 A 
ATOM     17  C   UNL d   1      58.734  -1.610  28.882  0.00  0.00     0.029 A 
ATOM     18  C   UNL d   1      58.343  -1.756  29.595  0.00  0.00     0.028 A 
ENDBRANCH  13  14
ENDBRANCH  12  13
ENDBRANCH   9  12
ENDBRANCH   1   9
BRANCH   3  19
ATOM     19  O   UNL d   1      57.960   0.352  32.812  0.00  0.00    -0.304 OA
BRANCH  19  20
ATOM     20  C   UNL d   1      58.416   0.682  33.412  0.00  0.00     0.123 C 
ATOM     21  C   UNL d   1      59.244   0.681  33.355  0.00  0.00     0.029 C 
ENDBRANCH  19  20
ENDBRANCH   3  19
TORSDOF 6
ENDMDL
