MODEL 1
REMARK VINA RESULT:      -7.1      0.000      0.000
REMARK  6 active torsions:
REMARK  status: ('A' for Active; 'I' for Inactive)
REMARK    1  A    between atoms: N_6  and  C_1 
REMARK    2  A    between atoms: C_3  and  N_6 
REMARK    3  A    between atoms: N_4  and  C_3 
REMARK       I    between atoms: C_9  and  N_4 
REMARK    4  A    between atoms: C_12  and  C_9 
REMARK    5  A    between atoms: C_10  and  C_13 
REMARK    6  A    between atoms: O_20  and  C_10 
ROOT
ATOM      1  N   UNL d   1      51.851  35.023  53.221  0.00  0.00    -0.179 NA
ATOM      2  C   UNL d   1      52.532  34.746  53.604  0.00  0.00     0.281 C 
ATOM      3  O   UNL d   1      53.005  35.266  54.032  0.00  0.00    -0.265 OA
ENDROOT
BRANCH   1   4
ATOM      4  C   UNL d   1      51.378  34.502  52.793  0.00  0.00     0.225 C 
ATOM      5  S   UNL d   1      51.626  34.235  52.055  0.00  0.00    -0.037 SA
BRANCH   4   6
ATOM      6  N   UNL d   1      50.649  34.246  53.107  0.00  0.00    -0.192 NA
BRANCH   6   7
ATOM      7  C   UNL d   1      49.946  34.622  52.874  0.00  0.00     0.196 A 
ATOM      8  N   UNL d   1      49.545  35.188  53.312  0.00  0.00    -0.221 NA
ATOM      9  C   UNL d   1      48.874  35.415  52.877  0.00  0.00     0.090 A 
ATOM     10  C   UNL d   1      48.268  35.960  53.035  0.00  0.00     0.020 A 
ATOM     11  C   UNL d   1      48.870  34.984  52.175  0.00  0.00     0.050 A 
ATOM     12  C   UNL d   1      47.661  36.069  52.487  0.00  0.00     0.002 A 
ATOM     13  C   UNL d   1      47.661  35.632  51.781  0.00  0.00     0.001 A 
ATOM     14  C   UNL d   1      48.263  35.092  51.627  0.00  0.00     0.008 A 
ATOM     15  S   UNL d   1      49.543  34.490  52.180  0.00  0.00    -0.047 SA
ENDBRANCH   6   7
ENDBRANCH   4   6
ENDBRANCH   1   4
BRANCH   2  16
ATOM     16  C   UNL d   1      52.737  33.949  53.558  0.00  0.00     0.058 A 
ATOM     17  C   UNL d   1      53.183  33.678  52.921  0.00  0.00     0.005 A 
ATOM     18  C   UNL d   1      53.391  32.875  52.871  0.00  0.00     0.005 A 
ATOM     19  C   UNL d   1      53.149  32.351  53.461  0.00  0.00     0.063 A 
ATOM     20  C   UNL d   1      52.699  32.630  54.100  0.00  0.00     0.005 A 
ATOM     21  C   UNL d   1      52.495  33.425  54.147  0.00  0.00     0.005 A 
BRANCH  19  22
ATOM     22  C   UNL d   1      53.352  31.544  53.421  0.00  0.00     0.296 C 
ATOM     23  O   UNL d   1      54.079  31.278  53.706  0.00  0.00    -0.259 OA
BRANCH  22  24
ATOM     24  O   UNL d   1      52.818  31.010  53.092  0.00  0.00    -0.296 OA
ATOM     25  C   UNL d   1      52.980  30.196  53.108  0.00  0.00     0.185 C 
ENDBRANCH  22  24
ENDBRANCH  19  22
ENDBRANCH   2  16
TORSDOF 6
ENDMDL
MODEL 2
REMARK VINA RESULT:      -6.9      2.031      5.102
REMARK  6 active torsions:
REMARK  status: ('A' for Active; 'I' for Inactive)
REMARK    1  A    between atoms: N_6  and  C_1 
REMARK    2  A    between atoms: C_3  and  N_6 
REMARK    3  A    between atoms: N_4  and  C_3 
REMARK       I    between atoms: C_9  and  N_4 
REMARK    4  A    between atoms: C_12  and  C_9 
REMARK    5  A    between atoms: C_10  and  C_13 
REMARK    6  A    between atoms: O_20  and  C_10 
ROOT
ATOM      1  N   UNL d   1      52.556  33.742  53.398  0.00  0.00    -0.179 NA
ATOM      2  C   UNL d   1      52.246  34.456  53.112  0.00  0.00     0.281 C 
ATOM      3  O   UNL d   1      52.643  35.164  53.250  0.00  0.00    -0.265 OA
ENDROOT
BRANCH   1   4
ATOM      4  C   UNL d   1      52.158  33.035  53.259  0.00  0.00     0.225 C 
ATOM      5  S   UNL d   1      51.452  32.878  53.652  0.00  0.00    -0.037 SA
BRANCH   4   6
ATOM      6  N   UNL d   1      52.470  32.479  52.721  0.00  0.00    -0.192 NA
BRANCH   6   7
ATOM      7  C   UNL d   1      52.684  31.723  52.989  0.00  0.00     0.196 A 
ATOM      8  N   UNL d   1      52.260  31.034  52.849  0.00  0.00    -0.221 NA
ATOM      9  C   UNL d   1      52.668  30.408  53.213  0.00  0.00     0.090 A 
ATOM     10  C   UNL d   1      52.510  29.594  53.260  0.00  0.00     0.020 A 
ATOM     11  C   UNL d   1      53.340  30.720  53.574  0.00  0.00     0.050 A 
ATOM     12  C   UNL d   1      53.028  29.099  53.669  0.00  0.00     0.002 A 
ATOM     13  C   UNL d   1      53.704  29.417  54.030  0.00  0.00     0.001 A 
ATOM     14  C   UNL d   1      53.858  30.225  53.982  0.00  0.00     0.008 A 
ATOM     15  S   UNL d   1      53.344  31.542  53.429  0.00  0.00    -0.047 SA
ENDBRANCH   6   7
ENDBRANCH   4   6
ENDBRANCH   1   4
BRANCH   2  16
ATOM     16  C   UNL d   1      51.539  34.459  52.688  0.00  0.00     0.058 A 
ATOM     17  C   UNL d   1      50.821  34.464  53.091  0.00  0.00     0.005 A 
ATOM     18  C   UNL d   1      50.106  34.466  52.667  0.00  0.00     0.005 A 
ATOM     19  C   UNL d   1      50.118  34.464  51.842  0.00  0.00     0.063 A 
ATOM     20  C   UNL d   1      50.845  34.459  51.441  0.00  0.00     0.005 A 
ATOM     21  C   UNL d   1      51.551  34.457  51.863  0.00  0.00     0.005 A 
BRANCH  19  22
ATOM     22  C   UNL d   1      49.408  34.467  51.407  0.00  0.00     0.296 C 
ATOM     23  O   UNL d   1      49.363  34.095  50.672  0.00  0.00    -0.259 OA
BRANCH  22  24
ATOM     24  O   UNL d   1      48.747  34.846  51.718  0.00  0.00    -0.296 OA
ATOM     25  C   UNL d   1      48.066  34.945  51.253  0.00  0.00     0.185 C 
ENDBRANCH  22  24
ENDBRANCH  19  22
ENDBRANCH   2  16
TORSDOF 6
ENDMDL
MODEL 3
REMARK VINA RESULT:      -6.7      1.482      2.277
REMARK  6 active torsions:
REMARK  status: ('A' for Active; 'I' for Inactive)
REMARK    1  A    between atoms: N_6  and  C_1 
REMARK    2  A    between atoms: C_3  and  N_6 
REMARK    3  A    between atoms: N_4  and  C_3 
REMARK       I    between atoms: C_9  and  N_4 
REMARK    4  A    between atoms: C_12  and  C_9 
REMARK    5  A    between atoms: C_10  and  C_13 
REMARK    6  A    between atoms: O_20  and  C_10 
ROOT
ATOM      1  N   UNL d   1      52.066  32.606  52.443  0.00  0.00    -0.179 NA
ATOM      2  C   UNL d   1      52.668  32.132  52.760  0.00  0.00     0.281 C 
ATOM      3  O   UNL d   1      52.767  31.359  52.495  0.00  0.00    -0.265 OA
ENDROOT
BRANCH   1   4
ATOM      4  C   UNL d   1      51.968  33.380  52.709  0.00  0.00     0.225 C 
ATOM      5  S   UNL d   1      52.491  33.966  52.468  0.00  0.00    -0.037 SA
BRANCH   4   6
ATOM      6  N   UNL d   1      51.338  33.567  53.223  0.00  0.00    -0.192 NA
BRANCH   6   7
ATOM      7  C   UNL d   1      50.675  33.973  52.931  0.00  0.00     0.196 A 
ATOM      8  N   UNL d   1      50.365  33.892  52.175  0.00  0.00    -0.221 NA
ATOM      9  C   UNL d   1      49.707  34.396  52.117  0.00  0.00     0.090 A 
ATOM     10  C   UNL d   1      49.178  34.549  51.494  0.00  0.00     0.020 A 
ATOM     11  C   UNL d   1      49.619  34.782  52.839  0.00  0.00     0.050 A 
ATOM     12  C   UNL d   1      48.564  35.090  51.602  0.00  0.00     0.002 A 
ATOM     13  C   UNL d   1      48.479  35.476  52.332  0.00  0.00     0.001 A 
ATOM     14  C   UNL d   1      49.005  35.322  52.947  0.00  0.00     0.008 A 
ATOM     15  S   UNL d   1      50.227  34.513  53.343  0.00  0.00    -0.047 SA
ENDBRANCH   6   7
ENDBRANCH   4   6
ENDBRANCH   1   4
BRANCH   2  16
ATOM     16  C   UNL d   1      53.169  32.434  53.341  0.00  0.00     0.058 A 
ATOM     17  C   UNL d   1      53.849  32.842  53.122  0.00  0.00     0.005 A 
ATOM     18  C   UNL d   1      54.356  33.148  53.705  0.00  0.00     0.005 A 
ATOM     19  C   UNL d   1      54.176  33.040  54.503  0.00  0.00     0.063 A 
ATOM     20  C   UNL d   1      53.489  32.626  54.718  0.00  0.00     0.005 A 
ATOM     21  C   UNL d   1      52.988  32.326  54.138  0.00  0.00     0.005 A 
BRANCH  19  22
ATOM     22  C   UNL d   1      54.678  33.341  55.097  0.00  0.00     0.296 C 
ATOM     23  O   UNL d   1      54.656  33.033  55.862  0.00  0.00    -0.259 OA
BRANCH  22  24
ATOM     24  O   UNL d   1      55.197  33.952  54.912  0.00  0.00    -0.296 OA
ATOM     25  C   UNL d   1      55.725  34.238  55.486  0.00  0.00     0.185 C 
ENDBRANCH  22  24
ENDBRANCH  19  22
ENDBRANCH   2  16
TORSDOF 6
ENDMDL
MODEL 4
REMARK VINA RESULT:      -6.6      1.463      2.147
REMARK  6 active torsions:
REMARK  status: ('A' for Active; 'I' for Inactive)
REMARK    1  A    between atoms: N_6  and  C_1 
REMARK    2  A    between atoms: C_3  and  N_6 
REMARK    3  A    between atoms: N_4  and  C_3 
REMARK       I    between atoms: C_9  and  N_4 
REMARK    4  A    between atoms: C_12  and  C_9 
REMARK    5  A    between atoms: C_10  and  C_13 
REMARK    6  A    between atoms: O_20  and  C_10 
ROOT
ATOM      1  N   UNL d   1      50.515  34.334  52.117  0.00  0.00    -0.179 NA
ATOM      2  C   UNL d   1      51.327  34.201  52.019  0.00  0.00     0.281 C 
ATOM      3  O   UNL d   1      51.642  34.111  51.264  0.00  0.00    -0.265 OA
ENDROOT
BRANCH   1   4
ATOM      4  C   UNL d   1      50.200  34.424  52.873  0.00  0.00     0.225 C 
ATOM      5  S   UNL d   1      50.102  33.766  53.357  0.00  0.00    -0.037 SA
BRANCH   4   6
ATOM      6  N   UNL d   1      49.982  35.180  53.148  0.00  0.00    -0.192 NA
BRANCH   6   7
ATOM      7  C   UNL d   1      49.194  35.434  53.075  0.00  0.00     0.196 A 
ATOM      8  N   UNL d   1      48.764  35.448  52.376  0.00  0.00    -0.221 NA
ATOM      9  C   UNL d   1      48.006  35.738  52.553  0.00  0.00     0.090 A 
ATOM     10  C   UNL d   1      47.338  35.875  52.077  0.00  0.00     0.020 A 
ATOM     11  C   UNL d   1      47.978  35.900  53.360  0.00  0.00     0.050 A 
ATOM     12  C   UNL d   1      46.648  36.173  52.415  0.00  0.00     0.002 A 
ATOM     13  C   UNL d   1      46.624  36.335  53.229  0.00  0.00     0.001 A 
ATOM     14  C   UNL d   1      47.287  36.198  53.698  0.00  0.00     0.008 A 
ATOM     15  S   UNL d   1      48.724  35.708  53.680  0.00  0.00    -0.047 SA
ENDBRANCH   6   7
ENDBRANCH   4   6
ENDBRANCH   1   4
BRANCH   2  16
ATOM     16  C   UNL d   1      51.821  34.157  52.677  0.00  0.00     0.058 A 
ATOM     17  C   UNL d   1      51.900  33.446  53.083  0.00  0.00     0.005 A 
ATOM     18  C   UNL d   1      52.397  33.398  53.747  0.00  0.00     0.005 A 
ATOM     19  C   UNL d   1      52.811  34.066  53.998  0.00  0.00     0.063 A 
ATOM     20  C   UNL d   1      52.728  34.781  53.586  0.00  0.00     0.005 A 
ATOM     21  C   UNL d   1      52.235  34.825  52.928  0.00  0.00     0.005 A 
BRANCH  19  22
ATOM     22  C   UNL d   1      53.312  34.030  54.663  0.00  0.00     0.296 C 
ATOM     23  O   UNL d   1      53.335  34.650  55.207  0.00  0.00    -0.259 OA
BRANCH  22  24
ATOM     24  O   UNL d   1      53.787  33.366  54.773  0.00  0.00    -0.296 OA
ATOM     25  C   UNL d   1      54.416  33.390  55.316  0.00  0.00     0.185 C 
ENDBRANCH  22  24
ENDBRANCH  19  22
ENDBRANCH   2  16
TORSDOF 6
ENDMDL
MODEL 5
REMARK VINA RESULT:      -6.2      1.295      2.089
REMARK  6 active torsions:
REMARK  status: ('A' for Active; 'I' for Inactive)
REMARK    1  A    between atoms: N_6  and  C_1 
REMARK    2  A    between atoms: C_3  and  N_6 
REMARK    3  A    between atoms: N_4  and  C_3 
REMARK       I    between atoms: C_9  and  N_4 
REMARK    4  A    between atoms: C_12  and  C_9 
REMARK    5  A    between atoms: C_10  and  C_13 
REMARK    6  A    between atoms: O_20  and  C_10 
ROOT
ATOM      1  N   UNL d   1      53.445  33.522  53.301  0.00  0.00    -0.179 NA
ATOM      2  C   UNL d   1      54.027  32.933  53.346  0.00  0.00     0.281 C 
ATOM      3  O   UNL d   1      54.820  33.127  53.239  0.00  0.00    -0.265 OA
ENDROOT
BRANCH   1   4
ATOM      4  C   UNL d   1      52.653  33.326  53.408  0.00  0.00     0.225 C 
ATOM      5  S   UNL d   1      52.350  33.238  54.168  0.00  0.00    -0.037 SA
BRANCH   4   6
ATOM      6  N   UNL d   1      52.157  33.218  52.746  0.00  0.00    -0.192 NA
BRANCH   6   7
ATOM      7  C   UNL d   1      51.455  33.657  52.680  0.00  0.00     0.196 A 
ATOM      8  N   UNL d   1      51.104  34.082  53.288  0.00  0.00    -0.221 NA
ATOM      9  C   UNL d   1      50.416  34.435  52.984  0.00  0.00     0.090 A 
ATOM     10  C   UNL d   1      49.841  34.923  53.333  0.00  0.00     0.020 A 
ATOM     11  C   UNL d   1      50.352  34.223  52.191  0.00  0.00     0.050 A 
ATOM     12  C   UNL d   1      49.206  35.195  52.883  0.00  0.00     0.002 A 
ATOM     13  C   UNL d   1      49.145  34.979  52.083  0.00  0.00     0.001 A 
ATOM     14  C   UNL d   1      49.716  34.495  51.740  0.00  0.00     0.008 A 
ATOM     15  S   UNL d   1      51.005  33.737  52.007  0.00  0.00    -0.047 SA
ENDBRANCH   6   7
ENDBRANCH   4   6
ENDBRANCH   1   4
BRANCH   2  16
ATOM     16  C   UNL d   1      53.814  32.152  53.496  0.00  0.00     0.058 A 
ATOM     17  C   UNL d   1      53.756  31.886  54.273  0.00  0.00     0.005 A 
ATOM     18  C   UNL d   1      53.541  31.098  54.429  0.00  0.00     0.005 A 
ATOM     19  C   UNL d   1      53.385  30.584  53.802  0.00  0.00     0.063 A 
ATOM     20  C   UNL d   1      53.445  30.857  53.020  0.00  0.00     0.005 A 
ATOM     21  C   UNL d   1      53.658  31.638  52.870  0.00  0.00     0.005 A 
BRANCH  19  22
ATOM     22  C   UNL d   1      53.169  29.792  53.946  0.00  0.00     0.296 C 
ATOM     23  O   UNL d   1      52.540  29.447  53.538  0.00  0.00    -0.259 OA
BRANCH  22  24
ATOM     24  O   UNL d   1      53.590  29.355  54.502  0.00  0.00    -0.296 OA
ATOM     25  C   UNL d   1      53.324  28.601  54.727  0.00  0.00     0.185 C 
ENDBRANCH  22  24
ENDBRANCH  19  22
ENDBRANCH   2  16
TORSDOF 6
ENDMDL
MODEL 6
REMARK VINA RESULT:      -6.2      2.555      4.904
REMARK  6 active torsions:
REMARK  status: ('A' for Active; 'I' for Inactive)
REMARK    1  A    between atoms: N_6  and  C_1 
REMARK    2  A    between atoms: C_3  and  N_6 
REMARK    3  A    between atoms: N_4  and  C_3 
REMARK       I    between atoms: C_9  and  N_4 
REMARK    4  A    between atoms: C_12  and  C_9 
REMARK    5  A    between atoms: C_10  and  C_13 
REMARK    6  A    between atoms: O_20  and  C_10 
ROOT
ATOM      1  N   UNL d   1      51.686  33.139  52.102  0.00  0.00    -0.179 NA
ATOM      2  C   UNL d   1      51.711  33.967  52.092  0.00  0.00     0.281 C 
ATOM      3  O   UNL d   1      51.406  34.382  51.450  0.00  0.00    -0.265 OA
ENDROOT
BRANCH   1   4
ATOM      4  C   UNL d   1      51.992  32.725  52.745  0.00  0.00     0.225 C 
ATOM      5  S   UNL d   1      51.554  32.660  53.438  0.00  0.00    -0.037 SA
BRANCH   4   6
ATOM      6  N   UNL d   1      52.746  32.373  52.693  0.00  0.00    -0.192 NA
BRANCH   6   7
ATOM      7  C   UNL d   1      52.859  31.598  52.971  0.00  0.00     0.196 A 
ATOM      8  N   UNL d   1      52.489  30.929  52.673  0.00  0.00    -0.221 NA
ATOM      9  C   UNL d   1      52.759  30.276  53.109  0.00  0.00     0.090 A 
ATOM     10  C   UNL d   1      52.583  29.465  53.061  0.00  0.00     0.020 A 
ATOM     11  C   UNL d   1      53.294  30.551  53.672  0.00  0.00     0.050 A 
ATOM     12  C   UNL d   1      52.945  28.936  53.580  0.00  0.00     0.002 A 
ATOM     13  C   UNL d   1      53.484  29.217  54.146  0.00  0.00     0.001 A 
ATOM     14  C   UNL d   1      53.656  30.021  54.191  0.00  0.00     0.008 A 
ATOM     15  S   UNL d   1      53.351  31.378  53.581  0.00  0.00    -0.047 SA
ENDBRANCH   6   7
ENDBRANCH   4   6
ENDBRANCH   1   4
BRANCH   2  16
ATOM     16  C   UNL d   1      52.043  34.378  52.724  0.00  0.00     0.058 A 
ATOM     17  C   UNL d   1      52.832  34.612  52.692  0.00  0.00     0.005 A 
ATOM     18  C   UNL d   1      53.170  35.026  53.328  0.00  0.00     0.005 A 
ATOM     19  C   UNL d   1      52.713  35.203  53.992  0.00  0.00     0.063 A 
ATOM     20  C   UNL d   1      51.917  34.965  54.019  0.00  0.00     0.005 A 
ATOM     21  C   UNL d   1      51.586  34.555  53.388  0.00  0.00     0.005 A 
BRANCH  19  22
ATOM     22  C   UNL d   1      53.041  35.618  54.636  0.00  0.00     0.296 C 
ATOM     23  O   UNL d   1      52.879  36.419  54.746  0.00  0.00    -0.259 OA
BRANCH  22  24
ATOM     24  O   UNL d   1      53.531  35.219  55.163  0.00  0.00    -0.296 OA
ATOM     25  C   UNL d   1      53.508  35.404  55.973  0.00  0.00     0.185 C 
ENDBRANCH  22  24
ENDBRANCH  19  22
ENDBRANCH   2  16
TORSDOF 6
ENDMDL
