MODEL 1
REMARK VINA RESULT:      69.6      0.000      0.000
REMARK  5 active torsions:
REMARK  status: ('A' for Active; 'I' for Inactive)
REMARK    1  A    between atoms: N_9  and  C_2 
REMARK    2  A    between atoms: N_8  and  C_3 
REMARK    3  A    between atoms: N_10  and  C_6 
REMARK    4  A    between atoms: C_7  and  C_11 
REMARK    5  A    between atoms: C_13  and  N_10 
ROOT
ATOM      1  N   UNL d   1      61.018  48.253  51.116  0.00  0.00     0.133 NA
ATOM      2  C   UNL d   1      60.841  48.001  50.346  0.00  0.00     0.765 A 
ATOM      3  C   UNL d   1      60.750  48.987  51.382  0.00  0.00     0.765 A 
ATOM      4  N   UNL d   1      60.395  48.486  49.845  0.00  0.00     0.134 NA
ATOM      5  N   UNL d   1      60.304  49.472  50.881  0.00  0.00     0.134 NA
ATOM      6  C   UNL d   1      60.126  49.223  50.115  0.00  0.00     0.780 A 
ENDROOT
BRANCH   6   7
ATOM      7  N   UNL d   1      59.683  49.702  49.613  0.00  0.00    -0.058 NA
BRANCH   7   8
ATOM      8  C   UNL d   1      58.862  49.642  49.602  0.00  0.00     0.100 A 
ATOM      9  C   UNL d   1      58.447  49.594  50.322  0.00  0.00     0.024 A 
ATOM     10  C   UNL d   1      57.622  49.533  50.313  0.00  0.00     0.073 A 
ATOM     11  C   UNL d   1      57.218  49.521  49.591  0.00  0.00     0.004 A 
ATOM     12  C   UNL d   1      57.639  49.568  48.882  0.00  0.00     0.002 A 
ATOM     13  C   UNL d   1      58.456  49.629  48.885  0.00  0.00     0.020 A 
BRANCH  10  14
ATOM     14  C   UNL d   1      57.209  49.486  51.017  0.00  0.00     0.419 C 
ATOM     15  F   UNL d   1      56.406  49.305  51.007  0.00  0.00    -0.166 F 
ATOM     16  F   UNL d   1      57.591  49.618  51.726  0.00  0.00    -0.166 F 
ATOM     17  F   UNL d   1      56.650  49.322  50.432  0.00  0.00    -0.166 F 
ENDBRANCH  10  14
ENDBRANCH   7   8
ENDBRANCH   6   7
BRANCH   3  18
ATOM     18  N   UNL d   1      60.927  49.239  52.152  0.00  0.00    -0.137 N 
ATOM     19  C   UNL d   1      60.309  49.449  52.662  0.00  0.00     0.098 A 
ATOM     20  C   UNL d   1      60.493  49.698  53.427  0.00  0.00     0.021 A 
ATOM     21  C   UNL d   1      61.878  49.528  53.160  0.00  0.00     0.021 A 
ATOM     22  C   UNL d   1      61.713  49.278  52.397  0.00  0.00     0.098 A 
ENDBRANCH   3  18
BRANCH   2  23
ATOM     23  N   UNL d   1      61.110  47.264  50.077  0.00  0.00    -0.137 N 
ATOM     24  C   UNL d   1      60.797  46.579  50.400  0.00  0.00     0.098 A 
ATOM     25  C   UNL d   1      61.064  45.855  50.134  0.00  0.00     0.021 A 
ATOM     26  C   UNL d   1      61.949  46.498  49.226  0.00  0.00     0.021 A 
ATOM     27  C   UNL d   1      61.686  47.235  49.488  0.00  0.00     0.098 A 
ENDBRANCH   2  23
TORSDOF 5
ENDMDL
