MODEL 1
REMARK VINA RESULT:      34.9      0.000      0.000
REMARK  9 active torsions:
REMARK  status: ('A' for Active; 'I' for Inactive)
REMARK    1  A    between atoms: N_6  and  C_1 
REMARK    2  A    between atoms: N_2  and  C_12 
REMARK    3  A    between atoms: C_3  and  N_6 
REMARK    4  A    between atoms: N_4  and  C_3 
REMARK       I    between atoms: C_7  and  N_4 
REMARK    5  A    between atoms: C_16  and  C_7 
REMARK    6  A    between atoms: C_10  and  C_8 
REMARK    7  A    between atoms: C_13  and  C_10 
REMARK    8  A    between atoms: O_24  and  C_13 
REMARK    9  A    between atoms: C_25  and  O_24 
ROOT
ATOM      1  C   UNL d   1      46.092 -17.419  44.277  0.00  0.00     0.277 C 
ATOM      2  S   UNL d   1      45.877 -17.837  44.955  0.00  0.00    -0.023 SA
ENDROOT
BRANCH   1   3
ATOM      3  N   UNL d   1      46.232 -17.824  43.572  0.00  0.00    -0.347 NA
BRANCH   3   4
ATOM      4  C   UNL d   1      46.369 -18.233  42.871  0.00  0.00     0.248 A 
ATOM      5  N   UNL d   1      46.416 -17.907  42.108  0.00  0.00    -0.210 NA
ATOM      6  C   UNL d   1      46.561 -18.522  41.577  0.00  0.00     0.096 A 
ATOM      7  C   UNL d   1      46.602 -19.225  42.010  0.00  0.00     0.059 A 
ATOM      8  S   UNL d   1      46.485 -19.048  42.798  0.00  0.00    -0.033 SA
BRANCH   6   9
ATOM      9  C   UNL d   1      46.647 -18.444  40.765  0.00  0.00     0.088 C 
BRANCH   9  10
ATOM     10  C   UNL d   1      46.015 -18.592  40.262  0.00  0.00     0.302 C 
ATOM     11  O   UNL d   1      45.859 -19.367  40.026  0.00  0.00    -0.259 OA
BRANCH  10  12
ATOM     12  O   UNL d   1      45.541 -17.977  39.995  0.00  0.00    -0.271 OA
BRANCH  12  13
ATOM     13  C   UNL d   1      45.469 -17.831  39.187  0.00  0.00     0.126 C 
ATOM     14  C   UNL d   1      44.902 -17.304  38.913  0.00  0.00     0.029 C 
ENDBRANCH  12  13
ENDBRANCH  10  12
ENDBRANCH   9  10
ENDBRANCH   6   9
ENDBRANCH   3   4
ENDBRANCH   1   3
BRANCH   1  15
ATOM     15  N   UNL d   1      46.165 -16.599  44.310  0.00  0.00    -0.168 NA
ATOM     16  C   UNL d   1      45.494 -16.124  44.406  0.00  0.00     0.282 C 
ATOM     17  O   UNL d   1      44.751 -16.469  44.468  0.00  0.00    -0.265 OA
BRANCH  16  18
ATOM     18  C   UNL d   1      45.575 -15.302  44.438  0.00  0.00     0.058 A 
ATOM     19  C   UNL d   1      46.153 -14.930  44.002  0.00  0.00     0.006 A 
ATOM     20  C   UNL d   1      46.233 -14.106  44.035  0.00  0.00     0.024 A 
ATOM     21  C   UNL d   1      45.724 -13.662  44.512  0.00  0.00     0.127 A 
ATOM     22  C   UNL d   1      45.135 -14.045  44.955  0.00  0.00     0.024 A 
ATOM     23  C   UNL d   1      45.059 -14.861  44.919  0.00  0.00     0.006 A 
BRANCH  21  24
ATOM     24  N   UNL d   1      45.798 -12.844  44.549  0.00  0.00    -0.114 N 
ATOM     25  O   UNL d   1      46.548 -12.494  44.573  0.00  0.00    -0.532 OA
ATOM     26  O   UNL d   1      45.125 -12.374  44.561  0.00  0.00    -0.532 OA
ENDBRANCH  21  24
ENDBRANCH  16  18
ENDBRANCH   1  15
TORSDOF 9
ENDMDL
