MODEL 1
REMARK VINA RESULT:      -7.6      0.000      0.000
REMARK  3 active torsions:
REMARK  status: ('A' for Active; 'I' for Inactive)
REMARK    1  A    between atoms: N_3  and  C_1 
REMARK       I    between atoms: C_5  and  N_3 
REMARK    2  A    between atoms: C_8  and  C_5 
REMARK       I    between atoms: C_11  and  N_12 
REMARK    3  A    between atoms: N_12  and  C_13 
ROOT
ATOM      1  C   UNL d   1     -48.143  13.067  23.066  0.00  0.00     0.197 A 
ATOM      2  N   UNL d   1     -48.121  12.338  23.444  0.00  0.00    -0.221 NA
ATOM      3  S   UNL d   1     -47.391  13.242  22.806  0.00  0.00    -0.047 SA
ATOM      4  C   UNL d   1     -46.904  12.625  23.021  0.00  0.00     0.051 A 
ATOM      5  C   UNL d   1     -47.359  12.060  23.419  0.00  0.00     0.090 A 
ATOM      6  C   UNL d   1     -46.085  12.504  22.901  0.00  0.00     0.027 A 
ATOM      7  C   UNL d   1     -45.732  11.817  23.182  0.00  0.00     0.085 A 
ATOM      8  C   UNL d   1     -46.996  11.374  23.698  0.00  0.00     0.021 A 
ATOM      9  C   UNL d   1     -46.195  11.241  23.588  0.00  0.00     0.021 A 
ENDROOT
BRANCH   1  10
ATOM     10  N   UNL d   1     -48.807  13.550  22.961  0.00  0.00    -0.182 NA
ATOM     11  C   UNL d   1     -49.310  13.388  22.333  0.00  0.00     0.287 C 
ATOM     12  O   UNL d   1     -49.131  12.738  21.821  0.00  0.00    -0.265 OA
BRANCH  11  13
ATOM     13  C   UNL d   1     -49.967  13.842  22.204  0.00  0.00     0.087 A 
ATOM     14  S   UNL d   1     -50.323  14.446  22.651  0.00  0.00    -0.082 SA
ATOM     15  C   UNL d   1     -50.975  14.716  22.262  0.00  0.00     0.036 A 
ATOM     16  C   UNL d   1     -51.054  14.301  21.567  0.00  0.00     0.008 A 
ATOM     17  C   UNL d   1     -50.417  13.744  21.522  0.00  0.00     0.012 A 
ENDBRANCH  11  13
ENDBRANCH   1  10
BRANCH   7  18
ATOM     18  N   UNL d   1     -44.906  11.710  23.053  0.00  0.00    -0.208 NA
ATOM     19  C   UNL d   1     -44.537  10.999  23.301  0.00  0.00     0.279 C 
ATOM     20  O   UNL d   1     -43.720  10.892  23.174  0.00  0.00    -0.265 OA
ATOM     21  C   UNL d   1     -44.984  10.408  23.670  0.00  0.00     0.068 C 
ENDBRANCH   7  18
TORSDOF 3
ENDMDL
MODEL 2
REMARK VINA RESULT:      -7.5      1.430      5.131
REMARK  3 active torsions:
REMARK  status: ('A' for Active; 'I' for Inactive)
REMARK    1  A    between atoms: N_3  and  C_1 
REMARK       I    between atoms: C_5  and  N_3 
REMARK    2  A    between atoms: C_8  and  C_5 
REMARK       I    between atoms: C_11  and  N_12 
REMARK    3  A    between atoms: N_12  and  C_13 
ROOT
ATOM      1  C   UNL d   1     -46.381  12.109  23.443  0.00  0.00     0.197 A 
ATOM      2  N   UNL d   1     -46.208  12.889  23.253  0.00  0.00    -0.221 NA
ATOM      3  S   UNL d   1     -47.190  12.015  23.430  0.00  0.00    -0.047 SA
ATOM      4  C   UNL d   1     -47.519  12.734  23.231  0.00  0.00     0.051 A 
ATOM      5  C   UNL d   1     -46.906  13.279  23.121  0.00  0.00     0.090 A 
ATOM      6  C   UNL d   1     -48.317  12.966  23.136  0.00  0.00     0.027 A 
ATOM      7  C   UNL d   1     -48.492  13.742  22.930  0.00  0.00     0.085 A 
ATOM      8  C   UNL d   1     -47.091  14.057  22.915  0.00  0.00     0.021 A 
ATOM      9  C   UNL d   1     -47.868  14.298  22.818  0.00  0.00     0.021 A 
ENDROOT
BRANCH   1  10
ATOM     10  N   UNL d   1     -45.836  11.510  23.620  0.00  0.00    -0.182 NA
ATOM     11  C   UNL d   1     -45.142  11.474  23.183  0.00  0.00     0.287 C 
ATOM     12  O   UNL d   1     -45.011  12.046  22.573  0.00  0.00    -0.265 OA
BRANCH  11  13
ATOM     13  C   UNL d   1     -44.591  10.902  23.332  0.00  0.00     0.087 A 
ATOM     14  S   UNL d   1     -44.651  10.148  23.678  0.00  0.00    -0.082 SA
ATOM     15  C   UNL d   1     -43.922   9.803  23.692  0.00  0.00     0.036 A 
ATOM     16  C   UNL d   1     -43.385  10.316  23.363  0.00  0.00     0.008 A 
ATOM     17  C   UNL d   1     -43.802  11.017  23.131  0.00  0.00     0.012 A 
ENDBRANCH  11  13
ENDBRANCH   1  10
BRANCH   7  18
ATOM     18  N   UNL d   1     -49.301  13.959  22.838  0.00  0.00    -0.208 NA
ATOM     19  C   UNL d   1     -49.646  13.954  22.073  0.00  0.00     0.279 C 
ATOM     20  O   UNL d   1     -50.445  14.167  21.980  0.00  0.00    -0.265 OA
ATOM     21  C   UNL d   1     -49.191  13.737  21.416  0.00  0.00     0.068 C 
ENDBRANCH   7  18
TORSDOF 3
ENDMDL
MODEL 3
REMARK VINA RESULT:      -6.5      1.936      5.035
REMARK  3 active torsions:
REMARK  status: ('A' for Active; 'I' for Inactive)
REMARK    1  A    between atoms: N_3  and  C_1 
REMARK       I    between atoms: C_5  and  N_3 
REMARK    2  A    between atoms: C_8  and  C_5 
REMARK       I    between atoms: C_11  and  N_12 
REMARK    3  A    between atoms: N_12  and  C_13 
ROOT
ATOM      1  C   UNL d   1     -46.337  13.381  22.839  0.00  0.00     0.197 A 
ATOM      2  N   UNL d   1     -46.944  12.851  22.999  0.00  0.00    -0.221 NA
ATOM      3  S   UNL d   1     -46.658  14.128  22.781  0.00  0.00    -0.047 SA
ATOM      4  C   UNL d   1     -47.462  14.061  22.904  0.00  0.00     0.051 A 
ATOM      5  C   UNL d   1     -47.640  13.265  23.040  0.00  0.00     0.090 A 
ATOM      6  C   UNL d   1     -48.066  14.640  22.909  0.00  0.00     0.027 A 
ATOM      7  C   UNL d   1     -48.844  14.412  23.051  0.00  0.00     0.085 A 
ATOM      8  C   UNL d   1     -48.423  13.046  23.181  0.00  0.00     0.021 A 
ATOM      9  C   UNL d   1     -49.025  13.601  23.190  0.00  0.00     0.021 A 
ENDROOT
BRANCH   1  10
ATOM     10  N   UNL d   1     -45.534  13.202  22.750  0.00  0.00    -0.182 NA
ATOM     11  C   UNL d   1     -45.270  12.954  22.013  0.00  0.00     0.287 C 
ATOM     12  O   UNL d   1     -45.826  12.891  21.378  0.00  0.00    -0.265 OA
BRANCH  11  13
ATOM     13  C   UNL d   1     -44.492  12.771  21.894  0.00  0.00     0.087 A 
ATOM     14  S   UNL d   1     -43.995  12.200  22.239  0.00  0.00    -0.082 SA
ATOM     15  C   UNL d   1     -43.259  12.256  21.914  0.00  0.00     0.036 A 
ATOM     16  C   UNL d   1     -43.264  12.853  21.363  0.00  0.00     0.008 A 
ATOM     17  C   UNL d   1     -44.043  13.186  21.344  0.00  0.00     0.012 A 
ENDBRANCH  11  13
ENDBRANCH   1  10
BRANCH   7  18
ATOM     18  N   UNL d   1     -49.440  15.007  23.053  0.00  0.00    -0.208 NA
ATOM     19  C   UNL d   1     -50.049  14.985  22.477  0.00  0.00     0.279 C 
ATOM     20  O   UNL d   1     -50.639  15.572  22.477  0.00  0.00    -0.265 OA
ATOM     21  C   UNL d   1     -50.060  14.380  21.911  0.00  0.00     0.068 C 
ENDBRANCH   7  18
TORSDOF 3
ENDMDL
MODEL 4
REMARK VINA RESULT:      -5.6      8.786     10.174
REMARK  3 active torsions:
REMARK  status: ('A' for Active; 'I' for Inactive)
REMARK    1  A    between atoms: N_3  and  C_1 
REMARK       I    between atoms: C_5  and  N_3 
REMARK    2  A    between atoms: C_8  and  C_5 
REMARK       I    between atoms: C_11  and  N_12 
REMARK    3  A    between atoms: N_12  and  C_13 
ROOT
ATOM      1  C   UNL d   1     -39.183  14.907  18.688  0.00  0.00     0.197 A 
ATOM      2  N   UNL d   1     -39.911  14.707  19.011  0.00  0.00    -0.221 NA
ATOM      3  S   UNL d   1     -38.713  15.206  19.282  0.00  0.00    -0.047 SA
ATOM      4  C   UNL d   1     -39.147  15.191  19.972  0.00  0.00     0.051 A 
ATOM      5  C   UNL d   1     -39.895  14.880  19.803  0.00  0.00     0.090 A 
ATOM      6  C   UNL d   1     -38.950  15.428  20.750  0.00  0.00     0.027 A 
ATOM      7  C   UNL d   1     -39.507  15.349  21.350  0.00  0.00     0.085 A 
ATOM      8  C   UNL d   1     -40.447  14.805  20.411  0.00  0.00     0.021 A 
ATOM      9  C   UNL d   1     -40.269  15.032  21.178  0.00  0.00     0.021 A 
ENDROOT
BRANCH   1  10
ATOM     10  N   UNL d   1     -38.953  14.825  17.897  0.00  0.00    -0.182 NA
ATOM     11  C   UNL d   1     -38.742  14.078  17.628  0.00  0.00     0.287 C 
ATOM     12  O   UNL d   1     -38.768  13.426  18.168  0.00  0.00    -0.265 OA
BRANCH  11  13
ATOM     13  C   UNL d   1     -38.513  13.964  16.862  0.00  0.00     0.087 A 
ATOM     14  S   UNL d   1     -38.622  14.421  16.175  0.00  0.00    -0.082 SA
ATOM     15  C   UNL d   1     -38.277  14.048  15.550  0.00  0.00     0.036 A 
ATOM     16  C   UNL d   1     -37.944  13.355  15.812  0.00  0.00     0.008 A 
ATOM     17  C   UNL d   1     -38.089  13.294  16.645  0.00  0.00     0.012 A 
ENDBRANCH  11  13
ENDBRANCH   1  10
BRANCH   7  18
ATOM     18  N   UNL d   1     -39.293  15.592  22.128  0.00  0.00    -0.208 NA
ATOM     19  C   UNL d   1     -39.071  15.016  22.695  0.00  0.00     0.279 C 
ATOM     20  O   UNL d   1     -38.859  15.254  23.465  0.00  0.00    -0.265 OA
ATOM     21  C   UNL d   1     -39.063  14.214  22.488  0.00  0.00     0.068 C 
ENDBRANCH   7  18
TORSDOF 3
ENDMDL
