MODEL 1
REMARK VINA RESULT:      14.4      0.000      0.000
REMARK  1 active torsions:
REMARK  status: ('A' for Active; 'I' for Inactive)
REMARK    1  A    between atoms: O_15  and  C_11 
ROOT
ATOM      1  C   UNL d   1      43.424 -15.753  36.765  0.00  0.00     0.139 A 
ATOM      2  N   UNL d   1      44.034 -16.173  36.364  0.00  0.00    -0.241 NA
ATOM      3  C   UNL d   1      43.778 -15.150  37.190  0.00  0.00     0.025 A 
ATOM      4  C   UNL d   1      44.595 -15.178  37.069  0.00  0.00     0.021 A 
ATOM      5  C   UNL d   1      44.743 -15.807  36.562  0.00  0.00     0.082 A 
ATOM      6  C   UNL d   1      42.585 -15.869  36.776  0.00  0.00     0.297 A 
ATOM      7  N   UNL d   1      42.119 -15.362  37.226  0.00  0.00    -0.205 NA
ATOM      8  C   UNL d   1      45.216 -14.725  37.347  0.00  0.00     0.026 A 
ATOM      9  O   UNL d   1      42.235 -16.493  36.333  0.00  0.00    -0.264 OA
ATOM     10  C   UNL d   1      45.512 -15.986  36.330  0.00  0.00     0.021 A 
ATOM     11  C   UNL d   1      45.988 -14.904  37.113  0.00  0.00     0.094 A 
ATOM     12  C   UNL d   1      43.287 -14.627  37.657  0.00  0.00     0.022 A 
ATOM     13  C   UNL d   1      42.469 -14.739  37.669  0.00  0.00     0.102 A 
ATOM     14  C   UNL d   1      46.140 -15.513  36.622  0.00  0.00     0.026 A 
ENDROOT
BRANCH  11  15
ATOM     15  O   UNL d   1      46.640 -14.463  37.377  0.00  0.00    -0.328 OA
ATOM     16  C   UNL d   1      46.622 -13.628  37.375  0.00  0.00     0.181 C 
ENDBRANCH  11  15
TORSDOF 1
ENDMDL
MODEL 2
REMARK VINA RESULT:      14.5      1.040      3.504
REMARK  1 active torsions:
REMARK  status: ('A' for Active; 'I' for Inactive)
REMARK    1  A    between atoms: O_15  and  C_11 
ROOT
ATOM      1  C   UNL d   1      45.275 -14.715  36.978  0.00  0.00     0.139 A 
ATOM      2  N   UNL d   1      44.597 -14.287  37.235  0.00  0.00    -0.241 NA
ATOM      3  C   UNL d   1      45.014 -15.415  36.643  0.00  0.00     0.025 A 
ATOM      4  C   UNL d   1      44.188 -15.440  36.683  0.00  0.00     0.021 A 
ATOM      5  C   UNL d   1      43.942 -14.746  37.046  0.00  0.00     0.082 A 
ATOM      6  C   UNL d   1      46.100 -14.527  37.020  0.00  0.00     0.297 A 
ATOM      7  N   UNL d   1      46.647 -15.061  36.717  0.00  0.00    -0.205 NA
ATOM      8  C   UNL d   1      43.635 -15.991  36.441  0.00  0.00     0.026 A 
ATOM      9  O   UNL d   1      46.354 -13.804  37.367  0.00  0.00    -0.264 OA
ATOM     10  C   UNL d   1      43.142 -14.600  37.170  0.00  0.00     0.021 A 
ATOM     11  C   UNL d   1      42.832 -15.844  36.566  0.00  0.00     0.094 A 
ATOM     12  C   UNL d   1      45.588 -15.966  36.330  0.00  0.00     0.022 A 
ATOM     13  C   UNL d   1      46.392 -15.784  36.371  0.00  0.00     0.102 A 
ATOM     14  C   UNL d   1      42.585 -15.173  36.918  0.00  0.00     0.026 A 
ENDROOT
BRANCH  11  15
ATOM     15  O   UNL d   1      42.245 -16.383  36.332  0.00  0.00    -0.328 OA
ATOM     16  C   UNL d   1      41.436 -16.223  36.467  0.00  0.00     0.181 C 
ENDBRANCH  11  15
TORSDOF 1
ENDMDL
MODEL 3
REMARK VINA RESULT:      14.5      7.108      7.477
REMARK  1 active torsions:
REMARK  status: ('A' for Active; 'I' for Inactive)
REMARK    1  A    between atoms: O_15  and  C_11 
ROOT
ATOM      1  C   UNL d   1      46.443 -19.140  42.399  0.00  0.00     0.139 A 
ATOM      2  N   UNL d   1      46.426 -19.479  43.170  0.00  0.00    -0.241 NA
ATOM      3  C   UNL d   1      46.341 -18.333  42.481  0.00  0.00     0.025 A 
ATOM      4  C   UNL d   1      46.260 -18.152  43.284  0.00  0.00     0.021 A 
ATOM      5  C   UNL d   1      46.313 -18.859  43.698  0.00  0.00     0.082 A 
ATOM      6  C   UNL d   1      46.542 -19.498  41.637  0.00  0.00     0.297 A 
ATOM      7  N   UNL d   1      46.535 -19.019  40.969  0.00  0.00    -0.205 NA
ATOM      8  C   UNL d   1      46.146 -17.451  43.689  0.00  0.00     0.026 A 
ATOM      9  O   UNL d   1      46.646 -20.330  41.568  0.00  0.00    -0.264 OA
ATOM     10  C   UNL d   1      46.253 -18.869  44.518  0.00  0.00     0.021 A 
ATOM     11  C   UNL d   1      46.086 -17.462  44.513  0.00  0.00     0.094 A 
ATOM     12  C   UNL d   1      46.335 -17.841  41.781  0.00  0.00     0.022 A 
ATOM     13  C   UNL d   1      46.431 -18.188  41.038  0.00  0.00     0.102 A 
ATOM     14  C   UNL d   1      46.137 -18.144  44.922  0.00  0.00     0.026 A 
ENDROOT
BRANCH  11  15
ATOM     15  O   UNL d   1      45.971 -16.768  44.953  0.00  0.00    -0.328 OA
ATOM     16  C   UNL d   1      45.525 -16.132  44.644  0.00  0.00     0.181 C 
ENDBRANCH  11  15
TORSDOF 1
ENDMDL
