MODEL 1
REMARK VINA RESULT:      75.7      0.000      0.000
REMARK  5 active torsions:
REMARK  status: ('A' for Active; 'I' for Inactive)
REMARK    1  A    between atoms: N_5  and  C_1 
REMARK    2  A    between atoms: N_8  and  C_2 
REMARK    3  A    between atoms: C_26  and  N_4 
REMARK    4  A    between atoms: C_22  and  N_9 
REMARK    5  A    between atoms: C_21  and  C_22 
ROOT
ATOM      1  C   UNL d   1     -50.795  24.711  33.449  0.00  0.00     0.199 A 
ATOM      2  C   UNL d   1     -50.899  25.538  33.443  0.00  0.00     0.092 A 
ATOM      3  C   UNL d   1     -51.445  24.206  33.410  0.00  0.00     0.288 A 
ATOM      4  N   UNL d   1     -52.210  24.528  33.365  0.00  0.00    -0.272 N 
ATOM      5  C   UNL d   1     -51.667  25.850  33.397  0.00  0.00     0.034 A 
ATOM      6  C   UNL d   1     -52.320  25.345  33.359  0.00  0.00     0.068 A 
ATOM      7  O   UNL d   1     -51.335  23.390  33.416  0.00  0.00    -0.265 OA
ATOM      8  C   UNL d   1     -51.778  26.668  33.391  0.00  0.00     0.003 A 
ATOM      9  C   UNL d   1     -53.081  25.659  33.314  0.00  0.00     0.018 A 
ATOM     10  C   UNL d   1     -52.541  26.980  33.346  0.00  0.00     0.000 A 
ATOM     11  C   UNL d   1     -53.191  26.477  33.308  0.00  0.00     0.002 A 
ENDROOT
BRANCH   2  12
ATOM     12  N   UNL d   1     -50.258  26.041  33.480  0.00  0.00    -0.300 N 
ATOM     13  C   UNL d   1     -49.502  25.748  33.334  0.00  0.00     0.100 A 
ATOM     14  C   UNL d   1     -48.845  26.254  33.371  0.00  0.00     0.100 A 
ATOM     15  N   UNL d   1     -48.945  27.052  33.554  0.00  0.00    -0.300 N 
ATOM     16  C   UNL d   1     -49.706  27.348  33.701  0.00  0.00     0.100 A 
ATOM     17  C   UNL d   1     -50.355  26.840  33.663  0.00  0.00     0.100 A 
BRANCH  15  18
ATOM     18  C   UNL d   1     -48.296  27.556  33.591  0.00  0.00     0.080 C 
BRANCH  18  19
ATOM     19  C   UNL d   1     -48.288  28.176  34.133  0.00  0.00     0.020 A 
ATOM     20  C   UNL d   1     -47.588  28.377  34.515  0.00  0.00     0.028 A 
ATOM     21  C   UNL d   1     -47.579  28.997  35.057  0.00  0.00     0.119 A 
ATOM     22  O   UNL d   1     -46.976  29.319  35.516  0.00  0.00    -0.300 OA
ATOM     23  C   UNL d   1     -48.272  29.415  35.216  0.00  0.00     0.119 A 
ATOM     24  C   UNL d   1     -47.294  29.939  35.961  0.00  0.00     0.304 A 
ATOM     25  O   UNL d   1     -48.097  30.000  35.777  0.00  0.00    -0.300 OA
ATOM     26  C   UNL d   1     -48.975  29.212  34.831  0.00  0.00     0.026 A 
ATOM     27  C   UNL d   1     -48.983  28.591  34.289  0.00  0.00     0.004 A 
ENDBRANCH  18  19
ENDBRANCH  15  18
ENDBRANCH   2  12
BRANCH   1  28
ATOM     28  N   UNL d   1     -50.028  24.398  33.494  0.00  0.00    -0.107 N 
ATOM     29  O   UNL d   1     -49.380  24.906  33.543  0.00  0.00    -0.531 OA
ATOM     30  O   UNL d   1     -49.911  23.579  33.489  0.00  0.00    -0.531 OA
ENDBRANCH   1  28
BRANCH   4  31
ATOM     31  C   UNL d   1     -52.860  24.024  33.327  0.00  0.00     0.083 C 
ATOM     32  C   UNL d   1     -53.303  23.860  34.010  0.00  0.00     0.021 C 
ENDBRANCH   4  31
TORSDOF 5
ENDMDL
