MODEL 1
REMARK VINA RESULT:      -8.1      0.000      0.000
REMARK  5 active torsions:
REMARK  status: ('A' for Active; 'I' for Inactive)
REMARK    1  A    between atoms: C_12  and  N_1 
REMARK    2  A    between atoms: N_7  and  C_5 
REMARK    3  A    between atoms: C_10  and  N_7 
REMARK    4  A    between atoms: O_14  and  C_13 
REMARK    5  A    between atoms: C_19  and  O_14 
ROOT
ATOM      1  N   UNL d   1      52.765  33.976  53.692  0.00  0.00    -0.212 N 
ATOM      2  C   UNL d   1      52.018  33.684  53.495  0.00  0.00     0.170 A 
ATOM      3  C   UNL d   1      51.534  34.326  53.313  0.00  0.00     0.093 A 
ATOM      4  N   UNL d   1      52.740  34.804  53.632  0.00  0.00    -0.162 NA
ATOM      5  C   UNL d   1      50.744  34.202  53.092  0.00  0.00     0.169 A 
ATOM      6  C   UNL d   1      51.976  35.015  53.397  0.00  0.00     0.127 A 
ATOM      7  N   UNL d   1      51.722  32.909  53.459  0.00  0.00    -0.205 NA
ATOM      8  N   UNL d   1      50.447  33.428  53.057  0.00  0.00    -0.205 NA
ATOM      9  C   UNL d   1      50.938  32.790  53.240  0.00  0.00     0.202 A 
ENDROOT
BRANCH   5  10
ATOM     10  N   UNL d   1      50.257  34.833  52.911  0.00  0.00    -0.225 NA
BRANCH  10  11
ATOM     11  C   UNL d   1      49.704  34.767  52.314  0.00  0.00     0.106 A 
ATOM     12  C   UNL d   1      48.953  35.106  52.396  0.00  0.00     0.118 A 
ATOM     13  C   UNL d   1      48.399  35.041  51.801  0.00  0.00     0.026 A 
ATOM     14  C   UNL d   1      48.594  34.626  51.101  0.00  0.00     0.002 A 
ATOM     15  C   UNL d   1      49.327  34.293  51.014  0.00  0.00     0.002 A 
ATOM     16  C   UNL d   1      49.890  34.360  51.621  0.00  0.00     0.021 A 
BRANCH  12  17
ATOM     17  O   UNL d   1      48.767  35.513  53.089  0.00  0.00    -0.304 OA
BRANCH  17  18
ATOM     18  C   UNL d   1      48.069  35.960  53.132  0.00  0.00     0.123 C 
ATOM     19  C   UNL d   1      47.895  36.380  53.817  0.00  0.00     0.029 C 
ENDBRANCH  17  18
ENDBRANCH  12  17
ENDBRANCH  10  11
ENDBRANCH   5  10
BRANCH   1  20
ATOM     20  C   UNL d   1      53.422  33.525  53.911  0.00  0.00     0.085 A 
ATOM     21  C   UNL d   1      53.609  33.434  54.714  0.00  0.00     0.019 A 
ATOM     22  C   UNL d   1      54.262  32.986  54.933  0.00  0.00     0.002 A 
ATOM     23  C   UNL d   1      54.735  32.625  54.351  0.00  0.00     0.000 A 
ATOM     24  C   UNL d   1      54.549  32.716  53.558  0.00  0.00     0.002 A 
ATOM     25  C   UNL d   1      53.895  33.164  53.329  0.00  0.00     0.019 A 
ENDBRANCH   1  20
TORSDOF 5
ENDMDL
MODEL 2
REMARK VINA RESULT:      -7.4      1.495      5.113
REMARK  5 active torsions:
REMARK  status: ('A' for Active; 'I' for Inactive)
REMARK    1  A    between atoms: C_12  and  N_1 
REMARK    2  A    between atoms: N_7  and  C_5 
REMARK    3  A    between atoms: C_10  and  N_7 
REMARK    4  A    between atoms: O_14  and  C_13 
REMARK    5  A    between atoms: C_19  and  O_14 
ROOT
ATOM      1  N   UNL d   1      50.171  34.027  52.807  0.00  0.00    -0.212 N 
ATOM      2  C   UNL d   1      50.985  34.168  52.826  0.00  0.00     0.170 A 
ATOM      3  C   UNL d   1      51.340  33.556  53.250  0.00  0.00     0.093 A 
ATOM      4  N   UNL d   1      50.024  33.323  53.223  0.00  0.00    -0.162 NA
ATOM      5  C   UNL d   1      52.162  33.549  53.362  0.00  0.00     0.169 A 
ATOM      6  C   UNL d   1      50.750  33.037  53.495  0.00  0.00     0.127 A 
ATOM      7  N   UNL d   1      51.445  34.781  52.507  0.00  0.00    -0.205 NA
ATOM      8  N   UNL d   1      52.622  34.162  53.043  0.00  0.00    -0.205 NA
ATOM      9  C   UNL d   1      52.260  34.770  52.620  0.00  0.00     0.202 A 
ENDROOT
BRANCH   5  10
ATOM     10  N   UNL d   1      52.520  32.946  53.781  0.00  0.00    -0.225 NA
BRANCH  10  11
ATOM     11  C   UNL d   1      53.267  33.052  54.094  0.00  0.00     0.106 A 
ATOM     12  C   UNL d   1      53.853  32.474  53.993  0.00  0.00     0.118 A 
ATOM     13  C   UNL d   1      54.598  32.577  54.304  0.00  0.00     0.026 A 
ATOM     14  C   UNL d   1      54.773  33.276  54.731  0.00  0.00     0.002 A 
ATOM     15  C   UNL d   1      54.206  33.844  54.835  0.00  0.00     0.002 A 
ATOM     16  C   UNL d   1      53.446  33.738  54.517  0.00  0.00     0.021 A 
BRANCH  12  17
ATOM     17  O   UNL d   1      53.673  31.788  53.571  0.00  0.00    -0.304 OA
BRANCH  17  18
ATOM     18  C   UNL d   1      54.020  31.066  53.787  0.00  0.00     0.123 C 
ATOM     19  C   UNL d   1      53.761  30.368  53.439  0.00  0.00     0.029 C 
ENDBRANCH  17  18
ENDBRANCH  12  17
ENDBRANCH  10  11
ENDBRANCH   5  10
BRANCH   1  20
ATOM     20  C   UNL d   1      49.603  34.501  52.440  0.00  0.00     0.085 A 
ATOM     21  C   UNL d   1      49.416  34.376  51.642  0.00  0.00     0.019 A 
ATOM     22  C   UNL d   1      48.851  34.847  51.275  0.00  0.00     0.002 A 
ATOM     23  C   UNL d   1      48.467  35.449  51.704  0.00  0.00     0.000 A 
ATOM     24  C   UNL d   1      48.654  35.571  52.493  0.00  0.00     0.002 A 
ATOM     25  C   UNL d   1      49.220  35.103  52.869  0.00  0.00     0.019 A 
ENDBRANCH   1  20
TORSDOF 5
ENDMDL
MODEL 3
REMARK VINA RESULT:      -7.4      1.566      4.907
REMARK  5 active torsions:
REMARK  status: ('A' for Active; 'I' for Inactive)
REMARK    1  A    between atoms: C_12  and  N_1 
REMARK    2  A    between atoms: N_7  and  C_5 
REMARK    3  A    between atoms: C_10  and  N_7 
REMARK    4  A    between atoms: O_14  and  C_13 
REMARK    5  A    between atoms: C_19  and  O_14 
ROOT
ATOM      1  N   UNL d   1      50.471  34.369  51.997  0.00  0.00    -0.212 N 
ATOM      2  C   UNL d   1      50.700  33.850  52.597  0.00  0.00     0.170 A 
ATOM      3  C   UNL d   1      51.518  33.753  52.551  0.00  0.00     0.093 A 
ATOM      4  N   UNL d   1      51.151  34.593  51.578  0.00  0.00    -0.162 NA
ATOM      5  C   UNL d   1      51.909  33.257  53.088  0.00  0.00     0.169 A 
ATOM      6  C   UNL d   1      51.796  34.208  51.925  0.00  0.00     0.127 A 
ATOM      7  N   UNL d   1      50.262  33.455  53.181  0.00  0.00    -0.205 NA
ATOM      8  N   UNL d   1      51.471  32.861  53.672  0.00  0.00    -0.205 NA
ATOM      9  C   UNL d   1      50.653  32.964  53.712  0.00  0.00     0.202 A 
ENDROOT
BRANCH   5  10
ATOM     10  N   UNL d   1      52.719  33.155  53.048  0.00  0.00    -0.225 NA
BRANCH  10  11
ATOM     11  C   UNL d   1      53.051  32.432  53.231  0.00  0.00     0.106 A 
ATOM     12  C   UNL d   1      53.691  32.383  53.756  0.00  0.00     0.118 A 
ATOM     13  C   UNL d   1      54.025  31.662  53.940  0.00  0.00     0.026 A 
ATOM     14  C   UNL d   1      53.716  30.966  53.594  0.00  0.00     0.002 A 
ATOM     15  C   UNL d   1      53.091  31.006  53.081  0.00  0.00     0.002 A 
ATOM     16  C   UNL d   1      52.752  31.741  52.894  0.00  0.00     0.021 A 
BRANCH  12  17
ATOM     17  O   UNL d   1      53.990  33.074  54.093  0.00  0.00    -0.304 OA
BRANCH  17  18
ATOM     18  C   UNL d   1      54.635  33.034  54.614  0.00  0.00     0.123 C 
ATOM     19  C   UNL d   1      54.901  33.717  54.987  0.00  0.00     0.029 C 
ENDBRANCH  17  18
ENDBRANCH  12  17
ENDBRANCH  10  11
ENDBRANCH   5  10
BRANCH   1  20
ATOM     20  C   UNL d   1      49.700  34.622  51.840  0.00  0.00     0.085 A 
ATOM     21  C   UNL d   1      49.315  34.367  51.152  0.00  0.00     0.019 A 
ATOM     22  C   UNL d   1      48.548  34.617  50.995  0.00  0.00     0.002 A 
ATOM     23  C   UNL d   1      48.159  35.127  51.526  0.00  0.00     0.000 A 
ATOM     24  C   UNL d   1      48.541  35.379  52.206  0.00  0.00     0.002 A 
ATOM     25  C   UNL d   1      49.310  35.132  52.371  0.00  0.00     0.019 A 
ENDBRANCH   1  20
TORSDOF 5
ENDMDL
MODEL 4
REMARK VINA RESULT:      -6.7      2.363      3.783
REMARK  5 active torsions:
REMARK  status: ('A' for Active; 'I' for Inactive)
REMARK    1  A    between atoms: C_12  and  N_1 
REMARK    2  A    between atoms: N_7  and  C_5 
REMARK    3  A    between atoms: C_10  and  N_7 
REMARK    4  A    between atoms: O_14  and  C_13 
REMARK    5  A    between atoms: C_19  and  O_14 
ROOT
ATOM      1  N   UNL d   1      53.135  30.590  53.716  0.00  0.00    -0.212 N 
ATOM      2  C   UNL d   1      53.395  31.322  53.997  0.00  0.00     0.170 A 
ATOM      3  C   UNL d   1      53.092  31.907  53.500  0.00  0.00     0.093 A 
ATOM      4  N   UNL d   1      52.670  30.725  53.042  0.00  0.00    -0.162 NA
ATOM      5  C   UNL d   1      53.262  32.706  53.646  0.00  0.00     0.169 A 
ATOM      6  C   UNL d   1      52.647  31.541  52.913  0.00  0.00     0.127 A 
ATOM      7  N   UNL d   1      53.870  31.526  54.646  0.00  0.00    -0.205 NA
ATOM      8  N   UNL d   1      53.737  32.910  54.295  0.00  0.00    -0.205 NA
ATOM      9  C   UNL d   1      54.036  32.319  54.788  0.00  0.00     0.202 A 
ENDROOT
BRANCH   5  10
ATOM     10  N   UNL d   1      52.966  33.291  53.158  0.00  0.00    -0.225 NA
BRANCH  10  11
ATOM     11  C   UNL d   1      52.877  34.053  53.438  0.00  0.00     0.106 A 
ATOM     12  C   UNL d   1      52.165  34.462  53.330  0.00  0.00     0.118 A 
ATOM     13  C   UNL d   1      52.075  35.223  53.608  0.00  0.00     0.026 A 
ATOM     14  C   UNL d   1      52.710  35.593  54.008  0.00  0.00     0.002 A 
ATOM     15  C   UNL d   1      53.409  35.199  54.118  0.00  0.00     0.002 A 
ATOM     16  C   UNL d   1      53.499  34.424  53.834  0.00  0.00     0.021 A 
BRANCH  12  17
ATOM     17  O   UNL d   1      51.543  34.091  52.934  0.00  0.00    -0.304 OA
BRANCH  17  18
ATOM     18  C   UNL d   1      50.827  34.495  52.818  0.00  0.00     0.123 C 
ATOM     19  C   UNL d   1      50.223  34.139  52.389  0.00  0.00     0.029 C 
ENDBRANCH  17  18
ENDBRANCH  12  17
ENDBRANCH  10  11
ENDBRANCH   5  10
BRANCH   1  20
ATOM     20  C   UNL d   1      53.308  29.853  54.047  0.00  0.00     0.085 A 
ATOM     21  C   UNL d   1      53.891  29.374  53.704  0.00  0.00     0.019 A 
ATOM     22  C   UNL d   1      54.063  28.640  54.032  0.00  0.00     0.002 A 
ATOM     23  C   UNL d   1      53.653  28.379  54.707  0.00  0.00     0.000 A 
ATOM     24  C   UNL d   1      53.077  28.854  55.046  0.00  0.00     0.002 A 
ATOM     25  C   UNL d   1      52.898  29.591  54.723  0.00  0.00     0.019 A 
ENDBRANCH   1  20
TORSDOF 5
ENDMDL
MODEL 5
REMARK VINA RESULT:      -5.8      1.525      5.151
REMARK  5 active torsions:
REMARK  status: ('A' for Active; 'I' for Inactive)
REMARK    1  A    between atoms: C_12  and  N_1 
REMARK    2  A    between atoms: N_7  and  C_5 
REMARK    3  A    between atoms: C_10  and  N_7 
REMARK    4  A    between atoms: O_14  and  C_13 
REMARK    5  A    between atoms: C_19  and  O_14 
ROOT
ATOM      1  N   UNL d   1      48.751  34.954  51.688  0.00  0.00    -0.212 N 
ATOM      2  C   UNL d   1      49.233  34.861  52.353  0.00  0.00     0.170 A 
ATOM      3  C   UNL d   1      49.907  34.446  52.123  0.00  0.00     0.093 A 
ATOM      4  N   UNL d   1      49.131  34.592  51.045  0.00  0.00    -0.162 NA
ATOM      5  C   UNL d   1      50.497  34.269  52.678  0.00  0.00     0.169 A 
ATOM      6  C   UNL d   1      49.846  34.280  51.319  0.00  0.00     0.127 A 
ATOM      7  N   UNL d   1      49.138  35.106  53.140  0.00  0.00    -0.205 NA
ATOM      8  N   UNL d   1      50.402  34.514  53.466  0.00  0.00    -0.205 NA
ATOM      9  C   UNL d   1      49.725  34.929  53.688  0.00  0.00     0.202 A 
ENDROOT
BRANCH   5  10
ATOM     10  N   UNL d   1      51.168  33.857  52.458  0.00  0.00    -0.225 NA
BRANCH  10  11
ATOM     11  C   UNL d   1      51.877  33.996  52.837  0.00  0.00     0.106 A 
ATOM     12  C   UNL d   1      52.372  33.366  53.051  0.00  0.00     0.118 A 
ATOM     13  C   UNL d   1      53.080  33.501  53.429  0.00  0.00     0.026 A 
ATOM     14  C   UNL d   1      53.309  34.287  53.604  0.00  0.00     0.002 A 
ATOM     15  C   UNL d   1      52.832  34.908  53.398  0.00  0.00     0.002 A 
ATOM     16  C   UNL d   1      52.110  34.768  53.012  0.00  0.00     0.021 A 
BRANCH  12  17
ATOM     17  O   UNL d   1      52.139  32.594  52.876  0.00  0.00    -0.304 OA
BRANCH  17  18
ATOM     18  C   UNL d   1      52.679  31.969  52.961  0.00  0.00     0.123 C 
ATOM     19  C   UNL d   1      52.421  31.193  52.885  0.00  0.00     0.029 C 
ENDBRANCH  17  18
ENDBRANCH  12  17
ENDBRANCH  10  11
ENDBRANCH   5  10
BRANCH   1  20
ATOM     20  C   UNL d   1      48.020  35.338  51.666  0.00  0.00     0.085 A 
ATOM     21  C   UNL d   1      47.358  34.945  51.358  0.00  0.00     0.019 A 
ATOM     22  C   UNL d   1      46.630  35.325  51.336  0.00  0.00     0.002 A 
ATOM     23  C   UNL d   1      46.557  36.104  51.622  0.00  0.00     0.000 A 
ATOM     24  C   UNL d   1      47.213  36.491  51.927  0.00  0.00     0.002 A 
ATOM     25  C   UNL d   1      47.947  36.116  51.953  0.00  0.00     0.019 A 
ENDBRANCH   1  20
TORSDOF 5
ENDMDL
MODEL 6
REMARK VINA RESULT:      -5.5      1.906      3.285
REMARK  5 active torsions:
REMARK  status: ('A' for Active; 'I' for Inactive)
REMARK    1  A    between atoms: C_12  and  N_1 
REMARK    2  A    between atoms: N_7  and  C_5 
REMARK    3  A    between atoms: C_10  and  N_7 
REMARK    4  A    between atoms: O_14  and  C_13 
REMARK    5  A    between atoms: C_19  and  O_14 
ROOT
ATOM      1  N   UNL d   1      49.809  34.747  52.803  0.00  0.00    -0.212 N 
ATOM      2  C   UNL d   1      49.246  34.766  52.200  0.00  0.00     0.170 A 
ATOM      3  C   UNL d   1      48.629  35.258  52.443  0.00  0.00     0.093 A 
ATOM      4  N   UNL d   1      49.538  35.229  53.422  0.00  0.00    -0.162 NA
ATOM      5  C   UNL d   1      47.978  35.384  51.946  0.00  0.00     0.169 A 
ATOM      6  C   UNL d   1      48.808  35.543  53.194  0.00  0.00     0.127 A 
ATOM      7  N   UNL d   1      49.221  34.395  51.458  0.00  0.00    -0.205 NA
ATOM      8  N   UNL d   1      47.952  35.013  51.204  0.00  0.00    -0.205 NA
ATOM      9  C   UNL d   1      48.573  34.523  50.968  0.00  0.00     0.202 A 
ENDROOT
BRANCH   5  10
ATOM     10  N   UNL d   1      47.363  35.869  52.180  0.00  0.00    -0.225 NA
BRANCH  10  11
ATOM     11  C   UNL d   1      46.619  35.772  51.859  0.00  0.00     0.106 A 
ATOM     12  C   UNL d   1      45.949  35.745  52.346  0.00  0.00     0.118 A 
ATOM     13  C   UNL d   1      45.205  35.649  52.028  0.00  0.00     0.026 A 
ATOM     14  C   UNL d   1      45.119  35.576  51.199  0.00  0.00     0.002 A 
ATOM     15  C   UNL d   1      45.768  35.602  50.716  0.00  0.00     0.002 A 
ATOM     16  C   UNL d   1      46.526  35.700  51.042  0.00  0.00     0.021 A 
BRANCH  12  17
ATOM     17  O   UNL d   1      46.042  35.818  53.163  0.00  0.00    -0.304 OA
BRANCH  17  18
ATOM     18  C   UNL d   1      45.374  35.851  53.654  0.00  0.00     0.123 C 
ATOM     19  C   UNL d   1      45.469  35.897  54.469  0.00  0.00     0.029 C 
ENDBRANCH  17  18
ENDBRANCH  12  17
ENDBRANCH  10  11
ENDBRANCH   5  10
BRANCH   1  20
ATOM     20  C   UNL d   1      50.519  34.323  52.794  0.00  0.00     0.085 A 
ATOM     21  C   UNL d   1      50.559  33.580  53.160  0.00  0.00     0.019 A 
ATOM     22  C   UNL d   1      51.263  33.157  53.152  0.00  0.00     0.002 A 
ATOM     23  C   UNL d   1      51.935  33.474  52.777  0.00  0.00     0.000 A 
ATOM     24  C   UNL d   1      51.894  34.209  52.415  0.00  0.00     0.002 A 
ATOM     25  C   UNL d   1      51.191  34.640  52.419  0.00  0.00     0.019 A 
ENDBRANCH   1  20
TORSDOF 5
ENDMDL
MODEL 7
REMARK VINA RESULT:      -5.4      3.121      4.940
REMARK  5 active torsions:
REMARK  status: ('A' for Active; 'I' for Inactive)
REMARK    1  A    between atoms: C_12  and  N_1 
REMARK    2  A    between atoms: N_7  and  C_5 
REMARK    3  A    between atoms: C_10  and  N_7 
REMARK    4  A    between atoms: O_14  and  C_13 
REMARK    5  A    between atoms: C_19  and  O_14 
ROOT
ATOM      1  N   UNL d   1      53.578  33.774  54.439  0.00  0.00    -0.212 N 
ATOM      2  C   UNL d   1      53.139  33.207  54.030  0.00  0.00     0.170 A 
ATOM      3  C   UNL d   1      53.506  32.476  54.137  0.00  0.00     0.093 A 
ATOM      4  N   UNL d   1      54.219  33.390  54.801  0.00  0.00    -0.162 NA
ATOM      5  C   UNL d   1      53.187  31.795  53.787  0.00  0.00     0.169 A 
ATOM      6  C   UNL d   1      54.170  32.588  54.610  0.00  0.00     0.127 A 
ATOM      7  N   UNL d   1      52.450  33.269  53.572  0.00  0.00    -0.205 NA
ATOM      8  N   UNL d   1      52.497  31.856  53.329  0.00  0.00    -0.205 NA
ATOM      9  C   UNL d   1      52.136  32.591  53.227  0.00  0.00     0.202 A 
ENDROOT
BRANCH   5  10
ATOM     10  N   UNL d   1      53.544  31.067  53.888  0.00  0.00    -0.225 NA
BRANCH  10  11
ATOM     11  C   UNL d   1      53.287  30.420  53.462  0.00  0.00     0.106 A 
ATOM     12  C   UNL d   1      53.168  29.689  53.835  0.00  0.00     0.118 A 
ATOM     13  C   UNL d   1      52.912  29.042  53.411  0.00  0.00     0.026 A 
ATOM     14  C   UNL d   1      52.766  29.119  52.591  0.00  0.00     0.002 A 
ATOM     15  C   UNL d   1      52.880  29.830  52.220  0.00  0.00     0.002 A 
ATOM     16  C   UNL d   1      53.142  30.488  52.653  0.00  0.00     0.021 A 
BRANCH  12  17
ATOM     17  O   UNL d   1      53.314  29.621  54.644  0.00  0.00    -0.304 OA
BRANCH  17  18
ATOM     18  C   UNL d   1      53.334  28.871  54.999  0.00  0.00     0.123 C 
ATOM     19  C   UNL d   1      53.364  28.808  55.818  0.00  0.00     0.029 C 
ENDBRANCH  17  18
ENDBRANCH  12  17
ENDBRANCH  10  11
ENDBRANCH   5  10
BRANCH   1  20
ATOM     20  C   UNL d   1      53.410  34.582  54.482  0.00  0.00     0.085 A 
ATOM     21  C   UNL d   1      53.628  35.082  53.857  0.00  0.00     0.019 A 
ATOM     22  C   UNL d   1      53.461  35.886  53.898  0.00  0.00     0.002 A 
ATOM     23  C   UNL d   1      53.074  36.197  54.566  0.00  0.00     0.000 A 
ATOM     24  C   UNL d   1      52.858  35.702  55.183  0.00  0.00     0.002 A 
ATOM     25  C   UNL d   1      53.022  34.894  55.149  0.00  0.00     0.019 A 
ENDBRANCH   1  20
TORSDOF 5
ENDMDL
MODEL 8
REMARK VINA RESULT:      -5.4      1.610      5.220
REMARK  5 active torsions:
REMARK  status: ('A' for Active; 'I' for Inactive)
REMARK    1  A    between atoms: C_12  and  N_1 
REMARK    2  A    between atoms: N_7  and  C_5 
REMARK    3  A    between atoms: C_10  and  N_7 
REMARK    4  A    between atoms: O_14  and  C_13 
REMARK    5  A    between atoms: C_19  and  O_14 
ROOT
ATOM      1  N   UNL d   1      47.910  35.655  52.750  0.00  0.00    -0.212 N 
ATOM      2  C   UNL d   1      48.509  35.227  52.376  0.00  0.00     0.170 A 
ATOM      3  C   UNL d   1      49.153  35.188  52.890  0.00  0.00     0.093 A 
ATOM      4  N   UNL d   1      48.186  35.881  53.499  0.00  0.00    -0.162 NA
ATOM      5  C   UNL d   1      49.844  34.789  52.662  0.00  0.00     0.169 A 
ATOM      6  C   UNL d   1      48.956  35.590  53.580  0.00  0.00     0.127 A 
ATOM      7  N   UNL d   1      48.545  34.869  51.628  0.00  0.00    -0.205 NA
ATOM      8  N   UNL d   1      49.880  34.431  51.915  0.00  0.00    -0.205 NA
ATOM      9  C   UNL d   1      49.232  34.474  51.406  0.00  0.00     0.202 A 
ENDROOT
BRANCH   5  10
ATOM     10  N   UNL d   1      50.486  34.746  53.166  0.00  0.00    -0.225 NA
BRANCH  10  11
ATOM     11  C   UNL d   1      50.957  34.080  53.175  0.00  0.00     0.106 A 
ATOM     12  C   UNL d   1      51.766  34.137  53.344  0.00  0.00     0.118 A 
ATOM     13  C   UNL d   1      52.238  33.473  53.354  0.00  0.00     0.026 A 
ATOM     14  C   UNL d   1      51.899  32.725  53.190  0.00  0.00     0.002 A 
ATOM     15  C   UNL d   1      51.110  32.662  53.024  0.00  0.00     0.002 A 
ATOM     16  C   UNL d   1      50.630  33.339  53.015  0.00  0.00     0.021 A 
BRANCH  12  17
ATOM     17  O   UNL d   1      52.093  34.877  53.504  0.00  0.00    -0.304 OA
BRANCH  17  18
ATOM     18  C   UNL d   1      52.848  34.932  53.845  0.00  0.00     0.123 C 
ATOM     19  C   UNL d   1      53.099  35.644  54.170  0.00  0.00     0.029 C 
ENDBRANCH  17  18
ENDBRANCH  12  17
ENDBRANCH  10  11
ENDBRANCH   5  10
BRANCH   1  20
ATOM     20  C   UNL d   1      47.165  35.828  52.435  0.00  0.00     0.085 A 
ATOM     21  C   UNL d   1      47.076  36.472  51.921  0.00  0.00     0.019 A 
ATOM     22  C   UNL d   1      46.336  36.646  51.607  0.00  0.00     0.002 A 
ATOM     23  C   UNL d   1      45.679  36.175  51.805  0.00  0.00     0.000 A 
ATOM     24  C   UNL d   1      45.769  35.538  52.313  0.00  0.00     0.002 A 
ATOM     25  C   UNL d   1      46.508  35.357  52.632  0.00  0.00     0.019 A 
ENDBRANCH   1  20
TORSDOF 5
ENDMDL
