MODEL 1
REMARK VINA RESULT:      74.4      0.000      0.000
REMARK  12 active torsions:
REMARK  status: ('A' for Active; 'I' for Inactive)
REMARK    1  A    between atoms: C_7  and  C_1 
REMARK    2  A    between atoms: C_8  and  N_2 
REMARK    3  A    between atoms: C_6  and  C_5 
REMARK    4  A    between atoms: C_9  and  C_7 
REMARK    5  A    between atoms: C_24  and  C_8 
REMARK    6  A    between atoms: C_12  and  C_9 
REMARK    7  A    between atoms: C_11  and  C_12 
REMARK    8  A    between atoms: O_27  and  C_13 
REMARK    9  A    between atoms: N_14  and  C_24 
REMARK   10  A    between atoms: O_28  and  C_18 
REMARK   11  A    between atoms: C_33  and  O_28 
REMARK   12  A    between atoms: C_35  and  C_33 
ROOT
ATOM      1  C   UNL d   1      46.113 -16.731  42.848  0.00  0.00     0.099 A 
ATOM      2  N   UNL d   1      46.301 -18.049  42.745  0.00  0.00    -0.269 N 
ATOM      3  C   UNL d   1      46.318 -17.026  43.591  0.00  0.00     0.256 A 
ATOM      4  C   UNL d   1      46.434 -17.837  43.531  0.00  0.00     0.304 A 
ATOM      5  C   UNL d   1      46.102 -17.367  42.322  0.00  0.00     0.073 A 
ATOM      6  O   UNL d   1      46.645 -18.346  44.144  0.00  0.00    -0.263 OA
ATOM      7  O   UNL d   1      46.393 -16.579  44.279  0.00  0.00    -0.281 OA
ENDROOT
BRANCH   5   8
ATOM      8  C   UNL d   1      45.926 -17.333  41.520  0.00  0.00     0.018 A 
ATOM      9  C   UNL d   1      45.209 -17.609  41.246  0.00  0.00     0.028 A 
ATOM     10  C   UNL d   1      45.033 -17.575  40.444  0.00  0.00     0.117 A 
ATOM     11  C   UNL d   1      45.589 -17.258  39.911  0.00  0.00     0.122 A 
ATOM     12  C   UNL d   1      46.312 -16.981  40.194  0.00  0.00     0.027 A 
ATOM     13  C   UNL d   1      46.485 -17.017  41.003  0.00  0.00     0.004 A 
BRANCH  10  14
ATOM     14  O   UNL d   1      44.312 -17.853  40.167  0.00  0.00    -0.326 OA
ATOM     15  C   UNL d   1      43.608 -17.604  40.526  0.00  0.00     0.181 C 
ENDBRANCH  10  14
BRANCH  11  16
ATOM     16  O   UNL d   1      45.413 -17.225  39.109  0.00  0.00    -0.303 OA
BRANCH  16  17
ATOM     17  C   UNL d   1      45.670 -16.578  38.660  0.00  0.00     0.123 C 
BRANCH  17  18
ATOM     18  C   UNL d   1      45.252 -16.354  37.985  0.00  0.00     0.027 C 
ATOM     19  C   UNL d   1      45.066 -16.918  37.417  0.00  0.00     0.002 C 
ENDBRANCH  17  18
ENDBRANCH  16  17
ENDBRANCH  11  16
ENDBRANCH   5   8
BRANCH   2  20
ATOM     20  C   UNL d   1      46.356 -18.812  42.434  0.00  0.00     0.102 C 
BRANCH  20  21
ATOM     21  C   UNL d   1      45.827 -19.398  42.676  0.00  0.00     0.100 C 
BRANCH  21  22
ATOM     22  N   UNL d   1      45.877 -19.708  43.435  0.00  0.00    -0.298 N 
ATOM     23  C   UNL d   1      46.590 -20.003  43.702  0.00  0.00     0.107 A 
ATOM     24  C   UNL d   1      46.642 -20.315  44.466  0.00  0.00     0.142 A 
ATOM     25  O   UNL d   1      45.976 -20.327  44.954  0.00  0.00    -0.300 OA
ATOM     26  C   UNL d   1      45.258 -20.027  44.678  0.00  0.00     0.142 A 
ATOM     27  C   UNL d   1      45.207 -19.718  43.922  0.00  0.00     0.107 A 
ENDBRANCH  21  22
ENDBRANCH  20  21
ENDBRANCH   2  20
BRANCH   1  28
ATOM     28  C   UNL d   1      45.949 -15.950  42.663  0.00  0.00     0.200 C 
ATOM     29  O   UNL d   1      46.085 -15.667  41.898  0.00  0.00    -0.286 OA
BRANCH  28  30
ATOM     30  C   UNL d   1      45.646 -15.442  43.243  0.00  0.00     0.044 C 
BRANCH  30  31
ATOM     31  C   UNL d   1      46.024 -14.720  43.398  0.00  0.00     0.028 C 
BRANCH  31  32
ATOM     32  C   UNL d   1      45.708 -14.208  43.950  0.00  0.00     0.100 A 
ATOM     33  O   UNL d   1      45.000 -14.301  44.351  0.00  0.00    -0.305 OA
ATOM     34  C   UNL d   1      44.895 -13.653  44.857  0.00  0.00     0.123 A 
ATOM     35  C   UNL d   1      45.543 -13.157  44.768  0.00  0.00     0.029 A 
ATOM     36  C   UNL d   1      46.051 -13.497  44.206  0.00  0.00     0.027 A 
ENDBRANCH  31  32
ENDBRANCH  30  31
ENDBRANCH  28  30
ENDBRANCH   1  28
TORSDOF 12
ENDMDL
