MODEL 1
REMARK VINA RESULT:      -3.4      0.000      0.000
REMARK  1 active torsions:
REMARK  status: ('A' for Active; 'I' for Inactive)
REMARK    1  A    between atoms: C_7  and  N_2 
ROOT
ATOM      1  C   UNL d   1      30.142  17.375 -24.638  0.00  0.00     0.304 A 
ATOM      2  N   UNL d   1      30.423  16.703 -24.216  0.00  0.00    -0.272 N 
ATOM      3  C   UNL d   1      29.307  17.425 -24.532  0.00  0.00     0.253 A 
ATOM      4  C   UNL d   1      29.792  16.344 -23.858  0.00  0.00     0.070 A 
ATOM      5  C   UNL d   1      29.118  16.780 -24.050  0.00  0.00     0.060 A 
ATOM      6  O   UNL d   1      30.622  17.916 -25.097  0.00  0.00    -0.263 OA
ATOM      7  O   UNL d   1      28.774  17.964 -24.819  0.00  0.00    -0.281 OA
ATOM      8  C   UNL d   1      29.723  15.728 -23.417  0.00  0.00     0.018 A 
ATOM      9  C   UNL d   1      28.422  16.570 -23.786  0.00  0.00     0.005 A 
ATOM     10  C   UNL d   1      29.001  15.453 -23.103  0.00  0.00     0.002 A 
ATOM     11  C   UNL d   1      28.327  15.888 -23.294  0.00  0.00     0.000 A 
ENDROOT
BRANCH   2  12
ATOM     12  C   UNL d   1      31.183  16.421 -24.147  0.00  0.00     0.067 A 
ATOM     13  C   UNL d   1      31.472  15.857 -24.660  0.00  0.00     0.018 A 
ATOM     14  C   UNL d   1      32.246  15.577 -24.582  0.00  0.00     0.002 A 
ATOM     15  C   UNL d   1      32.719  15.868 -23.988  0.00  0.00     0.000 A 
ATOM     16  C   UNL d   1      32.430  16.442 -23.462  0.00  0.00     0.002 A 
ATOM     17  C   UNL d   1      31.661  16.719 -23.541  0.00  0.00     0.018 A 
ENDBRANCH   2  12
TORSDOF 1
ENDMDL
MODEL 2
REMARK VINA RESULT:      -3.0      1.515      1.984
REMARK  1 active torsions:
REMARK  status: ('A' for Active; 'I' for Inactive)
REMARK    1  A    between atoms: C_7  and  N_2 
ROOT
ATOM      1  C   UNL d   1      30.985  16.247 -23.461  0.00  0.00     0.304 A 
ATOM      2  N   UNL d   1      31.087  16.885 -24.002  0.00  0.00    -0.272 N 
ATOM      3  C   UNL d   1      30.171  16.029 -23.459  0.00  0.00     0.253 A 
ATOM      4  C   UNL d   1      30.367  17.061 -24.326  0.00  0.00     0.070 A 
ATOM      5  C   UNL d   1      29.814  16.544 -23.998  0.00  0.00     0.060 A 
ATOM      6  O   UNL d   1      31.603  15.882 -22.994  0.00  0.00    -0.263 OA
ATOM      7  O   UNL d   1      29.784  15.453 -23.039  0.00  0.00    -0.281 OA
ATOM      8  C   UNL d   1      30.137  17.578 -24.836  0.00  0.00     0.018 A 
ATOM      9  C   UNL d   1      29.068  16.579 -24.202  0.00  0.00     0.005 A 
ATOM     10  C   UNL d   1      29.348  17.663 -25.096  0.00  0.00     0.002 A 
ATOM     11  C   UNL d   1      28.795  17.146 -24.768  0.00  0.00     0.000 A 
ENDROOT
BRANCH   2  12
ATOM     12  C   UNL d   1      31.765  17.287 -24.199  0.00  0.00     0.067 A 
ATOM     13  C   UNL d   1      32.197  17.087 -24.862  0.00  0.00     0.018 A 
ATOM     14  C   UNL d   1      32.886  17.502 -25.053  0.00  0.00     0.002 A 
ATOM     15  C   UNL d   1      33.132  18.113 -24.576  0.00  0.00     0.000 A 
ATOM     16  C   UNL d   1      32.696  18.321 -23.900  0.00  0.00     0.002 A 
ATOM     17  C   UNL d   1      32.012  17.908 -23.711  0.00  0.00     0.018 A 
ENDBRANCH   2  12
TORSDOF 1
ENDMDL
MODEL 3
REMARK VINA RESULT:      -2.9      0.814      2.835
REMARK  1 active torsions:
REMARK  status: ('A' for Active; 'I' for Inactive)
REMARK    1  A    between atoms: C_7  and  N_2 
ROOT
ATOM      1  C   UNL d   1      30.517  17.551 -24.703  0.00  0.00     0.304 A 
ATOM      2  N   UNL d   1      30.373  16.812 -24.325  0.00  0.00    -0.272 N 
ATOM      3  C   UNL d   1      31.336  17.732 -24.626  0.00  0.00     0.253 A 
ATOM      4  C   UNL d   1      31.073  16.539 -24.024  0.00  0.00     0.070 A 
ATOM      5  C   UNL d   1      31.654  17.095 -24.206  0.00  0.00     0.060 A 
ATOM      6  O   UNL d   1      29.931  18.036 -25.097  0.00  0.00    -0.263 OA
ATOM      7  O   UNL d   1      31.758  18.373 -24.889  0.00  0.00    -0.281 OA
ATOM      8  C   UNL d   1      31.265  15.912 -23.637  0.00  0.00     0.018 A 
ATOM      9  C   UNL d   1      32.389  16.987 -23.988  0.00  0.00     0.005 A 
ATOM     10  C   UNL d   1      32.038  15.740 -23.375  0.00  0.00     0.002 A 
ATOM     11  C   UNL d   1      32.620  16.296 -23.557  0.00  0.00     0.000 A 
ENDROOT
BRANCH   2  12
ATOM     12  C   UNL d   1      29.675  16.402 -24.250  0.00  0.00     0.067 A 
ATOM     13  C   UNL d   1      29.192  16.508 -23.600  0.00  0.00     0.018 A 
ATOM     14  C   UNL d   1      28.483  16.086 -23.533  0.00  0.00     0.002 A 
ATOM     15  C   UNL d   1      28.270  15.564 -24.118  0.00  0.00     0.000 A 
ATOM     16  C   UNL d   1      28.758  15.453 -24.781  0.00  0.00     0.002 A 
ATOM     17  C   UNL d   1      29.461  15.872 -24.847  0.00  0.00     0.018 A 
ENDBRANCH   2  12
TORSDOF 1
ENDMDL
MODEL 4
REMARK VINA RESULT:      -2.7      1.576      3.299
REMARK  1 active torsions:
REMARK  status: ('A' for Active; 'I' for Inactive)
REMARK    1  A    between atoms: C_7  and  N_2 
ROOT
ATOM      1  C   UNL d   1      31.594  16.184 -23.589  0.00  0.00     0.304 A 
ATOM      2  N   UNL d   1      31.026  16.562 -24.084  0.00  0.00    -0.272 N 
ATOM      3  C   UNL d   1      32.297  16.647 -23.592  0.00  0.00     0.253 A 
ATOM      4  C   UNL d   1      31.358  17.235 -24.386  0.00  0.00     0.070 A 
ATOM      5  C   UNL d   1      32.126  17.287 -24.089  0.00  0.00     0.060 A 
ATOM      6  O   UNL d   1      31.476  15.454 -23.157  0.00  0.00    -0.263 OA
ATOM      7  O   UNL d   1      33.003  16.531 -23.210  0.00  0.00    -0.281 OA
ATOM      8  C   UNL d   1      31.103  17.778 -24.854  0.00  0.00     0.018 A 
ATOM      9  C   UNL d   1      32.587  17.878 -24.280  0.00  0.00     0.005 A 
ATOM     10  C   UNL d   1      31.552  18.438 -25.097  0.00  0.00     0.002 A 
ATOM     11  C   UNL d   1      32.320  18.490 -24.800  0.00  0.00     0.000 A 
ENDROOT
BRANCH   2  12
ATOM     12  C   UNL d   1      30.266  16.332 -24.260  0.00  0.00     0.067 A 
ATOM     13  C   UNL d   1      29.633  16.586 -23.811  0.00  0.00     0.018 A 
ATOM     14  C   UNL d   1      28.864  16.348 -23.998  0.00  0.00     0.002 A 
ATOM     15  C   UNL d   1      28.741  15.856 -24.635  0.00  0.00     0.000 A 
ATOM     16  C   UNL d   1      29.380  15.595 -25.095  0.00  0.00     0.002 A 
ATOM     17  C   UNL d   1      30.144  15.833 -24.908  0.00  0.00     0.018 A 
ENDBRANCH   2  12
TORSDOF 1
ENDMDL
MODEL 5
REMARK VINA RESULT:      -2.2      6.043      6.997
REMARK  1 active torsions:
REMARK  status: ('A' for Active; 'I' for Inactive)
REMARK    1  A    between atoms: C_7  and  N_2 
ROOT
ATOM      1  C   UNL d   1      32.927  22.605 -22.437  0.00  0.00     0.304 A 
ATOM      2  N   UNL d   1      32.831  22.295 -21.660  0.00  0.00    -0.272 N 
ATOM      3  C   UNL d   1      33.100  21.965 -22.957  0.00  0.00     0.253 A 
ATOM      4  C   UNL d   1      32.938  21.494 -21.689  0.00  0.00     0.070 A 
ATOM      5  C   UNL d   1      33.101  21.294 -22.473  0.00  0.00     0.060 A 
ATOM      6  O   UNL d   1      32.861  23.429 -22.660  0.00  0.00    -0.263 OA
ATOM      7  O   UNL d   1      33.241  21.963 -23.756  0.00  0.00    -0.281 OA
ATOM      8  C   UNL d   1      32.916  20.944 -21.163  0.00  0.00     0.018 A 
ATOM      9  C   UNL d   1      33.231  20.560 -22.677  0.00  0.00     0.005 A 
ATOM     10  C   UNL d   1      33.048  20.136 -21.321  0.00  0.00     0.002 A 
ATOM     11  C   UNL d   1      33.211  19.937 -22.105  0.00  0.00     0.000 A 
ENDROOT
BRANCH   2  12
ATOM     12  C   UNL d   1      32.659  22.688 -20.969  0.00  0.00     0.067 A 
ATOM     13  C   UNL d   1      33.241  22.850 -20.420  0.00  0.00     0.018 A 
ATOM     14  C   UNL d   1      33.056  23.250 -19.720  0.00  0.00     0.002 A 
ATOM     15  C   UNL d   1      32.289  23.482 -19.581  0.00  0.00     0.000 A 
ATOM     16  C   UNL d   1      31.693  23.319 -20.136  0.00  0.00     0.002 A 
ATOM     17  C   UNL d   1      31.878  22.922 -20.831  0.00  0.00     0.018 A 
ENDBRANCH   2  12
TORSDOF 1
ENDMDL
MODEL 6
REMARK VINA RESULT:      -0.7      5.396      6.459
REMARK  1 active torsions:
REMARK  status: ('A' for Active; 'I' for Inactive)
REMARK    1  A    between atoms: C_7  and  N_2 
ROOT
ATOM      1  C   UNL d   1      32.890  20.842 -20.859  0.00  0.00     0.304 A 
ATOM      2  N   UNL d   1      32.805  21.294 -21.565  0.00  0.00    -0.272 N 
ATOM      3  C   UNL d   1      33.075  20.049 -21.072  0.00  0.00     0.253 A 
ATOM      4  C   UNL d   1      32.931  20.805 -22.197  0.00  0.00     0.070 A 
ATOM      5  C   UNL d   1      33.095  20.053 -21.900  0.00  0.00     0.060 A 
ATOM      6  O   UNL d   1      32.803  21.139 -20.060  0.00  0.00    -0.263 OA
ATOM      7  O   UNL d   1      33.211  19.399 -20.607  0.00  0.00    -0.281 OA
ATOM      8  C   UNL d   1      32.925  20.913 -22.950  0.00  0.00     0.018 A 
ATOM      9  C   UNL d   1      33.241  19.461 -22.376  0.00  0.00     0.005 A 
ATOM     10  C   UNL d   1      33.075  20.315 -23.513  0.00  0.00     0.002 A 
ATOM     11  C   UNL d   1      33.238  19.563 -23.215  0.00  0.00     0.000 A 
ENDROOT
BRANCH   2  12
ATOM     12  C   UNL d   1      32.628  22.082 -21.651  0.00  0.00     0.067 A 
ATOM     13  C   UNL d   1      31.864  22.356 -21.563  0.00  0.00     0.018 A 
ATOM     14  C   UNL d   1      31.694  23.160 -21.652  0.00  0.00     0.002 A 
ATOM     15  C   UNL d   1      32.295  23.679 -21.830  0.00  0.00     0.000 A 
ATOM     16  C   UNL d   1      33.074  23.407 -21.920  0.00  0.00     0.002 A 
ATOM     17  C   UNL d   1      33.241  22.607 -21.831  0.00  0.00     0.018 A 
ENDBRANCH   2  12
TORSDOF 1
ENDMDL
MODEL 7
REMARK VINA RESULT:      -0.5      5.400      6.221
REMARK  1 active torsions:
REMARK  status: ('A' for Active; 'I' for Inactive)
REMARK    1  A    between atoms: C_7  and  N_2 
ROOT
ATOM      1  C   UNL d   1      32.991  22.090 -22.793  0.00  0.00     0.304 A 
ATOM      2  N   UNL d   1      32.819  21.507 -22.211  0.00  0.00    -0.272 N 
ATOM      3  C   UNL d   1      32.877  22.851 -22.449  0.00  0.00     0.253 A 
ATOM      4  C   UNL d   1      32.605  21.884 -21.528  0.00  0.00     0.070 A 
ATOM      5  C   UNL d   1      32.640  22.695 -21.671  0.00  0.00     0.060 A 
ATOM      6  O   UNL d   1      33.241  21.937 -23.599  0.00  0.00    -0.263 OA
ATOM      7  O   UNL d   1      32.967  23.590 -22.769  0.00  0.00    -0.281 OA
ATOM      8  C   UNL d   1      32.396  21.637 -20.839  0.00  0.00     0.018 A 
ATOM      9  C   UNL d   1      32.463  23.205 -21.116  0.00  0.00     0.005 A 
ATOM     10  C   UNL d   1      32.194  22.136 -20.202  0.00  0.00     0.002 A 
ATOM     11  C   UNL d   1      32.229  22.948 -20.345  0.00  0.00     0.000 A 
ENDROOT
BRANCH   2  12
ATOM     12  C   UNL d   1      32.847  20.697 -22.273  0.00  0.00     0.067 A 
ATOM     13  C   UNL d   1      33.211  20.242 -21.701  0.00  0.00     0.018 A 
ATOM     14  C   UNL d   1      33.234  19.418 -21.773  0.00  0.00     0.002 A 
ATOM     15  C   UNL d   1      32.891  19.063 -22.419  0.00  0.00     0.000 A 
ATOM     16  C   UNL d   1      32.519  19.520 -23.004  0.00  0.00     0.002 A 
ATOM     17  C   UNL d   1      32.497  20.338 -22.931  0.00  0.00     0.018 A 
ENDBRANCH   2  12
TORSDOF 1
ENDMDL
