MODEL 1
REMARK VINA RESULT:      64.7      0.000      0.000
REMARK  3 active torsions:
REMARK  status: ('A' for Active; 'I' for Inactive)
REMARK    1  A    between atoms: S_3  and  N_1 
REMARK    2  A    between atoms: C_7  and  C_4 
REMARK    3  A    between atoms: C_16  and  C_5 
ROOT
ATOM      1  N   UNL d   1     -50.468  25.070  33.696  0.00  0.00    -0.155 N 
ATOM      2  N   UNL d   1     -50.975  24.404  33.711  0.00  0.00    -0.156 NA
ATOM      3  C   UNL d   1     -50.907  25.731  33.837  0.00  0.00     0.096 A 
ATOM      4  C   UNL d   1     -51.733  24.684  33.865  0.00  0.00     0.103 A 
ATOM      5  C   UNL d   1     -51.680  25.517  33.942  0.00  0.00     0.041 A 
ENDROOT
BRANCH   3   6
ATOM      6  C   UNL d   1     -50.616  26.502  33.868  0.00  0.00     0.021 A 
ATOM      7  C   UNL d   1     -50.082  26.746  34.468  0.00  0.00     0.028 A 
ATOM      8  C   UNL d   1     -49.791  27.519  34.499  0.00  0.00     0.119 A 
ATOM      9  O   UNL d   1     -49.288  27.866  35.010  0.00  0.00    -0.300 OA
ATOM     10  C   UNL d   1     -50.035  28.045  33.931  0.00  0.00     0.119 A 
ATOM     11  C   UNL d   1     -49.192  28.665  34.769  0.00  0.00     0.304 A 
ATOM     12  O   UNL d   1     -49.669  28.755  34.091  0.00  0.00    -0.300 OA
ATOM     13  C   UNL d   1     -50.546  27.851  33.339  0.00  0.00     0.026 A 
ATOM     14  C   UNL d   1     -50.838  27.078  33.307  0.00  0.00     0.004 A 
ENDBRANCH   3   6
BRANCH   1  15
ATOM     15  S   UNL d   1     -49.642  25.029  33.556  0.00  0.00     0.266 S 
ATOM     16  O   UNL d   1     -49.683  25.807  33.310  0.00  0.00    -0.203 OA
ATOM     17  O   UNL d   1     -49.637  24.235  33.813  0.00  0.00    -0.203 OA
ATOM     18  C   UNL d   1     -48.844  24.998  33.417  0.00  0.00     0.165 C 
ENDBRANCH   1  15
BRANCH   4  19
ATOM     19  C   UNL d   1     -52.422  24.237  33.933  0.00  0.00     0.019 A 
ATOM     20  C   UNL d   1     -52.623  23.995  34.708  0.00  0.00     0.002 A 
ATOM     21  C   UNL d   1     -53.327  23.535  34.794  0.00  0.00     0.000 A 
ATOM     22  C   UNL d   1     -53.784  23.343  34.129  0.00  0.00     0.000 A 
ATOM     23  C   UNL d   1     -53.549  23.600  33.396  0.00  0.00     0.000 A 
ATOM     24  C   UNL d   1     -52.876  24.040  33.309  0.00  0.00     0.002 A 
ENDBRANCH   4  19
TORSDOF 3
ENDMDL
