MODEL 1
REMARK VINA RESULT:      66.1      0.000      0.000
REMARK  5 active torsions:
REMARK  status: ('A' for Active; 'I' for Inactive)
REMARK    1  A    between atoms: N_2  and  C_1 
REMARK       I    between atoms: C_7  and  N_2 
REMARK    2  A    between atoms: C_17  and  N_3 
REMARK    3  A    between atoms: C_14  and  C_7 
REMARK       I    between atoms: C_10  and  N_11 
REMARK    4  A    between atoms: N_11  and  C_12 
REMARK    5  A    between atoms: C_16  and  C_17 
ROOT
ATOM      1  C   UNL d   1     -50.352  26.464  33.570  0.00  0.00     0.182 A 
ATOM      2  N   UNL d   1     -50.082  25.699  33.441  0.00  0.00    -0.285 N 
ATOM      3  S   UNL d   1     -51.173  26.437  33.628  0.00  0.00    -0.048 SA
ATOM      4  C   UNL d   1     -51.413  25.649  33.534  0.00  0.00     0.050 A 
ATOM      5  C   UNL d   1     -50.736  25.191  33.418  0.00  0.00     0.072 A 
ATOM      6  C   UNL d   1     -52.156  25.294  33.539  0.00  0.00     0.027 A 
ATOM      7  C   UNL d   1     -50.801  24.377  33.306  0.00  0.00     0.020 A 
ATOM      8  C   UNL d   1     -52.223  24.479  33.428  0.00  0.00     0.085 A 
ATOM      9  C   UNL d   1     -51.545  24.021  33.312  0.00  0.00     0.021 A 
ENDROOT
BRANCH   1  10
ATOM     10  N   UNL d   1     -49.876  27.136  33.630  0.00  0.00    -0.184 NA
ATOM     11  C   UNL d   1     -49.819  27.530  34.353  0.00  0.00     0.281 C 
ATOM     12  O   UNL d   1     -50.237  27.250  35.006  0.00  0.00    -0.265 OA
BRANCH  11  13
ATOM     13  C   UNL d   1     -49.346  28.203  34.422  0.00  0.00     0.058 A 
ATOM     14  C   UNL d   1     -49.452  28.853  33.909  0.00  0.00     0.005 A 
ATOM     15  C   UNL d   1     -48.978  29.526  33.978  0.00  0.00     0.000 A 
ATOM     16  C   UNL d   1     -48.390  29.559  34.561  0.00  0.00     0.000 A 
ATOM     17  C   UNL d   1     -48.286  28.917  35.067  0.00  0.00     0.000 A 
ATOM     18  C   UNL d   1     -48.759  28.244  34.998  0.00  0.00     0.005 A 
ENDBRANCH  11  13
ENDBRANCH   1  10
BRANCH   2  19
ATOM     19  C   UNL d   1     -49.294  25.467  33.349  0.00  0.00     0.082 C 
BRANCH  19  20
ATOM     20  C   UNL d   1     -48.954  24.924  33.868  0.00  0.00     0.019 C 
ATOM     21  C   UNL d   1     -48.396  24.384  33.595  0.00  0.00     0.002 C 
ENDBRANCH  19  20
ENDBRANCH   2  19
BRANCH   8  22
ATOM     22  N   UNL d   1     -52.977  24.115  33.432  0.00  0.00    -0.208 NA
ATOM     23  C   UNL d   1     -53.228  23.711  34.096  0.00  0.00     0.279 C 
ATOM     24  O   UNL d   1     -53.970  23.354  34.098  0.00  0.00    -0.265 OA
ATOM     25  C   UNL d   1     -52.748  23.655  34.766  0.00  0.00     0.068 C 
ENDBRANCH   8  22
TORSDOF 5
ENDMDL
