MODEL 1
REMARK VINA RESULT:      33.2      0.000      0.000
REMARK  2 active torsions:
REMARK  status: ('A' for Active; 'I' for Inactive)
REMARK       I    between atoms: C_3  and  N_1 
REMARK    1  A    between atoms: C_6  and  C_3 
REMARK    2  A    between atoms: O_16  and  C_11 
ROOT
ATOM      1  N   UNL d   1      13.867  12.972  -3.238  0.00  0.00    -0.175 N 
ATOM      2  N   UNL d   1      14.110  13.745  -3.384  0.00  0.00    -0.057 NA
ATOM      3  C   UNL d   1      13.988  12.549  -2.541  0.00  0.00     0.282 C 
ATOM      4  N   UNL d   1      13.880  13.954  -4.143  0.00  0.00    -0.129 NA
ATOM      5  C   UNL d   1      13.480  12.706  -3.926  0.00  0.00     0.107 A 
ATOM      6  C   UNL d   1      13.488  13.301  -4.477  0.00  0.00     0.122 A 
ATOM      7  O   UNL d   1      13.713  11.779  -2.477  0.00  0.00    -0.265 OA
ATOM      8  C   UNL d   1      13.124  11.986  -4.108  0.00  0.00     0.021 A 
ATOM      9  C   UNL d   1      13.136  13.190  -5.228  0.00  0.00     0.022 A 
ATOM     10  C   UNL d   1      12.773  11.859  -4.842  0.00  0.00     0.002 A 
ATOM     11  C   UNL d   1      12.777  12.468  -5.413  0.00  0.00     0.002 A 
ENDROOT
BRANCH   3  12
ATOM     12  C   UNL d   1      14.385  12.903  -1.912  0.00  0.00     0.059 A 
ATOM     13  C   UNL d   1      13.970  13.221  -1.280  0.00  0.00     0.013 A 
ATOM     14  C   UNL d   1      14.363  13.577  -0.646  0.00  0.00     0.057 A 
ATOM     15 BR   UNL d   1      13.939  13.894  -0.014  0.00  0.00    -0.047 Br
ATOM     16  C   UNL d   1      15.189  13.615  -0.646  0.00  0.00     0.100 A 
ATOM     17  C   UNL d   1      15.612  13.297  -1.279  0.00  0.00     0.025 A 
ATOM     18  C   UNL d   1      15.209  12.942  -1.910  0.00  0.00     0.007 A 
BRANCH  16  19
ATOM     19  O   UNL d   1      15.607  13.969  -0.018  0.00  0.00    -0.328 OA
ATOM     20  C   UNL d   1      15.977  14.705  -0.121  0.00  0.00     0.181 C 
ENDBRANCH  16  19
ENDBRANCH   3  12
TORSDOF 2
ENDMDL
