MODEL 1
REMARK VINA RESULT:      84.7      0.000      0.000
REMARK  7 active torsions:
REMARK  status: ('A' for Active; 'I' for Inactive)
REMARK    1  A    between atoms: S_2  and  C_1 
REMARK    2  A    between atoms: C_9  and  S_2 
REMARK    3  A    between atoms: C_10  and  N_3 
REMARK    4  A    between atoms: C_8  and  C_10 
REMARK       I    between atoms: N_15  and  C_8 
REMARK    5  A    between atoms: C_20  and  N_15 
REMARK    6  A    between atoms: O_32  and  C_21 
REMARK    7  A    between atoms: C_33  and  C_27 
ROOT
ATOM      1  C   UNL d   1     -51.321  25.053  33.333  0.00  0.00     0.144 A 
ATOM      2  N   UNL d   1     -50.491  26.220  33.315  0.00  0.00    -0.299 N 
ATOM      3  C   UNL d   1     -50.640  24.576  33.333  0.00  0.00     0.209 A 
ATOM      4  C   UNL d   1     -51.246  25.874  33.324  0.00  0.00     0.095 A 
ATOM      5  C   UNL d   1     -49.892  24.924  33.324  0.00  0.00     0.058 A 
ATOM      6  C   UNL d   1     -49.818  25.745  33.315  0.00  0.00     0.068 A 
ATOM      7  C   UNL d   1     -49.072  26.091  33.307  0.00  0.00     0.020 A 
ATOM      8  C   UNL d   1     -49.220  24.448  33.324  0.00  0.00     0.029 A 
ATOM      9  O   UNL d   1     -50.714  23.751  33.341  0.00  0.00    -0.286 OA
ATOM     10  C   UNL d   1     -48.469  24.795  33.315  0.00  0.00     0.094 A 
ATOM     11  C   UNL d   1     -48.395  25.616  33.307  0.00  0.00     0.026 A 
ENDROOT
BRANCH   2  12
ATOM     12  C   UNL d   1     -50.417  27.041  33.307  0.00  0.00     0.144 C 
BRANCH  12  13
ATOM     13  C   UNL d   1     -49.950  27.420  33.869  0.00  0.00     0.297 C 
ATOM     14  N   UNL d   1     -49.484  28.065  33.654  0.00  0.00    -0.207 NA
ATOM     15  O   UNL d   1     -49.951  27.152  34.649  0.00  0.00    -0.264 OA
BRANCH  14  16
ATOM     16  C   UNL d   1     -49.018  28.443  34.218  0.00  0.00     0.085 A 
ATOM     17  C   UNL d   1     -48.458  28.015  34.641  0.00  0.00     0.019 A 
ATOM     18  C   UNL d   1     -47.991  28.392  35.205  0.00  0.00     0.002 A 
ATOM     19  C   UNL d   1     -48.086  29.200  35.346  0.00  0.00     0.000 A 
ATOM     20  C   UNL d   1     -48.651  29.629  34.919  0.00  0.00     0.002 A 
ATOM     21  C   UNL d   1     -49.116  29.251  34.356  0.00  0.00     0.019 A 
BRANCH  19  22
ATOM     22  C   UNL d   1     -47.622  29.586  35.910  0.00  0.00     0.000 C 
ATOM     23  C   UNL d   1     -47.385  30.364  35.774  0.00  0.00     0.000 C 
ENDBRANCH  19  22
ENDBRANCH  14  16
ENDBRANCH  12  13
ENDBRANCH   2  12
BRANCH   1  24
ATOM     24  S   UNL d   1     -52.071  24.706  33.341  0.00  0.00     0.214 S 
ATOM     25  O   UNL d   1     -51.727  23.958  33.306  0.00  0.00    -0.217 OA
ATOM     26  O   UNL d   1     -52.425  25.460  33.378  0.00  0.00    -0.217 OA
BRANCH  24  27
ATOM     27  C   UNL d   1     -52.823  24.354  33.350  0.00  0.00     0.088 A 
ATOM     28  C   UNL d   1     -52.900  23.533  33.403  0.00  0.00     0.014 A 
ATOM     29  C   UNL d   1     -53.647  23.189  33.411  0.00  0.00     0.030 A 
ATOM     30  C   UNL d   1     -54.326  23.656  33.367  0.00  0.00     0.140 A 
ATOM     31  C   UNL d   1     -54.248  24.481  33.314  0.00  0.00     0.030 A 
ATOM     32  F   UNL d   1     -55.077  23.309  33.375  0.00  0.00    -0.204 F 
ATOM     33  C   UNL d   1     -53.499  24.825  33.306  0.00  0.00     0.014 A 
ENDBRANCH  24  27
ENDBRANCH   1  24
BRANCH  10  34
ATOM     34  O   UNL d   1     -47.798  24.307  33.316  0.00  0.00    -0.328 OA
ATOM     35  C   UNL d   1     -47.133  24.530  33.759  0.00  0.00     0.181 C 
ENDBRANCH  10  34
TORSDOF 7
ENDMDL
