MODEL 1
REMARK VINA RESULT:      40.9      0.000      0.000
REMARK  9 active torsions:
REMARK  status: ('A' for Active; 'I' for Inactive)
REMARK    1  A    between atoms: N_3  and  C_1 
REMARK       I    between atoms: C_7  and  N_3 
REMARK    2  A    between atoms: S_10  and  C_4 
REMARK    3  A    between atoms: C_9  and  C_7 
REMARK    4  A    between atoms: C_8  and  C_17 
REMARK       I    between atoms: N_12  and  C_8 
REMARK    5  A    between atoms: C_17  and  S_10 
REMARK    6  A    between atoms: C_18  and  N_12 
REMARK    7  A    between atoms: C_22  and  C_18 
REMARK    8  A    between atoms: O_23  and  C_19 
REMARK    9  A    between atoms: C_25  and  O_23 
ROOT
ATOM      1  C   UNL d   1      46.290 -18.323  40.835  0.00  0.00     0.219 A 
ATOM      2  S   UNL d   1      46.411 -18.007  41.586  0.00  0.00    -0.019 SA
ATOM      3  C   UNL d   1      46.512 -18.623  42.118  0.00  0.00     0.165 A 
ATOM      4  N   UNL d   1      46.318 -19.147  40.906  0.00  0.00    -0.120 NA
ATOM      5  N   UNL d   1      46.455 -19.332  41.697  0.00  0.00    -0.133 NA
ENDROOT
BRANCH   1   6
ATOM      6  N   UNL d   1      46.165 -17.891  40.138  0.00  0.00    -0.181 NA
ATOM      7  C   UNL d   1      45.391 -17.710  39.908  0.00  0.00     0.281 C 
ATOM      8  O   UNL d   1      44.754 -17.956  40.366  0.00  0.00    -0.265 OA
BRANCH   7   9
ATOM      9  C   UNL d   1      45.262 -17.279  39.214  0.00  0.00     0.058 A 
ATOM     10  C   UNL d   1      44.510 -17.262  38.879  0.00  0.00     0.007 A 
ATOM     11  C   UNL d   1      44.389 -16.831  38.187  0.00  0.00     0.025 A 
ATOM     12  C   UNL d   1      45.006 -16.426  37.838  0.00  0.00     0.100 A 
ATOM     13  C   UNL d   1      45.762 -16.444  38.176  0.00  0.00     0.025 A 
ATOM     14  C   UNL d   1      45.883 -16.876  38.869  0.00  0.00     0.007 A 
BRANCH  12  15
ATOM     15  O   UNL d   1      44.890 -15.993  37.146  0.00  0.00    -0.305 OA
BRANCH  15  16
ATOM     16  C   UNL d   1      45.193 -15.239  37.062  0.00  0.00     0.123 C 
ATOM     17  C   UNL d   1      45.686 -15.047  36.410  0.00  0.00     0.029 C 
ENDBRANCH  15  16
ENDBRANCH  12  15
ENDBRANCH   7   9
ENDBRANCH   1   6
BRANCH   3  18
ATOM     18  S   UNL d   1      46.647 -18.544  42.927  0.00  0.00    -0.054 SA
BRANCH  18  19
ATOM     19  C   UNL d   1      46.012 -18.357  43.429  0.00  0.00     0.100 C 
BRANCH  19  20
ATOM     20  C   UNL d   1      46.142 -17.904  44.104  0.00  0.00     0.286 C 
ATOM     21  N   UNL d   1      45.851 -17.136  44.141  0.00  0.00    -0.204 NA
ATOM     22  O   UNL d   1      46.564 -18.214  44.747  0.00  0.00    -0.265 OA
BRANCH  21  23
ATOM     23  C   UNL d   1      45.981 -16.677  44.820  0.00  0.00     0.127 C 
BRANCH  23  24
ATOM     24  C   UNL d   1      45.738 -15.893  44.837  0.00  0.00     0.119 A 
ATOM     25  O   UNL d   1      46.215 -15.224  44.739  0.00  0.00    -0.304 OA
ATOM     26  C   UNL d   1      45.733 -14.547  44.798  0.00  0.00     0.123 A 
ATOM     27  C   UNL d   1      44.962 -14.791  44.931  0.00  0.00     0.029 A 
ATOM     28  C   UNL d   1      44.967 -15.616  44.954  0.00  0.00     0.028 A 
ENDBRANCH  23  24
ENDBRANCH  21  23
ENDBRANCH  19  20
ENDBRANCH  18  19
ENDBRANCH   3  18
TORSDOF 9
ENDMDL
