MODEL 1
REMARK VINA RESULT:      71.6      0.000      0.000
REMARK  5 active torsions:
REMARK  status: ('A' for Active; 'I' for Inactive)
REMARK    1  A    between atoms: C_13  and  C_2 
REMARK       I    between atoms: N_7  and  C_10 
REMARK    2  A    between atoms: S_14  and  C_8 
REMARK    3  A    between atoms: C_20  and  N_9 
REMARK    4  A    between atoms: C_10  and  C_19 
REMARK    5  A    between atoms: C_19  and  S_14 
ROOT
ATOM      1  S   UNL d   1     -48.171  28.726  34.144  0.00  0.00    -0.061 SA
ENDROOT
BRANCH   1   2
ATOM      2  C   UNL d   1     -47.890  29.201  34.759  0.00  0.00     0.131 A 
ATOM      3  N   UNL d   1     -47.796  30.013  34.644  0.00  0.00    -0.156 NA
ATOM      4  N   UNL d   1     -47.510  30.496  35.268  0.00  0.00    -0.191 N 
ATOM      5  C   UNL d   1     -47.366  31.301  35.309  0.00  0.00     0.187 A 
ATOM      6  C   UNL d   1     -47.326  30.152  35.989  0.00  0.00     0.187 A 
ATOM      7  N   UNL d   1     -47.087  31.468  36.063  0.00  0.00    -0.127 NA
ATOM      8  N   UNL d   1     -47.060  30.762  36.490  0.00  0.00    -0.127 NA
ATOM      9  C   UNL d   1     -47.419  29.340  36.103  0.00  0.00     0.043 A 
ATOM     10  C   UNL d   1     -47.701  28.865  35.488  0.00  0.00     0.031 A 
BRANCH   5  11
ATOM     11  C   UNL d   1     -47.476  31.850  34.710  0.00  0.00     0.038 A 
ATOM     12  C   UNL d   1     -46.833  32.206  34.350  0.00  0.00     0.003 A 
ATOM     13  C   UNL d   1     -46.942  32.760  33.745  0.00  0.00     0.000 A 
ATOM     14  C   UNL d   1     -47.711  32.951  33.506  0.00  0.00     0.000 A 
ATOM     15  C   UNL d   1     -48.362  32.594  33.866  0.00  0.00     0.000 A 
ATOM     16  C   UNL d   1     -48.245  32.041  34.471  0.00  0.00     0.003 A 
ENDBRANCH   5  11
ENDBRANCH   1   2
BRANCH   1  17
ATOM     17  C   UNL d   1     -48.689  28.107  34.309  0.00  0.00     0.098 C 
BRANCH  17  18
ATOM     18  C   UNL d   1     -49.447  28.121  34.002  0.00  0.00     0.272 C 
ATOM     19  N   UNL d   1     -49.851  27.410  33.888  0.00  0.00    -0.269 N 
ATOM     20  C   UNL d   1     -50.606  27.425  33.583  0.00  0.00     0.102 A 
ATOM     21  C   UNL d   1     -49.488  26.695  34.084  0.00  0.00     0.102 A 
ATOM     22  C   UNL d   1     -51.007  26.727  33.470  0.00  0.00     0.100 A 
ATOM     23  N   UNL d   1     -50.658  26.002  33.660  0.00  0.00    -0.301 N 
ATOM     24  C   UNL d   1     -49.893  25.994  33.969  0.00  0.00     0.100 A 
ATOM     25  O   UNL d   1     -49.805  28.835  33.809  0.00  0.00    -0.266 OA
BRANCH  23  26
ATOM     26  C   UNL d   1     -51.068  25.303  33.543  0.00  0.00     0.064 A 
ATOM     27  C   UNL d   1     -50.669  24.584  33.525  0.00  0.00     0.018 A 
ATOM     28  C   UNL d   1     -51.088  23.881  33.406  0.00  0.00     0.002 A 
ATOM     29  C   UNL d   1     -51.899  23.905  33.308  0.00  0.00     0.000 A 
ATOM     30  C   UNL d   1     -52.310  24.631  33.326  0.00  0.00     0.002 A 
ATOM     31  C   UNL d   1     -51.888  25.326  33.444  0.00  0.00     0.018 A 
ENDBRANCH  23  26
ENDBRANCH  17  18
ENDBRANCH   1  17
TORSDOF 5
ENDMDL
