MODEL 1
REMARK VINA RESULT:      56.1      0.000      0.000
REMARK  3 active torsions:
REMARK  status: ('A' for Active; 'I' for Inactive)
REMARK    1  A    between atoms: C_6  and  C_1 
REMARK    2  A    between atoms: C_10  and  C_3 
REMARK    3  A    between atoms: C_8  and  N_4 
REMARK       I    between atoms: N_7  and  C_6 
ROOT
ATOM      1  C   UNL d   1     -51.647  25.460  33.398  0.00  0.00     0.095 A 
ATOM      2  N   UNL d   1     -52.565  26.550  33.473  0.00  0.00    -0.165 NA
ATOM      3  C   UNL d   1     -52.420  25.744  33.429  0.00  0.00     0.107 A 
ATOM      4  N   UNL d   1     -51.161  26.808  33.455  0.00  0.00    -0.228 N 
ATOM      5  C   UNL d   1     -51.023  25.997  33.411  0.00  0.00     0.107 A 
ENDROOT
BRANCH   1   6
ATOM      6  C   UNL d   1     -51.510  24.649  33.353  0.00  0.00     0.268 C 
ATOM      7  N   UNL d   1     -50.703  24.357  33.353  0.00  0.00    -0.272 N 
ATOM      8  C   UNL d   1     -50.551  23.518  33.308  0.00  0.00     0.083 A 
ATOM      9  C   UNL d   1     -50.050  24.906  33.398  0.00  0.00     0.083 A 
ATOM     10  C   UNL d   1     -49.749  23.228  33.307  0.00  0.00     0.019 A 
ATOM     11  C   UNL d   1     -49.102  23.779  33.352  0.00  0.00     0.003 A 
ATOM     12  C   UNL d   1     -49.247  24.616  33.397  0.00  0.00     0.019 A 
ATOM     13  O   UNL d   1     -52.130  24.125  33.311  0.00  0.00    -0.267 OA
ENDBRANCH   1   6
BRANCH   3  14
ATOM     14  C   UNL d   1     -53.054  25.213  33.417  0.00  0.00     0.023 A 
ATOM     15  C   UNL d   1     -52.908  24.405  33.503  0.00  0.00     0.022 A 
ATOM     16  C   UNL d   1     -53.543  23.880  33.490  0.00  0.00     0.099 A 
ATOM     17  N   UNL d   1     -54.315  24.158  33.392  0.00  0.00    -0.242 NA
ATOM     18  C   UNL d   1     -54.450  24.967  33.307  0.00  0.00     0.099 A 
ATOM     19  C   UNL d   1     -53.819  25.493  33.320  0.00  0.00     0.022 A 
ENDBRANCH   3  14
BRANCH   4  20
ATOM     20  C   UNL d   1     -50.690  27.480  33.478  0.00  0.00     0.083 A 
ATOM     21  C   UNL d   1     -49.897  27.417  33.670  0.00  0.00     0.019 A 
ATOM     22  C   UNL d   1     -49.427  28.090  33.693  0.00  0.00     0.002 A 
ATOM     23  C   UNL d   1     -49.752  28.832  33.523  0.00  0.00     0.000 A 
ATOM     24  C   UNL d   1     -50.555  28.893  33.328  0.00  0.00     0.002 A 
ATOM     25  C   UNL d   1     -51.028  28.215  33.306  0.00  0.00     0.019 A 
ENDBRANCH   4  20
TORSDOF 3
ENDMDL
