MODEL 1
REMARK VINA RESULT:      -8.6      0.000      0.000
REMARK  5 active torsions:
REMARK  status: ('A' for Active; 'I' for Inactive)
REMARK    1  A    between atoms: C_9  and  C_1 
REMARK    2  A    between atoms: S_2  and  N_8 
REMARK    3  A    between atoms: C_10  and  S_2 
REMARK    4  A    between atoms: C_14  and  C_3 
REMARK    5  A    between atoms: N_8  and  C_9 
ROOT
ATOM      1  C   UNL d   1     -47.519  13.776  22.745  0.00  0.00     0.078 A 
ATOM      2  C   UNL d   1     -48.332  13.598  22.758  0.00  0.00     0.008 A 
ATOM      3  C   UNL d   1     -47.269  14.553  22.652  0.00  0.00     0.281 A 
ATOM      4  C   UNL d   1     -48.878  14.207  22.678  0.00  0.00     0.019 A 
ATOM      5  N   UNL d   1     -47.827  15.166  22.572  0.00  0.00    -0.208 NA
ATOM      6  C   UNL d   1     -48.628  14.983  22.586  0.00  0.00     0.085 A 
ATOM      7  C   UNL d   1     -49.683  14.026  22.692  0.00  0.00     0.013 A 
ATOM      8  O   UNL d   1     -46.445  14.728  22.639  0.00  0.00    -0.265 OA
ATOM      9  C   UNL d   1     -49.177  15.594  22.506  0.00  0.00     0.020 A 
ATOM     10  C   UNL d   1     -50.242  14.639  22.611  0.00  0.00     0.058 A 
ATOM     11  C   UNL d   1     -49.991  15.415  22.519  0.00  0.00     0.013 A 
ATOM     12 CL   UNL d   1     -51.064  14.464  22.624  0.00  0.00    -0.082 Cl
ENDROOT
BRANCH   1  13
ATOM     13  C   UNL d   1     -46.960  13.164  22.825  0.00  0.00     0.117 C 
BRANCH  13  14
ATOM     14  N   UNL d   1     -46.158  13.321  22.689  0.00  0.00    -0.157 NA
BRANCH  14  15
ATOM     15  S   UNL d   1     -45.743  12.618  22.874  0.00  0.00     0.285 S 
ATOM     16  O   UNL d   1     -45.826  12.780  23.683  0.00  0.00    -0.198 OA
ATOM     17  O   UNL d   1     -45.664  12.463  22.058  0.00  0.00    -0.198 OA
BRANCH  15  18
ATOM     18  C   UNL d   1     -45.331  11.921  23.055  0.00  0.00     0.105 A 
ATOM     19  C   UNL d   1     -45.687  11.332  23.513  0.00  0.00     0.013 A 
ATOM     20  C   UNL d   1     -45.289  10.640  23.698  0.00  0.00     0.001 A 
ATOM     21  C   UNL d   1     -44.507  10.528  23.419  0.00  0.00     0.000 A 
ATOM     22  C   UNL d   1     -44.149  11.117  22.960  0.00  0.00     0.001 A 
ATOM     23  C   UNL d   1     -44.098   9.837  23.598  0.00  0.00     0.000 C 
ATOM     24  C   UNL d   1     -44.561  11.814  22.779  0.00  0.00     0.013 A 
ENDBRANCH  15  18
ENDBRANCH  14  15
ENDBRANCH  13  14
ENDBRANCH   1  13
BRANCH   2  25
ATOM     25  C   UNL d   1     -48.583  12.821  22.851  0.00  0.00     0.000 A 
ATOM     26  C   UNL d   1     -48.712  12.509  23.599  0.00  0.00     0.000 A 
ATOM     27  C   UNL d   1     -48.963  11.732  23.691  0.00  0.00     0.000 A 
ATOM     28  C   UNL d   1     -49.089  11.253  23.037  0.00  0.00     0.000 A 
ATOM     29  C   UNL d   1     -48.960  11.562  22.269  0.00  0.00     0.000 A 
ATOM     30  C   UNL d   1     -48.709  12.340  22.182  0.00  0.00     0.000 A 
ENDBRANCH   2  25
TORSDOF 5
ENDMDL
MODEL 2
REMARK VINA RESULT:      -6.4      1.410      2.605
REMARK  5 active torsions:
REMARK  status: ('A' for Active; 'I' for Inactive)
REMARK    1  A    between atoms: C_9  and  C_1 
REMARK    2  A    between atoms: S_2  and  N_8 
REMARK    3  A    between atoms: C_10  and  S_2 
REMARK    4  A    between atoms: C_14  and  C_3 
REMARK    5  A    between atoms: N_8  and  C_9 
ROOT
ATOM      1  C   UNL d   1     -47.532  12.187  23.143  0.00  0.00     0.078 A 
ATOM      2  C   UNL d   1     -48.210  12.633  22.957  0.00  0.00     0.008 A 
ATOM      3  C   UNL d   1     -47.607  11.456  23.510  0.00  0.00     0.281 A 
ATOM      4  C   UNL d   1     -48.952  12.333  23.144  0.00  0.00     0.019 A 
ATOM      5  N   UNL d   1     -48.362  11.157  23.697  0.00  0.00    -0.208 NA
ATOM      6  C   UNL d   1     -49.027  11.602  23.511  0.00  0.00     0.085 A 
ATOM      7  C   UNL d   1     -49.621  12.778  22.958  0.00  0.00     0.013 A 
ATOM      8  O   UNL d   1     -46.918  11.008  23.696  0.00  0.00    -0.265 OA
ATOM      9  C   UNL d   1     -49.772  11.301  23.698  0.00  0.00     0.020 A 
ATOM     10  C   UNL d   1     -50.376  12.479  23.145  0.00  0.00     0.058 A 
ATOM     11  C   UNL d   1     -50.451  11.748  23.512  0.00  0.00     0.013 A 
ATOM     12 CL   UNL d   1     -51.064  12.926  22.959  0.00  0.00    -0.082 Cl
ENDROOT
BRANCH   1  13
ATOM     13  C   UNL d   1     -46.777  12.485  22.956  0.00  0.00     0.117 C 
BRANCH  13  14
ATOM     14  N   UNL d   1     -46.119  12.240  23.397  0.00  0.00    -0.157 NA
BRANCH  14  15
ATOM     15  S   UNL d   1     -45.446  12.384  22.921  0.00  0.00     0.285 S 
ATOM     16  O   UNL d   1     -45.415  13.165  23.199  0.00  0.00    -0.198 OA
ATOM     17  O   UNL d   1     -45.485  11.597  22.646  0.00  0.00    -0.198 OA
BRANCH  15  18
ATOM     18  C   UNL d   1     -44.779  12.526  22.448  0.00  0.00     0.105 A 
ATOM     19  C   UNL d   1     -44.772  13.156  21.913  0.00  0.00     0.013 A 
ATOM     20  C   UNL d   1     -44.118  13.304  21.443  0.00  0.00     0.001 A 
ATOM     21  C   UNL d   1     -43.445  12.809  21.504  0.00  0.00     0.000 A 
ATOM     22  C   UNL d   1     -43.451  12.178  22.039  0.00  0.00     0.001 A 
ATOM     23  C   UNL d   1     -42.784  12.949  21.036  0.00  0.00     0.000 C 
ATOM     24  C   UNL d   1     -44.119  12.036  22.512  0.00  0.00     0.013 A 
ENDBRANCH  15  18
ENDBRANCH  14  15
ENDBRANCH  13  14
ENDBRANCH   1  13
BRANCH   2  25
ATOM     25  C   UNL d   1     -48.136  13.365  22.591  0.00  0.00     0.000 A 
ATOM     26  C   UNL d   1     -48.036  14.047  23.035  0.00  0.00     0.000 A 
ATOM     27  C   UNL d   1     -47.961  14.779  22.669  0.00  0.00     0.000 A 
ATOM     28  C   UNL d   1     -47.984  14.841  21.851  0.00  0.00     0.000 A 
ATOM     29  C   UNL d   1     -48.086  14.150  21.388  0.00  0.00     0.000 A 
ATOM     30  C   UNL d   1     -48.160  13.420  21.759  0.00  0.00     0.000 A 
ENDBRANCH   2  25
TORSDOF 5
ENDMDL
MODEL 3
REMARK VINA RESULT:      -5.8      7.973      8.993
REMARK  5 active torsions:
REMARK  status: ('A' for Active; 'I' for Inactive)
REMARK    1  A    between atoms: C_9  and  C_1 
REMARK    2  A    between atoms: S_2  and  N_8 
REMARK    3  A    between atoms: C_10  and  S_2 
REMARK    4  A    between atoms: C_14  and  C_3 
REMARK    5  A    between atoms: N_8  and  C_9 
ROOT
ATOM      1  C   UNL d   1     -40.443  15.232  19.248  0.00  0.00     0.078 A 
ATOM      2  C   UNL d   1     -40.097  15.051  18.513  0.00  0.00     0.008 A 
ATOM      3  C   UNL d   1     -41.157  15.636  19.279  0.00  0.00     0.281 A 
ATOM      4  C   UNL d   1     -40.477  15.282  17.822  0.00  0.00     0.019 A 
ATOM      5  N   UNL d   1     -41.539  15.867  18.576  0.00  0.00    -0.208 NA
ATOM      6  C   UNL d   1     -41.191  15.686  17.853  0.00  0.00     0.085 A 
ATOM      7  C   UNL d   1     -40.131  15.101  17.096  0.00  0.00     0.013 A 
ATOM      8  O   UNL d   1     -41.505  15.816  20.025  0.00  0.00    -0.265 OA
ATOM      9  C   UNL d   1     -41.573  15.917  17.159  0.00  0.00     0.020 A 
ATOM     10  C   UNL d   1     -40.511  15.333  16.392  0.00  0.00     0.058 A 
ATOM     11  C   UNL d   1     -41.225  15.737  16.423  0.00  0.00     0.013 A 
ATOM     12 CL   UNL d   1     -40.165  15.153  15.646  0.00  0.00    -0.082 Cl
ENDROOT
BRANCH   1  13
ATOM     13  C   UNL d   1     -40.063  15.001  19.952  0.00  0.00     0.117 C 
BRANCH  13  14
ATOM     14  N   UNL d   1     -40.182  15.440  20.646  0.00  0.00    -0.157 NA
BRANCH  14  15
ATOM     15  S   UNL d   1     -39.786  15.030  21.258  0.00  0.00     0.285 S 
ATOM     16  O   UNL d   1     -40.283  14.376  21.144  0.00  0.00    -0.198 OA
ATOM     17  O   UNL d   1     -39.291  15.692  21.366  0.00  0.00    -0.198 OA
BRANCH  15  18
ATOM     18  C   UNL d   1     -39.392  14.625  21.866  0.00  0.00     0.105 A 
ATOM     19  C   UNL d   1     -39.575  13.835  22.029  0.00  0.00     0.013 A 
ATOM     20  C   UNL d   1     -39.192  13.426  22.626  0.00  0.00     0.001 A 
ATOM     21  C   UNL d   1     -38.605  13.815  23.081  0.00  0.00     0.000 A 
ATOM     22  C   UNL d   1     -38.422  14.605  22.919  0.00  0.00     0.001 A 
ATOM     23  C   UNL d   1     -38.215  13.414  23.683  0.00  0.00     0.000 C 
ATOM     24  C   UNL d   1     -38.815  15.011  22.311  0.00  0.00     0.013 A 
ENDBRANCH  15  18
ENDBRANCH  14  15
ENDBRANCH  13  14
ENDBRANCH   1  13
BRANCH   2  25
ATOM     25  C   UNL d   1     -39.382  14.647  18.482  0.00  0.00     0.000 A 
ATOM     26  C   UNL d   1     -39.367  13.827  18.450  0.00  0.00     0.000 A 
ATOM     27  C   UNL d   1     -38.652  13.423  18.419  0.00  0.00     0.000 A 
ATOM     28  C   UNL d   1     -37.940  13.831  18.419  0.00  0.00     0.000 A 
ATOM     29  C   UNL d   1     -37.946  14.668  18.451  0.00  0.00     0.000 A 
ATOM     30  C   UNL d   1     -38.663  15.068  18.482  0.00  0.00     0.000 A 
ENDBRANCH   2  25
TORSDOF 5
ENDMDL
