MODEL 1
REMARK VINA RESULT:      -2.1      0.000      0.000
REMARK  4 active torsions:
REMARK  status: ('A' for Active; 'I' for Inactive)
REMARK    1  A    between atoms: C_8  and  C_1 
REMARK    2  A    between atoms: C_4  and  C_2 
REMARK    3  A    between atoms: O_16  and  C_8 
REMARK    4  A    between atoms: C_21  and  O_16 
ROOT
ATOM      1  C   UNL d   1      59.602  -1.293  29.328  0.00  0.00     0.099 A 
ATOM      2  C   UNL d   1      58.782  -1.354  29.405  0.00  0.00     0.096 A 
ATOM      3  C   UNL d   1      60.057  -1.982  29.188  0.00  0.00     0.093 A 
ATOM      4  C   UNL d   1      58.869  -2.771  29.205  0.00  0.00     0.369 A 
ATOM      5  N   UNL d   1      59.686  -2.720  29.127  0.00  0.00    -0.191 NA
ATOM      6  N   UNL d   1      58.419  -2.091  29.344  0.00  0.00    -0.191 NA
ATOM      7  O   UNL d   1      58.497  -3.509  29.144  0.00  0.00    -0.242 OA
ATOM      8  C   UNL d   1      60.871  -1.932  29.110  0.00  0.00     0.021 C 
ENDROOT
BRANCH   2   9
ATOM      9  C   UNL d   1      58.338  -0.682  29.542  0.00  0.00     0.057 A 
ATOM     10  C   UNL d   1      57.901  -0.603  30.236  0.00  0.00     0.005 A 
ATOM     11  C   UNL d   1      57.451   0.077  30.374  0.00  0.00     0.000 A 
ATOM     12  C   UNL d   1      57.917  -1.216  30.796  0.00  0.00     0.000 A 
ATOM     13  C   UNL d   1      57.015   0.147  31.073  0.00  0.00     0.000 A 
ATOM     14  C   UNL d   1      57.437   0.681  29.819  0.00  0.00     0.003 A 
ATOM     15  C   UNL d   1      57.028  -0.458  31.631  0.00  0.00     0.000 A 
ATOM     16  C   UNL d   1      57.478  -1.138  31.493  0.00  0.00     0.000 A 
ATOM     17  C   UNL d   1      57.872   0.611  29.120  0.00  0.00     0.042 A 
ATOM     18  C   UNL d   1      58.340  -0.096  28.976  0.00  0.00     0.197 A 
ATOM     19  O   UNL d   1      58.262   0.588  28.455  0.00  0.00    -0.286 OA
ENDBRANCH   2   9
BRANCH   1  20
ATOM     20  C   UNL d   1      59.960  -0.554  29.390  0.00  0.00     0.303 C 
ATOM     21  O   UNL d   1      60.023  -0.071  28.731  0.00  0.00    -0.259 OA
BRANCH  20  22
ATOM     22  O   UNL d   1      60.251  -0.310  30.121  0.00  0.00    -0.271 OA
BRANCH  22  23
ATOM     23  C   UNL d   1      60.780   0.317  30.148  0.00  0.00     0.126 C 
ATOM     24  C   UNL d   1      61.133   0.531  30.856  0.00  0.00     0.029 C 
ENDBRANCH  22  23
ENDBRANCH  20  22
ENDBRANCH   1  20
TORSDOF 4
ENDMDL
MODEL 2
REMARK VINA RESULT:       0.2      1.202      2.211
REMARK  4 active torsions:
REMARK  status: ('A' for Active; 'I' for Inactive)
REMARK    1  A    between atoms: C_8  and  C_1 
REMARK    2  A    between atoms: C_4  and  C_2 
REMARK    3  A    between atoms: O_16  and  C_8 
REMARK    4  A    between atoms: C_21  and  O_16 
ROOT
ATOM      1  C   UNL d   1      59.583  -0.689  29.662  0.00  0.00     0.099 A 
ATOM      2  C   UNL d   1      59.312  -0.002  30.030  0.00  0.00     0.096 A 
ATOM      3  C   UNL d   1      60.383  -0.920  29.755  0.00  0.00     0.093 A 
ATOM      4  C   UNL d   1      60.619   0.222  30.576  0.00  0.00     0.369 A 
ATOM      5  N   UNL d   1      60.898  -0.461  30.214  0.00  0.00    -0.191 NA
ATOM      6  N   UNL d   1      59.829   0.451  30.485  0.00  0.00    -0.191 NA
ATOM      7  O   UNL d   1      61.133   0.682  31.035  0.00  0.00    -0.242 OA
ATOM      8  C   UNL d   1      60.663  -1.600  29.394  0.00  0.00     0.021 C 
ENDROOT
BRANCH   2   9
ATOM      9  C   UNL d   1      58.532   0.224  29.939  0.00  0.00     0.057 A 
ATOM     10  C   UNL d   1      58.022   0.236  30.586  0.00  0.00     0.005 A 
ATOM     11  C   UNL d   1      57.232   0.464  30.495  0.00  0.00     0.000 A 
ATOM     12  C   UNL d   1      58.310   0.015  31.333  0.00  0.00     0.000 A 
ATOM     13  C   UNL d   1      56.727   0.473  31.150  0.00  0.00     0.000 A 
ATOM     14  C   UNL d   1      56.949   0.682  29.756  0.00  0.00     0.003 A 
ATOM     15  C   UNL d   1      57.010   0.255  31.892  0.00  0.00     0.000 A 
ATOM     16  C   UNL d   1      57.799   0.026  31.983  0.00  0.00     0.000 A 
ATOM     17  C   UNL d   1      57.454   0.673  29.101  0.00  0.00     0.042 A 
ATOM     18  C   UNL d   1      58.275   0.435  29.196  0.00  0.00     0.197 A 
ATOM     19  O   UNL d   1      57.888   0.679  28.464  0.00  0.00    -0.286 OA
ENDBRANCH   2   9
BRANCH   1  20
ATOM     20  C   UNL d   1      59.063  -1.137  29.209  0.00  0.00     0.303 C 
ATOM     21  O   UNL d   1      58.750  -0.829  28.517  0.00  0.00    -0.259 OA
BRANCH  20  22
ATOM     22  O   UNL d   1      58.864  -1.897  29.460  0.00  0.00    -0.271 OA
BRANCH  22  23
ATOM     23  C   UNL d   1      58.572  -2.433  28.911  0.00  0.00     0.126 C 
ATOM     24  C   UNL d   1      58.736  -3.232  28.986  0.00  0.00     0.029 C 
ENDBRANCH  22  23
ENDBRANCH  20  22
ENDBRANCH   1  20
TORSDOF 4
ENDMDL
MODEL 3
REMARK VINA RESULT:       0.7      1.654      3.321
REMARK  4 active torsions:
REMARK  status: ('A' for Active; 'I' for Inactive)
REMARK    1  A    between atoms: C_8  and  C_1 
REMARK    2  A    between atoms: C_4  and  C_2 
REMARK    3  A    between atoms: O_16  and  C_8 
REMARK    4  A    between atoms: C_21  and  O_16 
ROOT
ATOM      1  C   UNL d   1      58.238   0.179  31.250  0.00  0.00     0.099 A 
ATOM      2  C   UNL d   1      58.766   0.054  30.629  0.00  0.00     0.096 A 
ATOM      3  C   UNL d   1      58.521   0.468  31.984  0.00  0.00     0.093 A 
ATOM      4  C   UNL d   1      59.848   0.499  31.459  0.00  0.00     0.369 A 
ATOM      5  N   UNL d   1      59.328   0.627  32.083  0.00  0.00    -0.191 NA
ATOM      6  N   UNL d   1      59.568   0.213  30.735  0.00  0.00    -0.191 NA
ATOM      7  O   UNL d   1      60.655   0.657  31.558  0.00  0.00    -0.242 OA
ATOM      8  C   UNL d   1      58.005   0.597  32.607  0.00  0.00     0.021 C 
ENDROOT
BRANCH   2   9
ATOM      9  C   UNL d   1      58.489  -0.228  29.914  0.00  0.00     0.057 A 
ATOM     10  C   UNL d   1      58.682  -0.989  29.661  0.00  0.00     0.005 A 
ATOM     11  C   UNL d   1      58.402  -1.274  28.937  0.00  0.00     0.000 A 
ATOM     12  C   UNL d   1      59.162  -1.466  30.142  0.00  0.00     0.000 A 
ATOM     13  C   UNL d   1      58.601  -2.038  28.690  0.00  0.00     0.000 A 
ATOM     14  C   UNL d   1      57.928  -0.800  28.463  0.00  0.00     0.003 A 
ATOM     15  C   UNL d   1      59.076  -2.514  29.165  0.00  0.00     0.000 A 
ATOM     16  C   UNL d   1      59.356  -2.229  29.889  0.00  0.00     0.000 A 
ATOM     17  C   UNL d   1      57.729  -0.036  28.709  0.00  0.00     0.042 A 
ATOM     18  C   UNL d   1      58.021   0.260  29.462  0.00  0.00     0.197 A 
ATOM     19  O   UNL d   1      57.519   0.681  28.898  0.00  0.00    -0.286 OA
ENDBRANCH   2   9
BRANCH   1  20
ATOM     20  C   UNL d   1      57.438   0.018  31.140  0.00  0.00     0.303 C 
ATOM     21  O   UNL d   1      56.948   0.583  30.805  0.00  0.00    -0.259 OA
BRANCH  20  22
ATOM     22  O   UNL d   1      57.141  -0.715  31.370  0.00  0.00    -0.271 OA
BRANCH  22  23
ATOM     23  C   UNL d   1      56.398  -0.751  31.717  0.00  0.00     0.126 C 
ATOM     24  C   UNL d   1      56.185  -1.397  32.174  0.00  0.00     0.029 C 
ENDBRANCH  22  23
ENDBRANCH  20  22
ENDBRANCH   1  20
TORSDOF 4
ENDMDL
