MODEL 1
REMARK VINA RESULT:      -5.7      0.000      0.000
REMARK  2 active torsions:
REMARK  status: ('A' for Active; 'I' for Inactive)
REMARK    1  A    between atoms: C_6  and  C_1 
REMARK    2  A    between atoms: O_15  and  C_12 
ROOT
ATOM      1  C   UNL d   1     -41.819-122.346 -54.505  0.00  0.00     0.128 A 
ATOM      2  C   UNL d   1     -41.556-123.150 -54.551  0.00  0.00     0.306 A 
ATOM      3  C   UNL d   1     -41.837-121.978 -53.776  0.00  0.00     0.013 A 
ATOM      4  O   UNL d   1     -41.330-123.526 -53.865  0.00  0.00    -0.273 OA
ATOM      5  C   UNL d   1     -41.613-122.359 -53.109  0.00  0.00     0.025 A 
ATOM      6  C   UNL d   1     -41.349-123.163 -53.155  0.00  0.00     0.103 A 
ATOM      7  O   UNL d   1     -41.534-123.536 -55.294  0.00  0.00    -0.259 OA
ATOM      8  C   UNL d   1     -41.630-121.991 -52.373  0.00  0.00     0.026 A 
ATOM      9  C   UNL d   1     -41.123-123.538 -52.462  0.00  0.00     0.027 A 
ATOM     10  C   UNL d   1     -41.400-122.372 -51.676  0.00  0.00     0.094 A 
ATOM     11  C   UNL d   1     -41.137-123.176 -51.722  0.00  0.00     0.026 A 
ENDROOT
BRANCH   1  12
ATOM     12  C   UNL d   1     -42.056-121.941 -55.202  0.00  0.00     0.216 C 
ATOM     13  O   UNL d   1     -41.495-121.560 -55.666  0.00  0.00    -0.644 OA
ATOM     14  O   UNL d   1     -42.862-121.928 -55.420  0.00  0.00    -0.644 OA
ENDBRANCH   1  12
BRANCH  10  15
ATOM     15  O   UNL d   1     -41.426-121.980 -50.945  0.00  0.00    -0.328 OA
ATOM     16  C   UNL d   1     -41.869-122.286 -50.324  0.00  0.00     0.181 C 
ENDBRANCH  10  15
TORSDOF 2
ENDMDL
MODEL 2
REMARK VINA RESULT:      -5.5      0.769      3.293
REMARK  2 active torsions:
REMARK  status: ('A' for Active; 'I' for Inactive)
REMARK    1  A    between atoms: C_6  and  C_1 
REMARK    2  A    between atoms: O_15  and  C_12 
ROOT
ATOM      1  C   UNL d   1     -41.584-122.566 -51.718  0.00  0.00     0.128 A 
ATOM      2  C   UNL d   1     -41.350-123.379 -51.743  0.00  0.00     0.306 A 
ATOM      3  C   UNL d   1     -41.652-122.153 -52.420  0.00  0.00     0.013 A 
ATOM      4  O   UNL d   1     -41.203-123.720 -52.467  0.00  0.00    -0.273 OA
ATOM      5  C   UNL d   1     -41.504-122.500 -53.125  0.00  0.00     0.025 A 
ATOM      6  C   UNL d   1     -41.271-123.314 -53.150  0.00  0.00     0.103 A 
ATOM      7  O   UNL d   1     -41.277-123.811 -51.029  0.00  0.00    -0.259 OA
ATOM      8  C   UNL d   1     -41.572-122.087 -53.834  0.00  0.00     0.026 A 
ATOM      9  C   UNL d   1     -41.123-123.655 -53.881  0.00  0.00     0.027 A 
ATOM     10  C   UNL d   1     -41.423-122.433 -54.570  0.00  0.00     0.094 A 
ATOM     11  C   UNL d   1     -41.189-123.247 -54.595  0.00  0.00     0.026 A 
ENDROOT
BRANCH   1  12
ATOM     12  C   UNL d   1     -41.741-122.196 -50.980  0.00  0.00     0.216 C 
ATOM     13  O   UNL d   1     -41.123-122.033 -50.463  0.00  0.00    -0.644 OA
ATOM     14  O   UNL d   1     -42.524-121.995 -50.775  0.00  0.00    -0.644 OA
ENDBRANCH   1  12
BRANCH  10  15
ATOM     15  O   UNL d   1     -41.498-121.997 -55.271  0.00  0.00    -0.328 OA
ATOM     16  C   UNL d   1     -42.223-121.949 -55.656  0.00  0.00     0.181 C 
ENDBRANCH  10  15
TORSDOF 2
ENDMDL
MODEL 3
REMARK VINA RESULT:      -5.0      1.006      1.659
REMARK  2 active torsions:
REMARK  status: ('A' for Active; 'I' for Inactive)
REMARK    1  A    between atoms: C_6  and  C_1 
REMARK    2  A    between atoms: O_15  and  C_12 
ROOT
ATOM      1  C   UNL d   1     -41.581-122.890 -53.608  0.00  0.00     0.128 A 
ATOM      2  C   UNL d   1     -41.505-122.048 -53.559  0.00  0.00     0.306 A 
ATOM      3  C   UNL d   1     -41.521-123.333 -52.924  0.00  0.00     0.013 A 
ATOM      4  O   UNL d   1     -41.374-121.711 -52.829  0.00  0.00    -0.273 OA
ATOM      5  C   UNL d   1     -41.393-122.989 -52.213  0.00  0.00     0.025 A 
ATOM      6  C   UNL d   1     -41.316-122.147 -52.164  0.00  0.00     0.103 A 
ATOM      7  O   UNL d   1     -41.565-121.585 -54.254  0.00  0.00    -0.259 OA
ATOM      8  C   UNL d   1     -41.332-123.432 -51.523  0.00  0.00     0.026 A 
ATOM      9  C   UNL d   1     -41.185-121.811 -51.427  0.00  0.00     0.027 A 
ATOM     10  C   UNL d   1     -41.199-123.091 -50.781  0.00  0.00     0.094 A 
ATOM     11  C   UNL d   1     -41.123-122.249 -50.731  0.00  0.00     0.026 A 
ENDROOT
BRANCH   1  12
ATOM     12  C   UNL d   1     -41.716-123.256 -54.352  0.00  0.00     0.216 C 
ATOM     13  O   UNL d   1     -41.123-123.263 -54.921  0.00  0.00    -0.644 OA
ATOM     14  O   UNL d   1     -42.454-123.612 -54.511  0.00  0.00    -0.644 OA
ENDBRANCH   1  12
BRANCH  10  15
ATOM     15  O   UNL d   1     -41.141-123.559 -50.099  0.00  0.00    -0.328 OA
ATOM     16  C   UNL d   1     -41.578-123.372 -49.428  0.00  0.00     0.181 C 
ENDBRANCH  10  15
TORSDOF 2
ENDMDL
MODEL 4
REMARK VINA RESULT:      -3.4      1.415      4.177
REMARK  2 active torsions:
REMARK  status: ('A' for Active; 'I' for Inactive)
REMARK    1  A    between atoms: C_6  and  C_1 
REMARK    2  A    between atoms: O_15  and  C_12 
ROOT
ATOM      1  C   UNL d   1     -42.216-123.189 -50.034  0.00  0.00     0.128 A 
ATOM      2  C   UNL d   1     -42.070-122.356 -49.990  0.00  0.00     0.306 A 
ATOM      3  C   UNL d   1     -42.051-123.583 -50.730  0.00  0.00     0.013 A 
ATOM      4  O   UNL d   1     -41.770-121.978 -50.646  0.00  0.00    -0.273 OA
ATOM      5  C   UNL d   1     -41.756-123.199 -51.368  0.00  0.00     0.025 A 
ATOM      6  C   UNL d   1     -41.610-122.366 -51.324  0.00  0.00     0.103 A 
ATOM      7  O   UNL d   1     -42.236-121.943 -49.281  0.00  0.00    -0.259 OA
ATOM      8  C   UNL d   1     -41.588-123.593 -52.071  0.00  0.00     0.026 A 
ATOM      9  C   UNL d   1     -41.308-121.989 -51.986  0.00  0.00     0.027 A 
ATOM     10  C   UNL d   1     -41.284-123.210 -52.737  0.00  0.00     0.094 A 
ATOM     11  C   UNL d   1     -41.138-122.377 -52.694  0.00  0.00     0.026 A 
ENDROOT
BRANCH   1  12
ATOM     12  C   UNL d   1     -42.526-123.596 -49.367  0.00  0.00     0.216 C 
ATOM     13  O   UNL d   1     -42.027-123.816 -48.752  0.00  0.00    -0.644 OA
ATOM     14  O   UNL d   1     -43.339-123.777 -49.333  0.00  0.00    -0.644 OA
ENDBRANCH   1  12
BRANCH  10  15
ATOM     15  O   UNL d   1     -41.123-123.629 -53.435  0.00  0.00    -0.328 OA
ATOM     16  C   UNL d   1     -41.376-123.340 -54.162  0.00  0.00     0.181 C 
ENDBRANCH  10  15
TORSDOF 2
ENDMDL
