MODEL 1
REMARK VINA RESULT:      -8.1      0.000      0.000
REMARK  3 active torsions:
REMARK  status: ('A' for Active; 'I' for Inactive)
REMARK    1  A    between atoms: C_4  and  C_8 
REMARK    2  A    between atoms: N_13  and  C_7 
REMARK       I    between atoms: C_8  and  N_12 
REMARK    3  A    between atoms: N_12  and  N_13 
ROOT
ATOM      1  C   UNL d   1      51.296  34.210  52.637  0.00  0.00     0.297 C 
ATOM      2  N   UNL d   1      50.560  34.532  52.847  0.00  0.00    -0.104 NA
ATOM      3  O   UNL d   1      51.413  33.925  51.867  0.00  0.00    -0.264 OA
ENDROOT
BRANCH   2   4
ATOM      4  N   UNL d   1      49.952  34.570  52.297  0.00  0.00    -0.125 NA
BRANCH   4   5
ATOM      5  C   UNL d   1      49.265  34.994  52.468  0.00  0.00     0.190 A 
ATOM      6  C   UNL d   1      48.651  35.011  51.928  0.00  0.00     0.094 A 
ATOM      7  C   UNL d   1      47.964  35.435  52.098  0.00  0.00     0.170 A 
ATOM      8  C   UNL d   1      48.564  34.661  51.179  0.00  0.00     0.127 A 
ATOM      9  N   UNL d   1      47.447  35.349  51.454  0.00  0.00    -0.209 N 
ATOM     10  N   UNL d   1      47.895  35.840  52.809  0.00  0.00    -0.205 NA
ATOM     11  C   UNL d   1      46.690  35.686  51.393  0.00  0.00     0.123 C 
ATOM     12  N   UNL d   1      47.817  34.873  50.889  0.00  0.00    -0.162 NA
ATOM     13  C   UNL d   1      48.513  35.822  53.349  0.00  0.00     0.202 A 
ATOM     14  N   UNL d   1      49.203  35.395  53.177  0.00  0.00    -0.203 NA
ENDBRANCH   4   5
ENDBRANCH   2   4
BRANCH   1  15
ATOM     15  C   UNL d   1      51.908  34.170  53.188  0.00  0.00     0.070 A 
ATOM     16  C   UNL d   1      52.153  33.445  53.478  0.00  0.00     0.063 A 
ATOM     17  C   UNL d   1      52.764  33.402  54.028  0.00  0.00     0.023 A 
ATOM     18 CL   UNL d   1      51.780  32.754  53.213  0.00  0.00    -0.082 Cl
ATOM     19  C   UNL d   1      53.134  34.102  54.289  0.00  0.00     0.059 A 
ATOM     20  C   UNL d   1      52.883  34.837  53.993  0.00  0.00     0.012 A 
ATOM     21 CL   UNL d   1      53.750  34.064  54.844  0.00  0.00    -0.082 Cl
ATOM     22  C   UNL d   1      52.274  34.869  53.446  0.00  0.00     0.007 A 
ENDBRANCH   1  15
TORSDOF 3
ENDMDL
MODEL 2
REMARK VINA RESULT:      -8.0      3.508      4.956
REMARK  3 active torsions:
REMARK  status: ('A' for Active; 'I' for Inactive)
REMARK    1  A    between atoms: C_4  and  C_8 
REMARK    2  A    between atoms: N_13  and  C_7 
REMARK       I    between atoms: C_8  and  N_12 
REMARK    3  A    between atoms: N_12  and  N_13 
ROOT
ATOM      1  C   UNL d   1      53.176  31.467  53.217  0.00  0.00     0.297 C 
ATOM      2  N   UNL d   1      53.381  32.086  53.730  0.00  0.00    -0.104 NA
ATOM      3  O   UNL d   1      52.934  31.640  52.443  0.00  0.00    -0.264 OA
ENDROOT
BRANCH   2   4
ATOM      4  N   UNL d   1      53.345  32.866  53.475  0.00  0.00    -0.125 NA
BRANCH   4   5
ATOM      5  C   UNL d   1      53.561  33.478  53.983  0.00  0.00     0.190 A 
ATOM      6  C   UNL d   1      53.158  34.190  53.959  0.00  0.00     0.094 A 
ATOM      7  C   UNL d   1      53.374  34.803  54.467  0.00  0.00     0.170 A 
ATOM      8  C   UNL d   1      52.524  34.449  53.489  0.00  0.00     0.127 A 
ATOM      9  N   UNL d   1      52.872  35.446  54.314  0.00  0.00    -0.209 N 
ATOM     10  N   UNL d   1      53.992  34.701  54.998  0.00  0.00    -0.205 NA
ATOM     11  C   UNL d   1      52.896  36.181  54.703  0.00  0.00     0.123 C 
ATOM     12  N   UNL d   1      52.349  35.228  53.713  0.00  0.00    -0.162 NA
ATOM     13  C   UNL d   1      54.394  33.985  55.021  0.00  0.00     0.202 A 
ATOM     14  N   UNL d   1      54.177  33.369  54.510  0.00  0.00    -0.203 NA
ENDBRANCH   4   5
ENDBRANCH   2   4
BRANCH   1  15
ATOM     15  C   UNL d   1      53.211  30.683  53.472  0.00  0.00     0.070 A 
ATOM     16  C   UNL d   1      52.531  30.228  53.496  0.00  0.00     0.063 A 
ATOM     17  C   UNL d   1      52.563  29.446  53.749  0.00  0.00     0.023 A 
ATOM     18 CL   UNL d   1      51.809  30.564  53.262  0.00  0.00    -0.082 Cl
ATOM     19  C   UNL d   1      53.292  29.117  53.982  0.00  0.00     0.059 A 
ATOM     20  C   UNL d   1      53.981  29.581  53.957  0.00  0.00     0.012 A 
ATOM     21 CL   UNL d   1      53.329  28.328  54.239  0.00  0.00    -0.082 Cl
ATOM     22  C   UNL d   1      53.939  30.359  53.703  0.00  0.00     0.007 A 
ENDBRANCH   1  15
TORSDOF 3
ENDMDL
MODEL 3
REMARK VINA RESULT:      -7.1      2.189      4.966
REMARK  3 active torsions:
REMARK  status: ('A' for Active; 'I' for Inactive)
REMARK    1  A    between atoms: C_4  and  C_8 
REMARK    2  A    between atoms: N_13  and  C_7 
REMARK       I    between atoms: C_8  and  N_12 
REMARK    3  A    between atoms: N_12  and  N_13 
ROOT
ATOM      1  C   UNL d   1      50.594  34.002  52.958  0.00  0.00     0.297 C 
ATOM      2  N   UNL d   1      51.278  34.368  53.253  0.00  0.00    -0.104 NA
ATOM      3  O   UNL d   1      50.564  33.175  52.903  0.00  0.00    -0.264 OA
ENDROOT
BRANCH   2   4
ATOM      4  N   UNL d   1      51.921  33.916  53.489  0.00  0.00    -0.125 NA
BRANCH   4   5
ATOM      5  C   UNL d   1      52.546  34.267  53.898  0.00  0.00     0.190 A 
ATOM      6  C   UNL d   1      53.152  33.803  54.194  0.00  0.00     0.094 A 
ATOM      7  C   UNL d   1      53.777  34.153  54.603  0.00  0.00     0.170 A 
ATOM      8  C   UNL d   1      53.281  32.982  54.169  0.00  0.00     0.127 A 
ATOM      9  N   UNL d   1      54.298  33.549  54.833  0.00  0.00    -0.209 N 
ATOM     10  N   UNL d   1      53.793  34.966  54.714  0.00  0.00    -0.205 NA
ATOM     11  C   UNL d   1      55.004  33.656  55.259  0.00  0.00     0.123 C 
ATOM     12  N   UNL d   1      53.993  32.829  54.566  0.00  0.00    -0.162 NA
ATOM     13  C   UNL d   1      53.184  35.430  54.415  0.00  0.00     0.202 A 
ATOM     14  N   UNL d   1      52.556  35.077  54.004  0.00  0.00    -0.203 NA
ENDBRANCH   4   5
ENDBRANCH   2   4
BRANCH   1  15
ATOM     15  C   UNL d   1      49.947  34.455  52.721  0.00  0.00     0.070 A 
ATOM     16  C   UNL d   1      49.724  34.471  51.933  0.00  0.00     0.063 A 
ATOM     17  C   UNL d   1      49.079  34.922  51.692  0.00  0.00     0.023 A 
ATOM     18 CL   UNL d   1      50.156  34.030  51.379  0.00  0.00    -0.082 Cl
ATOM     19  C   UNL d   1      48.651  35.362  52.255  0.00  0.00     0.059 A 
ATOM     20  C   UNL d   1      48.878  35.344  53.054  0.00  0.00     0.012 A 
ATOM     21 CL   UNL d   1      47.999  35.818  52.017  0.00  0.00    -0.082 Cl
ATOM     22  C   UNL d   1      49.523  34.892  53.284  0.00  0.00     0.007 A 
ENDBRANCH   1  15
TORSDOF 3
ENDMDL
MODEL 4
REMARK VINA RESULT:      -6.8      2.006      2.849
REMARK  3 active torsions:
REMARK  status: ('A' for Active; 'I' for Inactive)
REMARK    1  A    between atoms: C_4  and  C_8 
REMARK    2  A    between atoms: N_13  and  C_7 
REMARK       I    between atoms: C_8  and  N_12 
REMARK    3  A    between atoms: N_12  and  N_13 
ROOT
ATOM      1  C   UNL d   1      52.873  32.430  52.880  0.00  0.00     0.297 C 
ATOM      2  N   UNL d   1      52.113  32.755  52.942  0.00  0.00    -0.104 NA
ATOM      3  O   UNL d   1      53.481  32.873  52.530  0.00  0.00    -0.264 OA
ENDROOT
BRANCH   2   4
ATOM      4  N   UNL d   1      51.961  33.512  52.660  0.00  0.00    -0.125 NA
BRANCH   4   5
ATOM      5  C   UNL d   1      51.250  33.887  52.844  0.00  0.00     0.190 A 
ATOM      6  C   UNL d   1      50.731  34.095  52.246  0.00  0.00     0.094 A 
ATOM      7  C   UNL d   1      50.020  34.471  52.430  0.00  0.00     0.170 A 
ATOM      8  C   UNL d   1      50.772  33.999  51.422  0.00  0.00     0.127 A 
ATOM      9  N   UNL d   1      49.616  34.609  51.718  0.00  0.00    -0.209 N 
ATOM     10  N   UNL d   1      49.832  34.637  53.212  0.00  0.00    -0.205 NA
ATOM     11  C   UNL d   1      48.874  34.977  51.647  0.00  0.00     0.123 C 
ATOM     12  N   UNL d   1      50.079  34.319  51.099  0.00  0.00    -0.162 NA
ATOM     13  C   UNL d   1      50.354  34.428  53.810  0.00  0.00     0.202 A 
ATOM     14  N   UNL d   1      51.069  34.050  53.624  0.00  0.00    -0.203 NA
ENDBRANCH   4   5
ENDBRANCH   2   4
BRANCH   1  15
ATOM     15  C   UNL d   1      53.028  31.671  53.163  0.00  0.00     0.070 A 
ATOM     16  C   UNL d   1      53.581  31.558  53.757  0.00  0.00     0.063 A 
ATOM     17  C   UNL d   1      53.737  30.802  54.041  0.00  0.00     0.023 A 
ATOM     18 CL   UNL d   1      53.982  32.214  54.068  0.00  0.00    -0.082 Cl
ATOM     19  C   UNL d   1      53.330  30.149  53.723  0.00  0.00     0.059 A 
ATOM     20  C   UNL d   1      52.769  30.265  53.120  0.00  0.00     0.012 A 
ATOM     21 CL   UNL d   1      53.484  29.384  54.007  0.00  0.00    -0.082 Cl
ATOM     22  C   UNL d   1      52.620  31.023  52.844  0.00  0.00     0.007 A 
ENDBRANCH   1  15
TORSDOF 3
ENDMDL
MODEL 5
REMARK VINA RESULT:      -6.7      2.600      4.982
REMARK  3 active torsions:
REMARK  status: ('A' for Active; 'I' for Inactive)
REMARK    1  A    between atoms: C_4  and  C_8 
REMARK    2  A    between atoms: N_13  and  C_7 
REMARK       I    between atoms: C_8  and  N_12 
REMARK    3  A    between atoms: N_12  and  N_13 
ROOT
ATOM      1  C   UNL d   1      51.389  33.953  52.334  0.00  0.00     0.297 C 
ATOM      2  N   UNL d   1      51.745  33.403  52.843  0.00  0.00    -0.104 NA
ATOM      3  O   UNL d   1      51.739  34.118  51.601  0.00  0.00    -0.264 OA
ENDROOT
BRANCH   2   4
ATOM      4  N   UNL d   1      52.439  33.023  52.623  0.00  0.00    -0.125 NA
BRANCH   4   5
ATOM      5  C   UNL d   1      52.871  32.596  53.181  0.00  0.00     0.190 A 
ATOM      6  C   UNL d   1      52.935  31.783  53.112  0.00  0.00     0.094 A 
ATOM      7  C   UNL d   1      53.368  31.354  53.669  0.00  0.00     0.170 A 
ATOM      8  C   UNL d   1      52.631  31.251  52.550  0.00  0.00     0.127 A 
ATOM      9  N   UNL d   1      53.332  30.553  53.454  0.00  0.00    -0.209 N 
ATOM     10  N   UNL d   1      53.734  31.742  54.293  0.00  0.00    -0.205 NA
ATOM     11  C   UNL d   1      53.693  29.927  53.865  0.00  0.00     0.123 C 
ATOM     12  N   UNL d   1      52.879  30.490  52.766  0.00  0.00    -0.162 NA
ATOM     13  C   UNL d   1      53.668  32.558  54.361  0.00  0.00     0.202 A 
ATOM     14  N   UNL d   1      53.234  32.987  53.800  0.00  0.00    -0.203 NA
ENDBRANCH   4   5
ENDBRANCH   2   4
BRANCH   1  15
ATOM     15  C   UNL d   1      50.692  34.336  52.553  0.00  0.00     0.070 A 
ATOM     16  C   UNL d   1      50.076  34.406  52.018  0.00  0.00     0.063 A 
ATOM     17  C   UNL d   1      49.380  34.786  52.233  0.00  0.00     0.023 A 
ATOM     18 CL   UNL d   1      50.162  34.089  51.257  0.00  0.00    -0.082 Cl
ATOM     19  C   UNL d   1      49.302  35.102  53.000  0.00  0.00     0.059 A 
ATOM     20  C   UNL d   1      49.928  35.030  53.543  0.00  0.00     0.012 A 
ATOM     21 CL   UNL d   1      48.600  35.487  53.222  0.00  0.00    -0.082 Cl
ATOM     22  C   UNL d   1      50.618  34.648  53.318  0.00  0.00     0.007 A 
ENDBRANCH   1  15
TORSDOF 3
ENDMDL
MODEL 6
REMARK VINA RESULT:      -6.6      4.050      5.562
REMARK  3 active torsions:
REMARK  status: ('A' for Active; 'I' for Inactive)
REMARK    1  A    between atoms: C_4  and  C_8 
REMARK    2  A    between atoms: N_13  and  C_7 
REMARK       I    between atoms: C_8  and  N_12 
REMARK    3  A    between atoms: N_12  and  N_13 
ROOT
ATOM      1  C   UNL d   1      53.822  33.040  53.551  0.00  0.00     0.297 C 
ATOM      2  N   UNL d   1      53.321  32.378  53.555  0.00  0.00    -0.104 NA
ATOM      3  O   UNL d   1      54.597  32.964  53.266  0.00  0.00    -0.264 OA
ENDROOT
BRANCH   2   4
ATOM      4  N   UNL d   1      53.590  31.653  53.278  0.00  0.00    -0.125 NA
BRANCH   4   5
ATOM      5  C   UNL d   1      53.111  30.984  53.339  0.00  0.00     0.190 A 
ATOM      6  C   UNL d   1      53.397  30.308  53.701  0.00  0.00     0.094 A 
ATOM      7  C   UNL d   1      52.919  29.639  53.762  0.00  0.00     0.170 A 
ATOM      8  C   UNL d   1      54.131  30.139  54.051  0.00  0.00     0.127 A 
ATOM      9  N   UNL d   1      53.356  29.050  54.151  0.00  0.00    -0.209 N 
ATOM     10  N   UNL d   1      52.155  29.649  53.459  0.00  0.00    -0.205 NA
ATOM     11  C   UNL d   1      53.085  28.285  54.328  0.00  0.00     0.123 C 
ATOM     12  N   UNL d   1      54.101  29.358  54.328  0.00  0.00    -0.162 NA
ATOM     13  C   UNL d   1      51.870  30.328  53.096  0.00  0.00     0.202 A 
ATOM     14  N   UNL d   1      52.352  31.001  53.036  0.00  0.00    -0.203 NA
ENDBRANCH   4   5
ENDBRANCH   2   4
BRANCH   1  15
ATOM     15  C   UNL d   1      53.554  33.769  53.828  0.00  0.00     0.070 A 
ATOM     16  C   UNL d   1      53.792  34.041  54.563  0.00  0.00     0.063 A 
ATOM     17  C   UNL d   1      53.527  34.768  54.842  0.00  0.00     0.023 A 
ATOM     18 CL   UNL d   1      54.303  33.578  55.022  0.00  0.00    -0.082 Cl
ATOM     19  C   UNL d   1      53.014  35.228  54.373  0.00  0.00     0.059 A 
ATOM     20  C   UNL d   1      52.774  34.950  53.627  0.00  0.00     0.012 A 
ATOM     21 CL   UNL d   1      52.743  35.963  54.651  0.00  0.00    -0.082 Cl
ATOM     22  C   UNL d   1      53.044  34.224  53.359  0.00  0.00     0.007 A 
ENDBRANCH   1  15
TORSDOF 3
ENDMDL
MODEL 7
REMARK VINA RESULT:      -5.7      1.642      2.644
REMARK  3 active torsions:
REMARK  status: ('A' for Active; 'I' for Inactive)
REMARK    1  A    between atoms: C_4  and  C_8 
REMARK    2  A    between atoms: N_13  and  C_7 
REMARK       I    between atoms: C_8  and  N_12 
REMARK    3  A    between atoms: N_12  and  N_13 
ROOT
ATOM      1  C   UNL d   1      52.974  32.977  54.009  0.00  0.00     0.297 C 
ATOM      2  N   UNL d   1      52.492  33.502  53.583  0.00  0.00    -0.104 NA
ATOM      3  O   UNL d   1      52.725  32.194  54.122  0.00  0.00    -0.264 OA
ENDROOT
BRANCH   2   4
ATOM      4  N   UNL d   1      51.774  33.250  53.276  0.00  0.00    -0.125 NA
BRANCH   4   5
ATOM      5  C   UNL d   1      51.392  33.697  52.696  0.00  0.00     0.190 A 
ATOM      6  C   UNL d   1      50.656  34.021  52.850  0.00  0.00     0.094 A 
ATOM      7  C   UNL d   1      50.274  34.468  52.272  0.00  0.00     0.170 A 
ATOM      8  C   UNL d   1      50.171  33.993  53.524  0.00  0.00     0.127 A 
ATOM      9  N   UNL d   1      49.548  34.719  52.586  0.00  0.00    -0.209 N 
ATOM     10  N   UNL d   1      50.629  34.588  51.542  0.00  0.00    -0.205 NA
ATOM     11  C   UNL d   1      48.985  35.184  52.189  0.00  0.00     0.123 C 
ATOM     12  N   UNL d   1      49.485  34.427  53.356  0.00  0.00    -0.162 NA
ATOM     13  C   UNL d   1      51.367  34.262  51.390  0.00  0.00     0.202 A 
ATOM     14  N   UNL d   1      51.751  33.813  51.972  0.00  0.00    -0.203 NA
ENDBRANCH   4   5
ENDBRANCH   2   4
BRANCH   1  15
ATOM     15  C   UNL d   1      53.695  33.229  54.318  0.00  0.00     0.070 A 
ATOM     16  C   UNL d   1      54.396  32.909  54.038  0.00  0.00     0.063 A 
ATOM     17  C   UNL d   1      55.118  33.158  54.345  0.00  0.00     0.023 A 
ATOM     18 CL   UNL d   1      54.370  32.332  53.443  0.00  0.00    -0.082 Cl
ATOM     19  C   UNL d   1      55.135  33.737  54.943  0.00  0.00     0.059 A 
ATOM     20  C   UNL d   1      54.422  34.060  55.226  0.00  0.00     0.012 A 
ATOM     21 CL   UNL d   1      55.861  33.991  55.255  0.00  0.00    -0.082 Cl
ATOM     22  C   UNL d   1      53.708  33.806  54.913  0.00  0.00     0.007 A 
ENDBRANCH   1  15
TORSDOF 3
ENDMDL
MODEL 8
REMARK VINA RESULT:      -5.7      9.545     10.059
REMARK  3 active torsions:
REMARK  status: ('A' for Active; 'I' for Inactive)
REMARK    1  A    between atoms: C_4  and  C_8 
REMARK    2  A    between atoms: N_13  and  C_7 
REMARK       I    between atoms: C_8  and  N_12 
REMARK    3  A    between atoms: N_12  and  N_13 
ROOT
ATOM      1  C   UNL d   1      45.279  27.314  57.653  0.00  0.00     0.297 C 
ATOM      2  N   UNL d   1      44.902  27.989  57.351  0.00  0.00    -0.104 NA
ATOM      3  O   UNL d   1      45.902  27.400  58.193  0.00  0.00    -0.264 OA
ENDROOT
BRANCH   2   4
ATOM      4  N   UNL d   1      45.144  28.738  57.585  0.00  0.00    -0.125 NA
BRANCH   4   5
ATOM      5  C   UNL d   1      44.880  29.404  57.176  0.00  0.00     0.190 A 
ATOM      6  C   UNL d   1      44.816  30.122  57.564  0.00  0.00     0.094 A 
ATOM      7  C   UNL d   1      44.551  30.789  57.156  0.00  0.00     0.170 A 
ATOM      8  C   UNL d   1      44.973  30.340  58.350  0.00  0.00     0.127 A 
ATOM      9  N   UNL d   1      44.545  31.425  57.690  0.00  0.00    -0.209 N 
ATOM     10  N   UNL d   1      44.353  30.734  56.361  0.00  0.00    -0.205 NA
ATOM     11  C   UNL d   1      44.315  32.203  57.510  0.00  0.00     0.123 C 
ATOM     12  N   UNL d   1      44.804  31.149  58.424  0.00  0.00    -0.162 NA
ATOM     13  C   UNL d   1      44.419  30.013  55.974  0.00  0.00     0.202 A 
ATOM     14  N   UNL d   1      44.684  29.343  56.385  0.00  0.00    -0.203 NA
ENDBRANCH   4   5
ENDBRANCH   2   4
BRANCH   1  15
ATOM     15  C   UNL d   1      45.037  26.561  57.420  0.00  0.00     0.070 A 
ATOM     16  C   UNL d   1      44.680  26.058  57.960  0.00  0.00     0.063 A 
ATOM     17  C   UNL d   1      44.438  25.306  57.731  0.00  0.00     0.023 A 
ATOM     18 CL   UNL d   1      44.565  26.316  58.740  0.00  0.00    -0.082 Cl
ATOM     19  C   UNL d   1      44.557  25.056  56.945  0.00  0.00     0.059 A 
ATOM     20  C   UNL d   1      44.919  25.567  56.398  0.00  0.00     0.012 A 
ATOM     21 CL   UNL d   1      44.314  24.298  56.709  0.00  0.00    -0.082 Cl
ATOM     22  C   UNL d   1      45.157  26.315  56.637  0.00  0.00     0.007 A 
ENDBRANCH   1  15
TORSDOF 3
ENDMDL
MODEL 9
REMARK VINA RESULT:      -5.6      9.718     10.404
REMARK  3 active torsions:
REMARK  status: ('A' for Active; 'I' for Inactive)
REMARK    1  A    between atoms: C_4  and  C_8 
REMARK    2  A    between atoms: N_13  and  C_7 
REMARK       I    between atoms: C_8  and  N_12 
REMARK    3  A    between atoms: N_12  and  N_13 
ROOT
ATOM      1  C   UNL d   1      45.102  29.662  58.152  0.00  0.00     0.297 C 
ATOM      2  N   UNL d   1      44.969  28.918  57.810  0.00  0.00    -0.104 NA
ATOM      3  O   UNL d   1      45.435  29.711  58.910  0.00  0.00    -0.264 OA
ENDROOT
BRANCH   2   4
ATOM      4  N   UNL d   1      45.166  28.233  58.219  0.00  0.00    -0.125 NA
BRANCH   4   5
ATOM      5  C   UNL d   1      45.073  27.496  57.859  0.00  0.00     0.190 A 
ATOM      6  C   UNL d   1      44.893  26.840  58.314  0.00  0.00     0.094 A 
ATOM      7  C   UNL d   1      44.800  26.103  57.955  0.00  0.00     0.170 A 
ATOM      8  C   UNL d   1      44.772  26.752  59.131  0.00  0.00     0.127 A 
ATOM      9  N   UNL d   1      44.621  25.553  58.551  0.00  0.00    -0.209 N 
ATOM     10  N   UNL d   1      44.888  26.026  57.143  0.00  0.00    -0.205 NA
ATOM     11  C   UNL d   1      44.484  24.742  58.434  0.00  0.00     0.123 C 
ATOM     12  N   UNL d   1      44.604  25.953  59.274  0.00  0.00    -0.162 NA
ATOM     13  C   UNL d   1      45.070  26.685  56.689  0.00  0.00     0.202 A 
ATOM     14  N   UNL d   1      45.163  27.426  57.050  0.00  0.00    -0.203 NA
ENDBRANCH   4   5
ENDBRANCH   2   4
BRANCH   1  15
ATOM     15  C   UNL d   1      44.905  30.351  57.744  0.00  0.00     0.070 A 
ATOM     16  C   UNL d   1      44.754  31.043  58.156  0.00  0.00     0.063 A 
ATOM     17  C   UNL d   1      44.557  31.732  57.751  0.00  0.00     0.023 A 
ATOM     18 CL   UNL d   1      44.801  31.042  58.983  0.00  0.00    -0.082 Cl
ATOM     19  C   UNL d   1      44.512  31.724  56.919  0.00  0.00     0.059 A 
ATOM     20  C   UNL d   1      44.666  31.021  56.504  0.00  0.00     0.012 A 
ATOM     21 CL   UNL d   1      44.314  32.417  56.507  0.00  0.00    -0.082 Cl
ATOM     22  C   UNL d   1      44.861  30.339  56.916  0.00  0.00     0.007 A 
ENDBRANCH   1  15
TORSDOF 3
ENDMDL
