MODEL 1
REMARK VINA RESULT:       5.2      0.000      0.000
REMARK  1 active torsions:
REMARK  status: ('A' for Active; 'I' for Inactive)
REMARK    1  A    between atoms: C_9  and  C_3 
ROOT
ATOM      1  N   UNL d   1      14.381  11.949  -3.000  0.00  0.00    -0.145 NA
ATOM      2  N   UNL d   1      14.122  11.968  -3.781  0.00  0.00    -0.106 NA
ATOM      3  C   UNL d   1      13.834  11.858  -2.385  0.00  0.00     0.103 A 
ATOM      4  C   UNL d   1      13.318  11.897  -3.952  0.00  0.00     0.297 A 
ATOM      5  C   UNL d   1      13.028  11.786  -2.549  0.00  0.00     0.026 A 
ATOM      6  C   UNL d   1      12.772  11.806  -3.339  0.00  0.00     0.066 A 
ATOM      7  O   UNL d   1      13.060  11.916  -4.734  0.00  0.00    -0.264 OA
ENDROOT
BRANCH   3   8
ATOM      8  C   UNL d   1      14.092  11.839  -1.603  0.00  0.00     0.022 A 
ATOM      9  C   UNL d   1      13.541  11.802  -0.984  0.00  0.00     0.022 A 
ATOM     10  C   UNL d   1      13.800  11.782  -0.202  0.00  0.00     0.099 A 
ATOM     11  N   UNL d   1      14.607  11.800  -0.032  0.00  0.00    -0.242 NA
ATOM     12  C   UNL d   1      15.158  11.838  -0.657  0.00  0.00     0.099 A 
ATOM     13  C   UNL d   1      14.900  11.857  -1.439  0.00  0.00     0.022 A 
ENDBRANCH   3   8
TORSDOF 1
ENDMDL
MODEL 2
REMARK VINA RESULT:       7.4      0.649      1.022
REMARK  1 active torsions:
REMARK  status: ('A' for Active; 'I' for Inactive)
REMARK    1  A    between atoms: C_9  and  C_3 
ROOT
ATOM      1  N   UNL d   1      14.034  13.031  -2.679  0.00  0.00    -0.145 NA
ATOM      2  N   UNL d   1      13.746  13.210  -3.429  0.00  0.00    -0.106 NA
ATOM      3  C   UNL d   1      13.822  12.319  -2.314  0.00  0.00     0.103 A 
ATOM      4  C   UNL d   1      13.247  12.680  -3.818  0.00  0.00     0.297 A 
ATOM      5  C   UNL d   1      13.323  11.785  -2.696  0.00  0.00     0.026 A 
ATOM      6  C   UNL d   1      13.036  11.970  -3.453  0.00  0.00     0.066 A 
ATOM      7  O   UNL d   1      12.960  12.860  -4.568  0.00  0.00    -0.264 OA
ENDROOT
BRANCH   3   8
ATOM      8  C   UNL d   1      14.110  12.140  -1.563  0.00  0.00     0.022 A 
ATOM      9  C   UNL d   1      14.915  11.966  -1.456  0.00  0.00     0.022 A 
ATOM     10  C   UNL d   1      15.203  11.787  -0.705  0.00  0.00     0.099 A 
ATOM     11  N   UNL d   1      14.692  11.780  -0.058  0.00  0.00    -0.242 NA
ATOM     12  C   UNL d   1      13.884  11.956  -0.168  0.00  0.00     0.099 A 
ATOM     13  C   UNL d   1      13.596  12.135  -0.918  0.00  0.00     0.022 A 
ENDBRANCH   3   8
TORSDOF 1
ENDMDL
