MODEL 1
REMARK VINA RESULT:      -6.4      0.000      0.000
REMARK  6 active torsions:
REMARK  status: ('A' for Active; 'I' for Inactive)
REMARK    1  A    between atoms: C_8  and  C_6 
REMARK    2  A    between atoms: C_9  and  C_8 
REMARK       I    between atoms: N_11  and  C_9 
REMARK    3  A    between atoms: C_10  and  C_12 
REMARK    4  A    between atoms: O_20  and  C_10 
REMARK    5  A    between atoms: C_19  and  N_11 
REMARK    6  A    between atoms: C_29  and  O_20 
ROOT
ATOM      1  N   UNL d   1     -49.157  12.684  21.466  0.00  0.00    -0.207 NA
ATOM      2  N   UNL d   1     -48.324  13.689  22.518  0.00  0.00    -0.240 NA
ATOM      3  C   UNL d   1     -48.425  12.624  21.814  0.00  0.00     0.297 A 
ATOM      4  C   UNL d   1     -49.726  13.278  21.530  0.00  0.00     0.086 A 
ATOM      5  C   UNL d   1     -49.006  14.136  22.434  0.00  0.00     0.083 A 
ATOM      6  C   UNL d   1     -48.145  12.966  22.170  0.00  0.00     0.144 A 
ATOM      7  C   UNL d   1     -49.683  13.979  21.982  0.00  0.00     0.035 A 
ATOM      8  O   UNL d   1     -47.998  11.947  21.624  0.00  0.00    -0.264 OA
ATOM      9  C   UNL d   1     -50.318  14.507  21.971  0.00  0.00     0.003 A 
ATOM     10  C   UNL d   1     -48.964  14.830  22.880  0.00  0.00     0.019 A 
ATOM     11  C   UNL d   1     -50.400  13.117  21.078  0.00  0.00     0.019 A 
ATOM     12  C   UNL d   1     -49.604  15.370  22.875  0.00  0.00     0.002 A 
ATOM     13  C   UNL d   1     -51.032  13.651  21.073  0.00  0.00     0.002 A 
ATOM     14  C   UNL d   1     -50.275  15.208  22.423  0.00  0.00     0.000 A 
ATOM     15  C   UNL d   1     -50.989  14.344  21.519  0.00  0.00     0.000 A 
ENDROOT
BRANCH   6  16
ATOM     16  C   UNL d   1     -47.403  12.677  22.383  0.00  0.00     0.086 C 
BRANCH  16  17
ATOM     17  C   UNL d   1     -47.256  12.475  23.177  0.00  0.00     0.281 C 
ATOM     18  N   UNL d   1     -46.477  12.407  23.448  0.00  0.00    -0.208 NA
ATOM     19  O   UNL d   1     -47.885  12.342  23.698  0.00  0.00    -0.265 OA
BRANCH  18  20
ATOM     20  C   UNL d   1     -45.844  12.539  22.932  0.00  0.00     0.085 A 
ATOM     21  C   UNL d   1     -45.686  13.301  22.670  0.00  0.00     0.019 A 
ATOM     22  C   UNL d   1     -45.059  13.439  22.156  0.00  0.00     0.007 A 
ATOM     23  C   UNL d   1     -44.585  12.805  21.903  0.00  0.00     0.064 A 
ATOM     24  C   UNL d   1     -44.747  12.041  22.168  0.00  0.00     0.007 A 
ATOM     25  C   UNL d   1     -45.377  11.907  22.683  0.00  0.00     0.019 A 
BRANCH  23  26
ATOM     26  C   UNL d   1     -43.967  12.936  21.398  0.00  0.00     0.300 C 
ATOM     27  O   UNL d   1     -43.997  12.660  20.630  0.00  0.00    -0.259 OA
BRANCH  26  28
ATOM     28  O   UNL d   1     -43.311  13.344  21.651  0.00  0.00    -0.271 OA
BRANCH  28  29
ATOM     29  C   UNL d   1     -42.650  13.387  21.179  0.00  0.00     0.126 C 
ATOM     30  C   UNL d   1     -42.046  13.897  21.369  0.00  0.00     0.029 C 
ENDBRANCH  28  29
ENDBRANCH  26  28
ENDBRANCH  23  26
ENDBRANCH  18  20
ENDBRANCH  16  17
ENDBRANCH   6  16
TORSDOF 6
ENDMDL
MODEL 2
REMARK VINA RESULT:      -5.7      0.828      1.185
REMARK  6 active torsions:
REMARK  status: ('A' for Active; 'I' for Inactive)
REMARK    1  A    between atoms: C_8  and  C_6 
REMARK    2  A    between atoms: C_9  and  C_8 
REMARK       I    between atoms: N_11  and  C_9 
REMARK    3  A    between atoms: C_10  and  C_12 
REMARK    4  A    between atoms: O_20  and  C_10 
REMARK    5  A    between atoms: C_19  and  N_11 
REMARK    6  A    between atoms: C_29  and  O_20 
ROOT
ATOM      1  N   UNL d   1     -49.505  12.882  21.452  0.00  0.00    -0.207 NA
ATOM      2  N   UNL d   1     -48.797  13.372  22.892  0.00  0.00    -0.240 NA
ATOM      3  C   UNL d   1     -48.893  12.576  21.891  0.00  0.00     0.297 A 
ATOM      4  C   UNL d   1     -49.975  13.546  21.590  0.00  0.00     0.086 A 
ATOM      5  C   UNL d   1     -49.363  13.961  22.825  0.00  0.00     0.083 A 
ATOM      6  C   UNL d   1     -48.655  12.745  22.379  0.00  0.00     0.144 A 
ATOM      7  C   UNL d   1     -49.931  14.077  22.233  0.00  0.00     0.035 A 
ATOM      8  O   UNL d   1     -48.543  11.898  21.585  0.00  0.00    -0.264 OA
ATOM      9  C   UNL d   1     -50.457  14.713  22.268  0.00  0.00     0.003 A 
ATOM     10  C   UNL d   1     -49.320  14.487  23.460  0.00  0.00     0.019 A 
ATOM     11  C   UNL d   1     -50.541  13.659  20.998  0.00  0.00     0.019 A 
ATOM     12  C   UNL d   1     -49.851  15.135  23.504  0.00  0.00     0.002 A 
ATOM     13  C   UNL d   1     -51.064  14.299  21.041  0.00  0.00     0.002 A 
ATOM     14  C   UNL d   1     -50.414  15.245  22.911  0.00  0.00     0.000 A 
ATOM     15  C   UNL d   1     -51.021  14.824  21.676  0.00  0.00     0.000 A 
ENDROOT
BRANCH   6  16
ATOM     16  C   UNL d   1     -48.037  12.257  22.623  0.00  0.00     0.086 C 
BRANCH  16  17
ATOM     17  C   UNL d   1     -48.132  11.789  23.306  0.00  0.00     0.281 C 
ATOM     18  N   UNL d   1     -47.467  11.487  23.695  0.00  0.00    -0.208 NA
ATOM     19  O   UNL d   1     -48.888  11.625  23.598  0.00  0.00    -0.265 OA
BRANCH  18  20
ATOM     20  C   UNL d   1     -46.708  11.649  23.407  0.00  0.00     0.085 A 
ATOM     21  C   UNL d   1     -46.217  11.028  23.188  0.00  0.00     0.019 A 
ATOM     22  C   UNL d   1     -45.461  11.181  22.901  0.00  0.00     0.007 A 
ATOM     23  C   UNL d   1     -45.197  11.965  22.833  0.00  0.00     0.064 A 
ATOM     24  C   UNL d   1     -45.693  12.586  23.054  0.00  0.00     0.007 A 
ATOM     25  C   UNL d   1     -46.450  12.428  23.341  0.00  0.00     0.019 A 
BRANCH  23  26
ATOM     26  C   UNL d   1     -44.454  12.121  22.552  0.00  0.00     0.300 C 
ATOM     27  O   UNL d   1     -43.830  11.629  22.742  0.00  0.00    -0.259 OA
BRANCH  26  28
ATOM     28  O   UNL d   1     -44.324  12.767  22.076  0.00  0.00    -0.271 OA
BRANCH  28  29
ATOM     29  C   UNL d   1     -43.629  12.833  21.658  0.00  0.00     0.126 C 
ATOM     30  C   UNL d   1     -43.505  13.472  21.172  0.00  0.00     0.029 C 
ENDBRANCH  28  29
ENDBRANCH  26  28
ENDBRANCH  23  26
ENDBRANCH  18  20
ENDBRANCH  16  17
ENDBRANCH   6  16
TORSDOF 6
ENDMDL
MODEL 3
REMARK VINA RESULT:      -5.5      4.552      8.992
REMARK  6 active torsions:
REMARK  status: ('A' for Active; 'I' for Inactive)
REMARK    1  A    between atoms: C_8  and  C_6 
REMARK    2  A    between atoms: C_9  and  C_8 
REMARK       I    between atoms: N_11  and  C_9 
REMARK    3  A    between atoms: C_10  and  C_12 
REMARK    4  A    between atoms: O_20  and  C_10 
REMARK    5  A    between atoms: C_19  and  N_11 
REMARK    6  A    between atoms: C_29  and  O_20 
ROOT
ATOM      1  N   UNL d   1     -39.825  15.186  17.541  0.00  0.00    -0.207 NA
ATOM      2  N   UNL d   1     -39.486  14.020  18.699  0.00  0.00    -0.240 NA
ATOM      3  C   UNL d   1     -40.098  15.073  18.299  0.00  0.00     0.297 A 
ATOM      4  C   UNL d   1     -39.283  14.744  17.103  0.00  0.00     0.086 A 
ATOM      5  C   UNL d   1     -38.996  13.747  18.101  0.00  0.00     0.083 A 
ATOM      6  C   UNL d   1     -39.981  14.676  18.689  0.00  0.00     0.144 A 
ATOM      7  C   UNL d   1     -38.873  14.057  17.342  0.00  0.00     0.035 A 
ATOM      8  O   UNL d   1     -40.644  15.627  18.565  0.00  0.00    -0.264 OA
ATOM      9  C   UNL d   1     -38.350  13.695  16.815  0.00  0.00     0.003 A 
ATOM     10  C   UNL d   1     -38.591  13.067  18.336  0.00  0.00     0.019 A 
ATOM     11  C   UNL d   1     -39.163  15.056  16.347  0.00  0.00     0.019 A 
ATOM     12  C   UNL d   1     -38.058  12.694  17.807  0.00  0.00     0.002 A 
ATOM     13  C   UNL d   1     -38.636  14.688  15.826  0.00  0.00     0.002 A 
ATOM     14  C   UNL d   1     -37.940  13.008  17.053  0.00  0.00     0.000 A 
ATOM     15  C   UNL d   1     -38.232  14.009  16.061  0.00  0.00     0.000 A 
ENDROOT
BRANCH   6  16
ATOM     16  C   UNL d   1     -40.395  14.783  19.394  0.00  0.00     0.086 C 
BRANCH  16  17
ATOM     17  C   UNL d   1     -39.986  15.040  20.073  0.00  0.00     0.281 C 
ATOM     18  N   UNL d   1     -40.285  14.867  20.825  0.00  0.00    -0.208 NA
ATOM     19  O   UNL d   1     -39.281  15.467  20.000  0.00  0.00    -0.265 OA
BRANCH  18  20
ATOM     20  C   UNL d   1     -40.989  14.440  20.904  0.00  0.00     0.085 A 
ATOM     21  C   UNL d   1     -40.961  13.623  20.985  0.00  0.00     0.019 A 
ATOM     22  C   UNL d   1     -41.658  13.193  21.064  0.00  0.00     0.007 A 
ATOM     23  C   UNL d   1     -42.389  13.586  21.061  0.00  0.00     0.064 A 
ATOM     24  C   UNL d   1     -42.413  14.407  20.979  0.00  0.00     0.007 A 
ATOM     25  C   UNL d   1     -41.712  14.834  20.901  0.00  0.00     0.019 A 
BRANCH  23  26
ATOM     26  C   UNL d   1     -43.077  13.167  21.138  0.00  0.00     0.300 C 
ATOM     27  O   UNL d   1     -43.194  12.484  20.705  0.00  0.00    -0.259 OA
BRANCH  26  28
ATOM     28  O   UNL d   1     -43.657  13.422  21.648  0.00  0.00    -0.271 OA
BRANCH  28  29
ATOM     29  C   UNL d   1     -44.308  12.956  21.792  0.00  0.00     0.126 C 
ATOM     30  C   UNL d   1     -44.959  13.268  22.165  0.00  0.00     0.029 C 
ENDBRANCH  28  29
ENDBRANCH  26  28
ENDBRANCH  23  26
ENDBRANCH  18  20
ENDBRANCH  16  17
ENDBRANCH   6  16
TORSDOF 6
ENDMDL
MODEL 4
REMARK VINA RESULT:      -5.2      0.956      1.862
REMARK  6 active torsions:
REMARK  status: ('A' for Active; 'I' for Inactive)
REMARK    1  A    between atoms: C_8  and  C_6 
REMARK    2  A    between atoms: C_9  and  C_8 
REMARK       I    between atoms: N_11  and  C_9 
REMARK    3  A    between atoms: C_10  and  C_12 
REMARK    4  A    between atoms: O_20  and  C_10 
REMARK    5  A    between atoms: C_19  and  N_11 
REMARK    6  A    between atoms: C_29  and  O_20 
ROOT
ATOM      1  N   UNL d   1     -47.504  14.524  23.071  0.00  0.00    -0.207 NA
ATOM      2  N   UNL d   1     -47.386  13.092  22.204  0.00  0.00    -0.240 NA
ATOM      3  C   UNL d   1     -46.902  13.983  22.988  0.00  0.00     0.297 A 
ATOM      4  C   UNL d   1     -48.261  14.527  22.741  0.00  0.00     0.086 A 
ATOM      5  C   UNL d   1     -48.153  13.298  22.000  0.00  0.00     0.083 A 
ATOM      6  C   UNL d   1     -46.865  13.499  22.693  0.00  0.00     0.144 A 
ATOM      7  C   UNL d   1     -48.597  13.960  22.230  0.00  0.00     0.035 A 
ATOM      8  O   UNL d   1     -46.212  14.156  23.401  0.00  0.00    -0.264 OA
ATOM      9  C   UNL d   1     -49.370  14.067  21.959  0.00  0.00     0.003 A 
ATOM     10  C   UNL d   1     -48.486  12.737  21.494  0.00  0.00     0.019 A 
ATOM     11  C   UNL d   1     -48.700  15.188  22.973  0.00  0.00     0.019 A 
ATOM     12  C   UNL d   1     -49.270  12.839  21.215  0.00  0.00     0.002 A 
ATOM     13  C   UNL d   1     -49.474  15.288  22.697  0.00  0.00     0.002 A 
ATOM     14  C   UNL d   1     -49.707  13.499  21.448  0.00  0.00     0.000 A 
ATOM     15  C   UNL d   1     -49.806  14.727  22.192  0.00  0.00     0.000 A 
ENDROOT
BRANCH   6  16
ATOM     16  C   UNL d   1     -46.134  13.125  22.774  0.00  0.00     0.086 C 
BRANCH  16  17
ATOM     17  C   UNL d   1     -46.098  12.371  23.126  0.00  0.00     0.281 C 
ATOM     18  N   UNL d   1     -45.438  11.889  23.002  0.00  0.00    -0.208 NA
ATOM     19  O   UNL d   1     -46.720  12.102  23.601  0.00  0.00    -0.265 OA
BRANCH  18  20
ATOM     20  C   UNL d   1     -44.814  12.154  22.528  0.00  0.00     0.085 A 
ATOM     21  C   UNL d   1     -44.042  11.953  22.725  0.00  0.00     0.019 A 
ATOM     22  C   UNL d   1     -43.416  12.214  22.258  0.00  0.00     0.007 A 
ATOM     23  C   UNL d   1     -43.567  12.679  21.587  0.00  0.00     0.064 A 
ATOM     24  C   UNL d   1     -44.344  12.877  21.392  0.00  0.00     0.007 A 
ATOM     25  C   UNL d   1     -44.968  12.615  21.863  0.00  0.00     0.019 A 
BRANCH  23  26
ATOM     26  C   UNL d   1     -42.955  12.936  21.125  0.00  0.00     0.300 C 
ATOM     27  O   UNL d   1     -42.825  12.604  20.391  0.00  0.00    -0.259 OA
BRANCH  26  28
ATOM     28  O   UNL d   1     -42.464  13.528  21.389  0.00  0.00    -0.271 OA
BRANCH  28  29
ATOM     29  C   UNL d   1     -41.802  13.730  20.962  0.00  0.00     0.126 C 
ATOM     30  C   UNL d   1     -41.401  14.416  21.132  0.00  0.00     0.029 C 
ENDBRANCH  28  29
ENDBRANCH  26  28
ENDBRANCH  23  26
ENDBRANCH  18  20
ENDBRANCH  16  17
ENDBRANCH   6  16
TORSDOF 6
ENDMDL
MODEL 5
REMARK VINA RESULT:      -4.7      1.538      2.089
REMARK  6 active torsions:
REMARK  status: ('A' for Active; 'I' for Inactive)
REMARK    1  A    between atoms: C_8  and  C_6 
REMARK    2  A    between atoms: C_9  and  C_8 
REMARK       I    between atoms: N_11  and  C_9 
REMARK    3  A    between atoms: C_10  and  C_12 
REMARK    4  A    between atoms: O_20  and  C_10 
REMARK    5  A    between atoms: C_19  and  N_11 
REMARK    6  A    between atoms: C_29  and  O_20 
ROOT
ATOM      1  N   UNL d   1     -48.879  13.276  21.164  0.00  0.00    -0.207 NA
ATOM      2  N   UNL d   1     -48.249  12.753  22.628  0.00  0.00    -0.240 NA
ATOM      3  C   UNL d   1     -48.130  13.310  21.480  0.00  0.00     0.297 A 
ATOM      4  C   UNL d   1     -49.573  12.963  21.482  0.00  0.00     0.086 A 
ATOM      5  C   UNL d   1     -49.026  12.516  22.736  0.00  0.00     0.083 A 
ATOM      6  C   UNL d   1     -47.920  13.132  21.977  0.00  0.00     0.144 A 
ATOM      7  C   UNL d   1     -49.674  12.597  22.225  0.00  0.00     0.035 A 
ATOM      8  O   UNL d   1     -47.562  13.666  21.004  0.00  0.00    -0.264 OA
ATOM      9  C   UNL d   1     -50.421  12.318  22.440  0.00  0.00     0.003 A 
ATOM     10  C   UNL d   1     -49.127  12.154  23.471  0.00  0.00     0.019 A 
ATOM     11  C   UNL d   1     -50.217  13.045  20.970  0.00  0.00     0.019 A 
ATOM     12  C   UNL d   1     -49.882  11.868  23.697  0.00  0.00     0.002 A 
ATOM     13  C   UNL d   1     -50.962  12.763  21.193  0.00  0.00     0.002 A 
ATOM     14  C   UNL d   1     -50.523  11.951  23.184  0.00  0.00     0.000 A 
ATOM     15  C   UNL d   1     -51.062  12.401  21.927  0.00  0.00     0.000 A 
ENDROOT
BRANCH   6  16
ATOM     16  C   UNL d   1     -47.114  13.286  22.062  0.00  0.00     0.086 C 
BRANCH  16  17
ATOM     17  C   UNL d   1     -46.870  14.011  22.392  0.00  0.00     0.281 C 
ATOM     18  N   UNL d   1     -46.112  14.083  22.716  0.00  0.00    -0.208 NA
ATOM     19  O   UNL d   1     -47.382  14.660  22.399  0.00  0.00    -0.265 OA
BRANCH  18  20
ATOM     20  C   UNL d   1     -45.596  13.436  22.712  0.00  0.00     0.085 A 
ATOM     21  C   UNL d   1     -45.039  13.365  22.112  0.00  0.00     0.019 A 
ATOM     22  C   UNL d   1     -44.523  12.724  22.102  0.00  0.00     0.007 A 
ATOM     23  C   UNL d   1     -44.567  12.150  22.700  0.00  0.00     0.064 A 
ATOM     24  C   UNL d   1     -45.127  12.224  23.300  0.00  0.00     0.007 A 
ATOM     25  C   UNL d   1     -45.643  12.868  23.306  0.00  0.00     0.019 A 
BRANCH  23  26
ATOM     26  C   UNL d   1     -44.061  11.518  22.694  0.00  0.00     0.300 C 
ATOM     27  O   UNL d   1     -43.374  11.545  22.253  0.00  0.00    -0.259 OA
BRANCH  26  28
ATOM     28  O   UNL d   1     -44.233  10.852  23.126  0.00  0.00    -0.271 OA
BRANCH  28  29
ATOM     29  C   UNL d   1     -43.633  10.372  23.394  0.00  0.00     0.126 C 
ATOM     30  C   UNL d   1     -43.725   9.565  23.395  0.00  0.00     0.029 C 
ENDBRANCH  28  29
ENDBRANCH  26  28
ENDBRANCH  23  26
ENDBRANCH  18  20
ENDBRANCH  16  17
ENDBRANCH   6  16
TORSDOF 6
ENDMDL
