MODEL 1
REMARK VINA RESULT:     -11.4      0.000      0.000
REMARK  4 active torsions:
REMARK  status: ('A' for Active; 'I' for Inactive)
REMARK    1  A    between atoms: N_7  and  C_1 
REMARK    2  A    between atoms: C_11  and  C_2 
REMARK    3  A    between atoms: N_6  and  C_12 
REMARK       I    between atoms: C_8  and  N_7 
REMARK    4  A    between atoms: C_14  and  C_8 
REMARK       I    between atoms: N_26  and  C_11 
ROOT
ATOM      1  N   UNL d   1      51.524  33.309  53.361  0.00  0.00    -0.201 NA
ATOM      2  C   UNL d   1      51.556  34.065  52.694  0.00  0.00     0.280 C 
ATOM      3  O   UNL d   1      52.077  34.431  52.367  0.00  0.00    -0.265 OA
ENDROOT
BRANCH   1   4
ATOM      4  C   UNL d   1      52.249  33.099  53.541  0.00  0.00     0.119 A 
ATOM      5  C   UNL d   1      52.828  32.537  53.460  0.00  0.00     0.082 A 
ATOM      6  C   UNL d   1      53.492  32.790  53.878  0.00  0.00     0.013 A 
ATOM      7  C   UNL d   1      54.234  32.452  53.992  0.00  0.00     0.001 A 
ATOM      8  C   UNL d   1      53.307  33.522  54.219  0.00  0.00     0.031 A 
ATOM      9  C   UNL d   1      54.802  32.845  54.450  0.00  0.00     0.000 A 
ATOM     10  C   UNL d   1      54.613  33.575  54.788  0.00  0.00     0.001 A 
ATOM     11  C   UNL d   1      53.875  33.911  54.675  0.00  0.00     0.006 A 
ATOM     12  C   UNL d   1      55.174  33.973  55.246  0.00  0.00     0.000 C 
ATOM     13  S   UNL d   1      52.541  33.713  54.011  0.00  0.00    -0.068 SA
BRANCH   5  14
ATOM     14  C   UNL d   1      52.757  31.836  53.031  0.00  0.00     0.281 C 
ATOM     15  O   UNL d   1      52.932  31.819  52.225  0.00  0.00    -0.265 OA
ATOM     16  N   UNL d   1      52.508  31.146  53.413  0.00  0.00    -0.205 NA
ATOM     17  C   UNL d   1      52.435  30.441  52.991  0.00  0.00     0.123 C 
ENDBRANCH   5  14
ENDBRANCH   1   4
BRANCH   2  18
ATOM     18  C   UNL d   1      50.804  34.321  52.474  0.00  0.00     0.058 A 
ATOM     19  C   UNL d   1      50.233  34.473  53.046  0.00  0.00     0.006 A 
ATOM     20  C   UNL d   1      49.488  34.727  52.826  0.00  0.00     0.018 A 
ATOM     21  C   UNL d   1      49.292  34.836  52.042  0.00  0.00     0.070 A 
ATOM     22  C   UNL d   1      49.868  34.684  51.454  0.00  0.00     0.018 A 
ATOM     23  C   UNL d   1      50.615  34.430  51.660  0.00  0.00     0.006 A 
BRANCH  21  24
ATOM     24  N   UNL d   1      48.539  35.093  51.825  0.00  0.00    -0.242 N 
ATOM     25  C   UNL d   1      48.122  35.695  52.217  0.00  0.00     0.267 A 
ATOM     26  C   UNL d   1      47.387  35.795  51.838  0.00  0.00     0.066 A 
ATOM     27  O   UNL d   1      48.394  36.135  52.888  0.00  0.00    -0.267 OA
ATOM     28  C   UNL d   1      47.362  35.254  51.220  0.00  0.00     0.066 A 
ATOM     29  C   UNL d   1      48.058  34.827  51.210  0.00  0.00     0.267 A 
ATOM     30  O   UNL d   1      48.253  34.227  50.672  0.00  0.00    -0.267 OA
ENDBRANCH  21  24
ENDBRANCH   2  18
TORSDOF 4
ENDMDL
MODEL 2
REMARK VINA RESULT:     -10.4      1.262      2.027
REMARK  4 active torsions:
REMARK  status: ('A' for Active; 'I' for Inactive)
REMARK    1  A    between atoms: N_7  and  C_1 
REMARK    2  A    between atoms: C_11  and  C_2 
REMARK    3  A    between atoms: N_6  and  C_12 
REMARK       I    between atoms: C_8  and  N_7 
REMARK    4  A    between atoms: C_14  and  C_8 
REMARK       I    between atoms: N_26  and  C_11 
ROOT
ATOM      1  N   UNL d   1      50.965  33.913  53.354  0.00  0.00    -0.201 NA
ATOM      2  C   UNL d   1      50.760  34.127  52.390  0.00  0.00     0.280 C 
ATOM      3  O   UNL d   1      51.100  34.034  51.766  0.00  0.00    -0.265 OA
ENDROOT
BRANCH   1   4
ATOM      4  C   UNL d   1      51.658  33.567  53.395  0.00  0.00     0.119 A 
ATOM      5  C   UNL d   1      52.449  33.658  53.549  0.00  0.00     0.082 A 
ATOM      6  C   UNL d   1      52.817  32.927  53.450  0.00  0.00     0.013 A 
ATOM      7  C   UNL d   1      53.600  32.687  53.529  0.00  0.00     0.001 A 
ATOM      8  C   UNL d   1      52.231  32.382  53.232  0.00  0.00     0.031 A 
ATOM      9  C   UNL d   1      53.808  31.896  53.391  0.00  0.00     0.000 A 
ATOM     10  C   UNL d   1      53.221  31.358  53.173  0.00  0.00     0.001 A 
ATOM     11  C   UNL d   1      52.441  31.596  53.094  0.00  0.00     0.006 A 
ATOM     12  C   UNL d   1      53.419  30.568  53.033  0.00  0.00     0.000 C 
ATOM     13  S   UNL d   1      51.517  32.777  53.198  0.00  0.00    -0.068 SA
BRANCH   5  14
ATOM     14  C   UNL d   1      52.816  34.365  53.766  0.00  0.00     0.281 C 
ATOM     15  O   UNL d   1      53.198  34.829  53.200  0.00  0.00    -0.265 OA
ATOM     16  N   UNL d   1      52.800  34.608  54.555  0.00  0.00    -0.205 NA
ATOM     17  C   UNL d   1      53.165  35.314  54.780  0.00  0.00     0.123 C 
ENDBRANCH   5  14
ENDBRANCH   1   4
BRANCH   2  18
ATOM     18  C   UNL d   1      50.030  34.497  52.299  0.00  0.00     0.058 A 
ATOM     19  C   UNL d   1      49.662  34.853  52.943  0.00  0.00     0.006 A 
ATOM     20  C   UNL d   1      48.937  35.220  52.851  0.00  0.00     0.018 A 
ATOM     21  C   UNL d   1      48.562  35.243  52.127  0.00  0.00     0.070 A 
ATOM     22  C   UNL d   1      48.931  34.883  51.467  0.00  0.00     0.018 A 
ATOM     23  C   UNL d   1      49.654  34.514  51.545  0.00  0.00     0.006 A 
BRANCH  21  24
ATOM     24  N   UNL d   1      47.832  35.615  52.039  0.00  0.00    -0.242 N 
ATOM     25  C   UNL d   1      47.602  36.294  52.458  0.00  0.00     0.267 A 
ATOM     26  C   UNL d   1      46.831  36.502  52.220  0.00  0.00     0.066 A 
ATOM     27  O   UNL d   1      48.069  36.709  53.031  0.00  0.00    -0.267 OA
ATOM     28  C   UNL d   1      46.598  35.948  51.660  0.00  0.00     0.066 A 
ATOM     29  C   UNL d   1      47.201  35.409  51.548  0.00  0.00     0.267 A 
ATOM     30  O   UNL d   1      47.187  34.763  51.029  0.00  0.00    -0.267 OA
ENDBRANCH  21  24
ENDBRANCH   2  18
TORSDOF 4
ENDMDL
