MODEL 1
REMARK VINA RESULT:      79.6      0.000      0.000
REMARK  3 active torsions:
REMARK  status: ('A' for Active; 'I' for Inactive)
REMARK    1  A    between atoms: N_10  and  C_3 
REMARK    2  A    between atoms: C_11  and  C_5 
REMARK    3  A    between atoms: C_12  and  C_9 
ROOT
ATOM      1  N   UNL d   1      58.194  49.287  51.706  0.00  0.00    -0.196 N 
ATOM      2  C   UNL d   1      58.752  49.338  51.085  0.00  0.00     0.167 A 
ATOM      3  C   UNL d   1      57.404  49.148  51.524  0.00  0.00     0.152 A 
ATOM      4  N   UNL d   1      59.237  49.514  52.662  0.00  0.00    -0.163 NA
ATOM      5  C   UNL d   1      59.536  49.475  51.256  0.00  0.00     0.055 A 
ATOM      6  N   UNL d   1      58.500  49.248  50.305  0.00  0.00    -0.227 NA
ATOM      7  C   UNL d   1      57.154  49.057  50.716  0.00  0.00     0.057 A 
ATOM      8  C   UNL d   1      59.795  49.565  52.042  0.00  0.00     0.104 A 
ATOM      9  C   UNL d   1      57.713  49.111  50.132  0.00  0.00     0.086 A 
ATOM     10  C   UNL d   1      60.576  49.702  52.210  0.00  0.00     0.023 C 
ENDROOT
BRANCH   5  11
ATOM     11  C   UNL d   1      60.100  49.526  50.629  0.00  0.00     0.004 A 
ATOM     12  C   UNL d   1      60.905  49.492  50.798  0.00  0.00     0.000 A 
ATOM     13  C   UNL d   1      61.461  49.543  50.180  0.00  0.00     0.000 A 
ATOM     14  C   UNL d   1      61.200  49.627  49.406  0.00  0.00     0.000 A 
ATOM     15  C   UNL d   1      60.385  49.661  49.240  0.00  0.00     0.000 A 
ATOM     16  C   UNL d   1      59.846  49.610  49.854  0.00  0.00     0.000 A 
ENDBRANCH   5  11
BRANCH   3  17
ATOM     17  N   UNL d   1      56.828  49.095  52.158  0.00  0.00    -0.289 N 
ATOM     18  C   UNL d   1      56.542  48.424  52.337  0.00  0.00     0.082 A 
ATOM     19  C   UNL d   1      56.033  48.385  52.898  0.00  0.00     0.021 A 
ATOM     20  C   UNL d   1      56.116  49.665  53.073  0.00  0.00     0.021 A 
ATOM     21  C   UNL d   1      56.625  49.703  52.512  0.00  0.00     0.082 A 
ENDBRANCH   3  17
BRANCH   9  22
ATOM     22  C   UNL d   1      57.453  49.017  49.308  0.00  0.00     0.018 C 
ATOM     23  C   UNL d   1      57.139  49.708  48.881  0.00  0.00     0.002 C 
ATOM     24  C   UNL d   1      57.506  48.246  48.920  0.00  0.00     0.002 C 
ENDBRANCH   9  22
TORSDOF 3
ENDMDL
