MODEL 1
REMARK VINA RESULT:      46.5      0.000      0.000
REMARK  2 active torsions:
REMARK  status: ('A' for Active; 'I' for Inactive)
REMARK    1  A    between atoms: C_6  and  N_2 
REMARK    2  A    between atoms: C_8  and  C_5 
ROOT
ATOM      1  C   UNL d   1      45.853 -15.749  36.846  0.00  0.00     0.265 A 
ATOM      2  N   UNL d   1      45.171 -15.318  37.019  0.00  0.00    -0.275 N 
ATOM      3  C   UNL d   1      44.800 -16.516  36.568  0.00  0.00     0.021 A 
ATOM      4  C   UNL d   1      45.624 -16.490  36.567  0.00  0.00     0.063 A 
ATOM      5  C   UNL d   1      44.521 -15.789  36.848  0.00  0.00     0.067 A 
ATOM      6  O   UNL d   1      46.636 -15.484  36.937  0.00  0.00    -0.267 OA
ATOM      7  C   UNL d   1      44.336 -17.155  36.330  0.00  0.00     0.002 C 
ENDROOT
BRANCH   2   8
ATOM      8  C   UNL d   1      45.155 -14.543  37.314  0.00  0.00     0.067 A 
ATOM      9  C   UNL d   1      44.663 -14.362  37.955  0.00  0.00     0.018 A 
ATOM     10  C   UNL d   1      44.638 -13.602  38.256  0.00  0.00     0.002 A 
ATOM     11  C   UNL d   1      45.107 -13.006  37.918  0.00  0.00     0.000 A 
ATOM     12  C   UNL d   1      45.601 -13.193  37.274  0.00  0.00     0.002 A 
ATOM     13  C   UNL d   1      45.087 -12.237  38.217  0.00  0.00     0.000 C 
ATOM     14  C   UNL d   1      45.621 -13.958  36.977  0.00  0.00     0.018 A 
ENDBRANCH   2   8
BRANCH   5  15
ATOM     15  C   UNL d   1      43.729 -15.578  36.938  0.00  0.00     0.016 A 
ATOM     16  C   UNL d   1      43.324 -15.774  37.633  0.00  0.00     0.002 A 
ATOM     17  C   UNL d   1      42.532 -15.563  37.723  0.00  0.00     0.011 A 
ATOM     18  C   UNL d   1      42.139 -15.153  37.117  0.00  0.00     0.058 A 
ATOM     19  C   UNL d   1      42.540 -14.957  36.423  0.00  0.00     0.011 A 
ATOM     20 CL   UNL d   1      41.339 -14.942  37.212  0.00  0.00    -0.082 Cl
ATOM     21  C   UNL d   1      43.336 -15.168  36.331  0.00  0.00     0.002 A 
ENDBRANCH   5  15
TORSDOF 2
ENDMDL
MODEL 2
REMARK VINA RESULT:      46.6      0.801      1.288
REMARK  2 active torsions:
REMARK  status: ('A' for Active; 'I' for Inactive)
REMARK    1  A    between atoms: C_6  and  N_2 
REMARK    2  A    between atoms: C_8  and  C_5 
ROOT
ATOM      1  C   UNL d   1      45.102 -16.658  36.528  0.00  0.00     0.265 A 
ATOM      2  N   UNL d   1      44.694 -15.985  36.774  0.00  0.00    -0.275 N 
ATOM      3  C   UNL d   1      43.797 -16.918  36.459  0.00  0.00     0.021 A 
ATOM      4  C   UNL d   1      44.547 -17.236  36.333  0.00  0.00     0.063 A 
ATOM      5  C   UNL d   1      43.890 -16.143  36.732  0.00  0.00     0.067 A 
ATOM      6  O   UNL d   1      45.928 -16.742  36.484  0.00  0.00    -0.267 OA
ATOM      7  C   UNL d   1      43.080 -17.307  36.333  0.00  0.00     0.002 C 
ENDROOT
BRANCH   2   8
ATOM      8  C   UNL d   1      45.045 -15.274  37.021  0.00  0.00     0.067 A 
ATOM      9  C   UNL d   1      45.363 -14.761  36.454  0.00  0.00     0.018 A 
ATOM     10  C   UNL d   1      45.713 -14.057  36.682  0.00  0.00     0.002 A 
ATOM     11  C   UNL d   1      45.750 -13.855  37.487  0.00  0.00     0.000 A 
ATOM     12  C   UNL d   1      45.428 -14.374  38.053  0.00  0.00     0.002 A 
ATOM     13  C   UNL d   1      46.100 -13.147  37.725  0.00  0.00     0.000 C 
ATOM     14  C   UNL d   1      45.079 -15.079  37.817  0.00  0.00     0.018 A 
ENDBRANCH   2   8
BRANCH   5  15
ATOM     15  C   UNL d   1      43.280 -15.623  36.928  0.00  0.00     0.016 A 
ATOM     16  C   UNL d   1      42.821 -15.279  36.330  0.00  0.00     0.002 A 
ATOM     17  C   UNL d   1      42.211 -14.759  36.526  0.00  0.00     0.011 A 
ATOM     18  C   UNL d   1      42.056 -14.581  37.322  0.00  0.00     0.058 A 
ATOM     19  C   UNL d   1      42.512 -14.923  37.919  0.00  0.00     0.011 A 
ATOM     20 CL   UNL d   1      41.439 -14.056  37.515  0.00  0.00    -0.082 Cl
ATOM     21  C   UNL d   1      43.125 -15.445  37.724  0.00  0.00     0.002 A 
ENDBRANCH   5  15
TORSDOF 2
ENDMDL
MODEL 3
REMARK VINA RESULT:      47.5      1.108      1.530
REMARK  2 active torsions:
REMARK  status: ('A' for Active; 'I' for Inactive)
REMARK    1  A    between atoms: C_6  and  N_2 
REMARK    2  A    between atoms: C_8  and  C_5 
ROOT
ATOM      1  C   UNL d   1      45.537 -16.496  38.314  0.00  0.00     0.265 A 
ATOM      2  N   UNL d   1      45.110 -15.948  37.868  0.00  0.00    -0.275 N 
ATOM      3  C   UNL d   1      44.257 -16.867  38.317  0.00  0.00     0.021 A 
ATOM      4  C   UNL d   1      45.009 -17.065  38.592  0.00  0.00     0.063 A 
ATOM      5  C   UNL d   1      44.322 -16.175  37.869  0.00  0.00     0.067 A 
ATOM      6  O   UNL d   1      46.355 -16.479  38.460  0.00  0.00    -0.267 OA
ATOM      7  C   UNL d   1      43.562 -17.288  38.465  0.00  0.00     0.002 C 
ENDROOT
BRANCH   2   8
ATOM      8  C   UNL d   1      45.432 -15.284  37.489  0.00  0.00     0.067 A 
ATOM      9  C   UNL d   1      45.834 -15.383  36.771  0.00  0.00     0.018 A 
ATOM     10  C   UNL d   1      46.156 -14.737  36.385  0.00  0.00     0.002 A 
ATOM     11  C   UNL d   1      46.082 -13.978  36.714  0.00  0.00     0.000 A 
ATOM     12  C   UNL d   1      45.678 -13.884  37.437  0.00  0.00     0.002 A 
ATOM     13  C   UNL d   1      46.405 -13.323  36.331  0.00  0.00     0.000 C 
ATOM     14  C   UNL d   1      45.357 -14.537  37.818  0.00  0.00     0.018 A 
ENDBRANCH   2   8
BRANCH   5  15
ATOM     15  C   UNL d   1      43.702 -15.785  37.491  0.00  0.00     0.016 A 
ATOM     16  C   UNL d   1      43.277 -15.196  37.891  0.00  0.00     0.002 A 
ATOM     17  C   UNL d   1      42.657 -14.805  37.512  0.00  0.00     0.011 A 
ATOM     18  C   UNL d   1      42.457 -15.002  36.730  0.00  0.00     0.058 A 
ATOM     19  C   UNL d   1      42.878 -15.588  36.331  0.00  0.00     0.011 A 
ATOM     20 CL   UNL d   1      41.830 -14.605  36.352  0.00  0.00    -0.082 Cl
ATOM     21  C   UNL d   1      43.501 -15.981  36.709  0.00  0.00     0.002 A 
ENDBRANCH   5  15
TORSDOF 2
ENDMDL
