MODEL 1
REMARK VINA RESULT:     124.0      0.000      0.000
REMARK  3 active torsions:
REMARK  status: ('A' for Active; 'I' for Inactive)
REMARK    1  A    between atoms: C_4  and  C_1 
REMARK    2  A    between atoms: C_12  and  N_3 
REMARK    3  A    between atoms: C_14  and  C_7 
ROOT
ATOM      1  N   UNL d   1      61.320  47.348  50.964  0.00  0.00    -0.165 NA
ATOM      2  N   UNL d   1      60.879  48.018  51.084  0.00  0.00    -0.230 N 
ATOM      3  C   UNL d   1      61.029  46.929  50.352  0.00  0.00     0.108 A 
ATOM      4  C   UNL d   1      60.263  48.014  50.499  0.00  0.00     0.084 A 
ATOM      5  C   UNL d   1      60.356  47.337  50.044  0.00  0.00     0.040 A 
ENDROOT
BRANCH   3   6
ATOM      6  C   UNL d   1      61.358  46.224  50.098  0.00  0.00     0.083 A 
ATOM      7  C   UNL d   1      61.843  46.220  49.424  0.00  0.00     0.302 A 
ATOM      8  O   UNL d   1      62.180  45.503  49.164  0.00  0.00    -0.273 OA
ATOM      9  O   UNL d   1      61.987  46.932  49.017  0.00  0.00    -0.259 OA
ATOM     10  C   UNL d   1      62.034  44.805  49.569  0.00  0.00     0.103 A 
ATOM     11  C   UNL d   1      61.548  44.809  50.244  0.00  0.00     0.023 A 
ATOM     12  C   UNL d   1      62.367  44.109  49.307  0.00  0.00     0.025 A 
ATOM     13  C   UNL d   1      61.214  45.511  50.505  0.00  0.00     0.009 A 
ATOM     14  C   UNL d   1      61.402  44.117  50.649  0.00  0.00     0.002 A 
ATOM     15  C   UNL d   1      61.736  43.415  50.387  0.00  0.00     0.000 A 
ATOM     16  C   UNL d   1      62.221  43.411  49.713  0.00  0.00     0.002 A 
ENDBRANCH   3   6
BRANCH   2  17
ATOM     17  C   UNL d   1      61.027  48.571  51.667  0.00  0.00     0.083 A 
ATOM     18  C   UNL d   1      61.612  49.142  51.552  0.00  0.00     0.019 A 
ATOM     19  C   UNL d   1      61.768  49.707  52.139  0.00  0.00     0.002 A 
ATOM     20  C   UNL d   1      61.322  49.691  52.849  0.00  0.00     0.000 A 
ATOM     21  C   UNL d   1      60.737  49.121  52.964  0.00  0.00     0.002 A 
ATOM     22  C   UNL d   1      60.584  48.553  52.369  0.00  0.00     0.019 A 
ENDBRANCH   2  17
BRANCH   4  23
ATOM     23  C   UNL d   1      59.683  48.572  50.398  0.00  0.00     0.018 A 
ATOM     24  C   UNL d   1      59.735  49.131  49.806  0.00  0.00     0.002 A 
ATOM     25  C   UNL d   1      59.148  49.695  49.705  0.00  0.00     0.000 A 
ATOM     26  C   UNL d   1      58.489  49.708  50.204  0.00  0.00     0.000 A 
ATOM     27  C   UNL d   1      58.431  49.143  50.807  0.00  0.00     0.000 A 
ATOM     28  C   UNL d   1      59.032  48.574  50.903  0.00  0.00     0.002 A 
ENDBRANCH   4  23
TORSDOF 3
ENDMDL
