MODEL 1
REMARK VINA RESULT:      39.4      0.000      0.000
REMARK  4 active torsions:
REMARK  status: ('A' for Active; 'I' for Inactive)
REMARK    1  A    between atoms: C_23  and  N_1 
REMARK       I    between atoms: N_7  and  C_10 
REMARK    2  A    between atoms: C_10  and  C_25 
REMARK    3  A    between atoms: C_26  and  C_23 
REMARK    4  A    between atoms: C_25  and  C_26 
ROOT
ATOM      1  N   UNL d   1      46.624 -18.632  40.910  0.00  0.00    -0.249 N 
ATOM      2  C   UNL d   1      46.616 -18.353  41.685  0.00  0.00     0.268 A 
ATOM      3  C   UNL d   1      46.639 -19.434  40.767  0.00  0.00     0.208 A 
ATOM      4  C   UNL d   1      46.624 -18.883  42.318  0.00  0.00     0.076 A 
ATOM      5  C   UNL d   1      46.639 -19.685  42.174  0.00  0.00     0.090 A 
ATOM      6  N   UNL d   1      46.647 -19.941  41.401  0.00  0.00    -0.218 NA
ATOM      7  C   UNL d   1      46.616 -18.605  43.098  0.00  0.00     0.033 A 
ATOM      8  C   UNL d   1      46.647 -20.194  42.816  0.00  0.00     0.046 A 
ATOM      9  C   UNL d   1      46.624 -19.137  43.743  0.00  0.00     0.119 A 
ATOM     10  C   UNL d   1      46.640 -19.937  43.587  0.00  0.00     0.121 A 
ATOM     11  S   UNL d   1      46.647 -19.695  39.980  0.00  0.00    -0.038 SA
ATOM     12  O   UNL d   1      46.600 -17.558  41.827  0.00  0.00    -0.267 OA
ATOM     13  O   UNL d   1      46.619 -19.039  44.559  0.00  0.00    -0.300 OA
ATOM     14  O   UNL d   1      46.644 -20.313  44.329  0.00  0.00    -0.299 OA
ATOM     15  C   UNL d   1      46.632 -19.766  44.930  0.00  0.00     0.304 A 
ENDROOT
BRANCH   1  16
ATOM     16  C   UNL d   1      46.616 -18.099  40.264  0.00  0.00     0.085 C 
BRANCH  16  17
ATOM     17  C   UNL d   1      45.911 -17.892  39.930  0.00  0.00     0.024 C 
BRANCH  17  18
ATOM     18  C   UNL d   1      45.911 -17.415  39.272  0.00  0.00     0.063 C 
BRANCH  18  19
ATOM     19  C   UNL d   1      45.220 -17.276  38.879  0.00  0.00     0.265 C 
ATOM     20  N   UNL d   1      45.201 -16.701  38.288  0.00  0.00    -0.272 N 
ATOM     21  C   UNL d   1      45.896 -16.277  38.109  0.00  0.00     0.083 A 
ATOM     22  C   UNL d   1      44.502 -16.551  37.880  0.00  0.00     0.083 A 
ATOM     23  C   UNL d   1      45.883 -15.700  37.516  0.00  0.00     0.018 A 
ATOM     24  C   UNL d   1      46.568 -15.281  37.338  0.00  0.00     0.002 A 
ATOM     25  C   UNL d   1      45.176 -15.543  37.099  0.00  0.00     0.003 A 
ATOM     26  C   UNL d   1      46.553 -14.703  36.745  0.00  0.00     0.000 A 
ATOM     27  C   UNL d   1      45.851 -14.546  36.331  0.00  0.00     0.000 A 
ATOM     28  C   UNL d   1      45.164 -14.969  36.511  0.00  0.00     0.000 A 
ATOM     29  C   UNL d   1      44.487 -15.971  37.285  0.00  0.00     0.019 A 
ATOM     30  O   UNL d   1      44.546 -17.721  39.088  0.00  0.00    -0.267 OA
ENDBRANCH  18  19
ENDBRANCH  17  18
ENDBRANCH  16  17
ENDBRANCH   1  16
TORSDOF 4
ENDMDL
