MODEL 1
REMARK VINA RESULT:       5.9      0.000      0.000
REMARK  4 active torsions:
REMARK  status: ('A' for Active; 'I' for Inactive)
REMARK    1  A    between atoms: C_30  and  N_11 
REMARK    2  A    between atoms: C_29  and  N_12 
REMARK    3  A    between atoms: C_16  and  C_13 
REMARK    4  A    between atoms: C_15  and  C_14 
ROOT
ATOM      1  N   UNL d   1      32.835  20.944 -22.977  0.00  0.00    -0.240 N 
ATOM      2  N   UNL d   1      32.904  20.899 -22.119  0.00  0.00    -0.240 N 
ATOM      3  C   UNL d   1      32.902  20.159 -23.283  0.00  0.00     0.144 A 
ATOM      4  C   UNL d   1      32.837  21.684 -21.812  0.00  0.00     0.144 A 
ATOM      5  C   UNL d   1      32.724  22.228 -22.476  0.00  0.00     0.097 A 
ATOM      6  C   UNL d   1      33.014  19.626 -22.621  0.00  0.00     0.097 A 
ATOM      7  C   UNL d   1      32.903  19.693 -23.994  0.00  0.00     0.285 A 
ATOM      8  C   UNL d   1      32.838  22.136 -21.088  0.00  0.00     0.285 A 
ATOM      9  C   UNL d   1      33.082  18.837 -22.929  0.00  0.00     0.270 A 
ATOM     10  C   UNL d   1      32.657  23.017 -22.153  0.00  0.00     0.270 A 
ATOM     11  N   UNL d   1      32.727  22.963 -21.298  0.00  0.00    -0.239 N 
ATOM     12  N   UNL d   1      33.012  18.885 -23.781  0.00  0.00    -0.239 N 
ATOM     13  C   UNL d   1      32.724  21.766 -23.184  0.00  0.00     0.094 A 
ATOM     14  C   UNL d   1      33.013  20.085 -21.914  0.00  0.00     0.094 A 
ATOM     15  O   UNL d   1      32.928  21.845 -20.335  0.00  0.00    -0.265 OA
ATOM     16  O   UNL d   1      32.547  23.701 -22.577  0.00  0.00    -0.266 OA
ATOM     17  O   UNL d   1      33.192  18.156 -22.498  0.00  0.00    -0.266 OA
ATOM     18  O   UNL d   1      32.813  19.981 -24.752  0.00  0.00    -0.265 OA
ENDROOT
BRANCH  13  19
ATOM     19  C   UNL d   1      32.634  22.063 -23.939  0.00  0.00     0.047 A 
ATOM     20  S   UNL d   1      33.224  22.396 -24.386  0.00  0.00    -0.085 SA
ATOM     21  C   UNL d   1      32.895  22.615 -25.094  0.00  0.00     0.035 A 
ATOM     22  C   UNL d   1      32.104  22.415 -25.081  0.00  0.00     0.007 A 
ATOM     23  C   UNL d   1      31.954  22.073 -24.359  0.00  0.00     0.009 A 
ENDBRANCH  13  19
BRANCH  11  24
ATOM     24  C   UNL d   1      32.694  23.586 -20.779  0.00  0.00     0.086 C 
ATOM     25  C   UNL d   1      32.024  23.695 -20.309  0.00  0.00     0.021 C 
ENDBRANCH  11  24
BRANCH  14  26
ATOM     26  C   UNL d   1      33.102  19.800 -21.165  0.00  0.00     0.047 A 
ATOM     27  S   UNL d   1      33.158  19.012 -20.959  0.00  0.00    -0.085 SA
ATOM     28  C   UNL d   1      33.241  18.976 -20.161  0.00  0.00     0.035 A 
ATOM     29  C   UNL d   1      33.237  19.730 -19.874  0.00  0.00     0.007 A 
ATOM     30  C   UNL d   1      33.151  20.237 -20.492  0.00  0.00     0.009 A 
ENDBRANCH  14  26
BRANCH  12  31
ATOM     31  C   UNL d   1      33.047  18.250 -24.295  0.00  0.00     0.086 C 
ATOM     32  C   UNL d   1      32.353  17.865 -24.521  0.00  0.00     0.021 C 
ENDBRANCH  12  31
TORSDOF 4
ENDMDL
