MODEL 1
REMARK VINA RESULT:      -5.8      0.000      0.000
REMARK  6 active torsions:
REMARK  status: ('A' for Active; 'I' for Inactive)
REMARK    1  A    between atoms: C_4  and  S_1 
REMARK    2  A    between atoms: C_5  and  S_1 
REMARK    3  A    between atoms: C_2  and  N_7 
REMARK    4  A    between atoms: N_3  and  C_2 
REMARK    5  A    between atoms: C_17  and  N_6 
REMARK    6  A    between atoms: N_7  and  C_12 
ROOT
ATOM      1  C   UNL d   1     -41.709-122.217 -51.507  0.00  0.00     0.206 C 
ATOM      2  S   UNL d   1     -41.123-121.673 -51.700  0.00  0.00    -0.038 SA
ENDROOT
BRANCH   1   3
ATOM      3  N   UNL d   1     -42.221-122.497 -52.096  0.00  0.00    -0.218 NA
BRANCH   3   4
ATOM      4  C   UNL d   1     -41.919-122.755 -52.819  0.00  0.00     0.085 A 
ATOM      5  C   UNL d   1     -42.121-122.351 -53.511  0.00  0.00     0.031 A 
ATOM      6  C   UNL d   1     -41.820-122.610 -54.230  0.00  0.00     0.094 A 
ATOM      7  C   UNL d   1     -41.318-123.272 -54.258  0.00  0.00     0.012 A 
ATOM      8  C   UNL d   1     -41.122-123.669 -53.562  0.00  0.00     0.002 A 
ATOM      9  C   UNL d   1     -41.428-123.405 -52.843  0.00  0.00     0.019 A 
BRANCH   6  10
ATOM     10  S   UNL d   1     -42.016-122.212 -54.922  0.00  0.00     0.262 S 
ATOM     11  O   UNL d   1     -42.817-122.363 -54.775  0.00  0.00    -0.213 OA
ATOM     12  O   UNL d   1     -41.220-122.065 -55.063  0.00  0.00    -0.213 OA
BRANCH  10  13
ATOM     13  C   UNL d   1     -42.214-121.815 -55.613  0.00  0.00     0.364 C 
ATOM     14  F   UNL d   1     -42.881-122.039 -56.041  0.00  0.00    -0.159 F 
ATOM     15  F   UNL d   1     -41.743-121.189 -55.883  0.00  0.00    -0.159 F 
ENDBRANCH  10  13
ENDBRANCH   6  10
ENDBRANCH   3   4
ENDBRANCH   1   3
BRANCH   1  16
ATOM     16  N   UNL d   1     -41.788-122.480 -50.733  0.00  0.00    -0.278 N 
ATOM     17  C   UNL d   1     -41.169-122.883 -50.369  0.00  0.00     0.101 A 
ATOM     18  C   UNL d   1     -41.248-123.147 -49.596  0.00  0.00     0.100 A 
ATOM     19  N   UNL d   1     -41.946-123.008 -49.185  0.00  0.00    -0.301 N 
ATOM     20  C   UNL d   1     -42.567-122.605 -49.545  0.00  0.00     0.100 A 
ATOM     21  C   UNL d   1     -42.486-122.341 -50.323  0.00  0.00     0.101 A 
BRANCH  19  22
ATOM     22  C   UNL d   1     -42.018-123.276 -48.408  0.00  0.00     0.064 A 
ATOM     23  C   UNL d   1     -42.766-123.458 -48.109  0.00  0.00     0.018 A 
ATOM     24  C   UNL d   1     -42.845-123.725 -47.336  0.00  0.00     0.002 A 
ATOM     25  C   UNL d   1     -42.177-123.811 -46.857  0.00  0.00     0.000 A 
ATOM     26  C   UNL d   1     -41.432-123.630 -47.153  0.00  0.00     0.002 A 
ATOM     27  C   UNL d   1     -41.350-123.362 -47.928  0.00  0.00     0.018 A 
ENDBRANCH  19  22
ENDBRANCH   1  16
TORSDOF 6
ENDMDL
MODEL 2
REMARK VINA RESULT:      -4.5      3.386      5.929
REMARK  6 active torsions:
REMARK  status: ('A' for Active; 'I' for Inactive)
REMARK    1  A    between atoms: C_4  and  S_1 
REMARK    2  A    between atoms: C_5  and  S_1 
REMARK    3  A    between atoms: C_2  and  N_7 
REMARK    4  A    between atoms: N_3  and  C_2 
REMARK    5  A    between atoms: C_17  and  N_6 
REMARK    6  A    between atoms: N_7  and  C_12 
ROOT
ATOM      1  C   UNL d   1     -41.355-122.590 -51.053  0.00  0.00     0.206 C 
ATOM      2  S   UNL d   1     -41.152-121.943 -50.587  0.00  0.00    -0.038 SA
ENDROOT
BRANCH   1   3
ATOM      3  N   UNL d   1     -41.435-123.339 -50.706  0.00  0.00    -0.218 NA
BRANCH   3   4
ATOM      4  C   UNL d   1     -41.916-123.441 -50.044  0.00  0.00     0.085 A 
ATOM      5  C   UNL d   1     -41.614-123.281 -49.293  0.00  0.00     0.031 A 
ATOM      6  C   UNL d   1     -42.095-123.383 -48.634  0.00  0.00     0.094 A 
ATOM      7  C   UNL d   1     -42.878-123.645 -48.727  0.00  0.00     0.012 A 
ATOM      8  C   UNL d   1     -43.171-123.803 -49.482  0.00  0.00     0.002 A 
ATOM      9  C   UNL d   1     -42.684-123.698 -50.139  0.00  0.00     0.019 A 
BRANCH   6  10
ATOM     10  S   UNL d   1     -41.799-123.225 -47.884  0.00  0.00     0.262 S 
ATOM     11  O   UNL d   1     -41.230-123.818 -47.989  0.00  0.00    -0.213 OA
ATOM     12  O   UNL d   1     -42.366-122.639 -47.784  0.00  0.00    -0.213 OA
BRANCH  10  13
ATOM     13  C   UNL d   1     -41.504-123.068 -47.134  0.00  0.00     0.364 C 
ATOM     14  F   UNL d   1     -41.524-122.301 -46.835  0.00  0.00    -0.159 F 
ATOM     15  F   UNL d   1     -41.184-123.679 -46.676  0.00  0.00    -0.159 F 
ENDBRANCH  10  13
ENDBRANCH   6  10
ENDBRANCH   3   4
ENDBRANCH   1   3
BRANCH   1  16
ATOM     16  N   UNL d   1     -41.480-122.495 -51.860  0.00  0.00    -0.278 N 
ATOM     17  C   UNL d   1     -41.751-121.775 -52.153  0.00  0.00     0.101 A 
ATOM     18  C   UNL d   1     -41.875-121.680 -52.958  0.00  0.00     0.100 A 
ATOM     19  N   UNL d   1     -41.728-122.304 -53.471  0.00  0.00    -0.301 N 
ATOM     20  C   UNL d   1     -41.457-123.025 -53.183  0.00  0.00     0.100 A 
ATOM     21  C   UNL d   1     -41.333-123.119 -52.372  0.00  0.00     0.101 A 
BRANCH  19  22
ATOM     22  C   UNL d   1     -41.855-122.201 -54.281  0.00  0.00     0.064 A 
ATOM     23  C   UNL d   1     -42.612-122.014 -54.553  0.00  0.00     0.018 A 
ATOM     24  C   UNL d   1     -42.745-121.911 -55.357  0.00  0.00     0.002 A 
ATOM     25  C   UNL d   1     -42.122-121.994 -55.894  0.00  0.00     0.000 A 
ATOM     26  C   UNL d   1     -41.369-122.180 -55.625  0.00  0.00     0.002 A 
ATOM     27  C   UNL d   1     -41.232-122.284 -54.818  0.00  0.00     0.018 A 
ENDBRANCH  19  22
ENDBRANCH   1  16
TORSDOF 6
ENDMDL
