MODEL 1
REMARK VINA RESULT:      40.3      0.000      0.000
REMARK  4 active torsions:
REMARK  status: ('A' for Active; 'I' for Inactive)
REMARK    1  A    between atoms: C_5  and  C_2 
REMARK    2  A    between atoms: C_7  and  C_5 
REMARK       I    between atoms: N_9  and  C_7 
REMARK    3  A    between atoms: C_8  and  C_10 
REMARK    4  A    between atoms: C_17  and  N_9 
ROOT
ATOM      1  C   UNL d   1     -55.020-101.846 -42.506  0.00  0.00     0.280 C 
ATOM      2  N   UNL d   1     -54.711-101.897 -43.266  0.00  0.00    -0.208 NA
ATOM      3  O   UNL d   1     -55.472-101.194 -42.289  0.00  0.00    -0.265 OA
ENDROOT
BRANCH   1   4
ATOM      4  C   UNL d   1     -54.878-102.450 -41.957  0.00  0.00     0.074 C 
BRANCH   4   5
ATOM      5  C   UNL d   1     -55.154-102.574 -41.196  0.00  0.00     0.097 A 
ATOM      6  C   UNL d   1     -55.927-102.772 -40.988  0.00  0.00     0.288 A 
ATOM      7  N   UNL d   1     -55.965-102.844 -40.170  0.00  0.00    -0.163 NA
ATOM      8  O   UNL d   1     -56.549-102.877 -41.517  0.00  0.00    -0.265 OA
ATOM      9  C   UNL d   1     -55.212-102.691 -39.866  0.00  0.00     0.313 A 
ATOM     10  S   UNL d   1     -54.713-102.524 -40.498  0.00  0.00    -0.021 SA
ATOM     11  O   UNL d   1     -54.996-102.701 -39.076  0.00  0.00    -0.258 OA
ENDBRANCH   4   5
ENDBRANCH   1   4
BRANCH   2  12
ATOM     12  C   UNL d   1     -54.963-101.210 -43.648  0.00  0.00     0.085 A 
ATOM     13  C   UNL d   1     -54.711-100.479 -43.384  0.00  0.00     0.019 A 
ATOM     14  C   UNL d   1     -54.960 -99.789 -43.762  0.00  0.00     0.008 A 
ATOM     15  C   UNL d   1     -55.470 -99.838 -44.417  0.00  0.00     0.065 A 
ATOM     16  C   UNL d   1     -55.724-100.585 -44.684  0.00  0.00     0.008 A 
ATOM     17  C   UNL d   1     -55.471-101.265 -44.300  0.00  0.00     0.019 A 
BRANCH  15  18
ATOM     18  C   UNL d   1     -55.719 -99.155 -44.797  0.00  0.00     0.211 C 
ATOM     19  O   UNL d   1     -55.277 -98.845 -45.421  0.00  0.00    -0.644 OA
ATOM     20  O   UNL d   1     -56.412 -98.775 -44.558  0.00  0.00    -0.644 OA
ENDBRANCH  15  18
ENDBRANCH   2  12
TORSDOF 4
ENDMDL
