MODEL 1
REMARK VINA RESULT:       0.2      0.000      0.000
REMARK  2 active torsions:
REMARK  status: ('A' for Active; 'I' for Inactive)
REMARK       I    between atoms: C_2  and  N_1 
REMARK       I    between atoms: N_8  and  C_2 
REMARK    1  A    between atoms: C_15  and  N_8 
REMARK    2  A    between atoms: C_9  and  C_15 
ROOT
ATOM      1  N   UNL d   1     -41.370-122.341 -51.684  0.00  0.00    -0.258 N 
ATOM      2  C   UNL d   1     -41.457-122.817 -52.354  0.00  0.00     0.354 C 
ATOM      3  S   UNL d   1     -41.194-121.358 -50.362  0.00  0.00    -0.084 SA
ATOM      4  C   UNL d   1     -41.290-121.517 -51.779  0.00  0.00     0.074 A 
ATOM      5  C   UNL d   1     -41.364-122.676 -50.940  0.00  0.00     0.074 A 
ATOM      6  C   UNL d   1     -41.201-121.022 -51.116  0.00  0.00     0.046 A 
ATOM      7  C   UNL d   1     -41.275-122.180 -50.275  0.00  0.00     0.046 A 
ATOM      8  N   UNL d   1     -41.464-122.439 -53.182  0.00  0.00    -0.189 NA
ATOM      9  O   UNL d   1     -41.544-123.712 -52.243  0.00  0.00    -0.244 OA
ATOM     10  C   UNL d   1     -41.443-123.483 -50.847  0.00  0.00     0.018 A 
ATOM     11  C   UNL d   1     -41.297-121.187 -52.527  0.00  0.00     0.018 A 
ATOM     12  C   UNL d   1     -41.123-120.216 -51.212  0.00  0.00     0.008 A 
ATOM     13  C   UNL d   1     -41.268-122.511 -49.523  0.00  0.00     0.008 A 
ATOM     14  C   UNL d   1     -41.218-120.376 -52.621  0.00  0.00     0.002 A 
ATOM     15  C   UNL d   1     -41.435-123.817 -50.093  0.00  0.00     0.002 A 
ATOM     16  C   UNL d   1     -41.347-123.328 -49.423  0.00  0.00     0.001 A 
ATOM     17  C   UNL d   1     -41.129-119.879 -51.954  0.00  0.00     0.001 A 
ENDROOT
BRANCH   8  18
ATOM     18  C   UNL d   1     -41.551-122.917 -53.848  0.00  0.00     0.128 C 
BRANCH  18  19
ATOM     19  C   UNL d   1     -41.829-122.596 -54.558  0.00  0.00     0.119 A 
ATOM     20  O   UNL d   1     -42.618-122.429 -54.741  0.00  0.00    -0.304 OA
ATOM     21  C   UNL d   1     -42.644-122.115 -55.505  0.00  0.00     0.123 A 
ATOM     22  C   UNL d   1     -41.872-122.088 -55.794  0.00  0.00     0.029 A 
ATOM     23  C   UNL d   1     -41.371-122.384 -55.210  0.00  0.00     0.028 A 
ENDBRANCH  18  19
ENDBRANCH   8  18
TORSDOF 2
ENDMDL
