MODEL 1
REMARK VINA RESULT:      26.9      0.000      0.000
REMARK  4 active torsions:
REMARK  status: ('A' for Active; 'I' for Inactive)
REMARK    1  A    between atoms: C_3  and  C_2 
REMARK    2  A    between atoms: C_14  and  C_12 
REMARK    3  A    between atoms: C_15  and  C_14 
REMARK    4  A    between atoms: C_16  and  C_15 
ROOT
ATOM      1  N   UNL d   1     -51.774  25.525  33.317  0.00  0.00    -0.244 NA
ATOM      2  C   UNL d   1     -50.961  25.641  33.334  0.00  0.00     0.081 A 
ATOM      3  C   UNL d   1     -50.432  24.940  33.343  0.00  0.00     0.019 A 
ATOM      4  C   UNL d   1     -52.105  24.766  33.309  0.00  0.00     0.099 A 
ATOM      5  C   UNL d   1     -50.763  24.181  33.334  0.00  0.00     0.003 A 
ATOM      6  C   UNL d   1     -51.638  24.086  33.316  0.00  0.00     0.019 A 
ENDROOT
BRANCH   2   7
ATOM      7  C   UNL d   1     -50.630  26.400  33.342  0.00  0.00     0.018 A 
ATOM      8  C   UNL d   1     -51.097  27.080  33.333  0.00  0.00     0.002 A 
ATOM      9  C   UNL d   1     -50.779  27.810  33.341  0.00  0.00     0.007 A 
ATOM     10  C   UNL d   1     -49.955  27.948  33.360  0.00  0.00     0.035 A 
ATOM     11  C   UNL d   1     -49.437  27.225  33.371  0.00  0.00     0.007 A 
ATOM     12 BR   UNL d   1     -49.637  28.678  33.368  0.00  0.00    -0.049 Br
ATOM     13  C   UNL d   1     -49.755  26.495  33.362  0.00  0.00     0.002 A 
ENDBRANCH   2   7
BRANCH   6  14
ATOM     14  C   UNL d   1     -51.963  23.339  33.308  0.00  0.00     0.002 C 
BRANCH  14  15
ATOM     15  C   UNL d   1     -52.673  23.188  33.668  0.00  0.00     0.000 C 
BRANCH  15  16
ATOM     16  C   UNL d   1     -53.375  23.435  33.334  0.00  0.00     0.000 C 
ATOM     17  C   UNL d   1     -54.042  23.446  33.773  0.00  0.00     0.000 C 
ENDBRANCH  15  16
ENDBRANCH  14  15
ENDBRANCH   6  14
TORSDOF 4
ENDMDL
