MODEL 1
REMARK VINA RESULT:      69.3      0.000      0.000
REMARK  10 active torsions:
REMARK  status: ('A' for Active; 'I' for Inactive)
REMARK    1  A    between atoms: C_9  and  S_1 
REMARK    2  A    between atoms: N_20  and  S_1 
REMARK    3  A    between atoms: S_2  and  C_10 
REMARK    4  A    between atoms: N_19  and  S_2 
REMARK    5  A    between atoms: C_28  and  N_19 
REMARK    6  A    between atoms: C_29  and  N_20 
REMARK    7  A    between atoms: C_24  and  C_28 
REMARK    8  A    between atoms: C_30  and  C_24 
REMARK    9  A    between atoms: C_25  and  C_29 
REMARK   10  A    between atoms: C_31  and  C_25 
ROOT
ATOM      1  C   UNL d   1     -49.675  27.578  36.047  0.00  0.00     0.300 A 
ATOM      2  C   UNL d   1     -49.179  27.966  35.525  0.00  0.00     0.064 A 
ATOM      3  C   UNL d   1     -50.311  26.912  34.959  0.00  0.00     0.104 A 
ATOM      4  O   UNL d   1     -50.240  27.053  35.767  0.00  0.00    -0.273 OA
ATOM      5  C   UNL d   1     -49.247  27.829  34.718  0.00  0.00     0.007 A 
ATOM      6  C   UNL d   1     -49.813  27.301  34.430  0.00  0.00     0.023 A 
ATOM      7  C   UNL d   1     -48.114  28.883  35.284  0.00  0.00     0.105 A 
ATOM      8  C   UNL d   1     -50.953  26.242  33.877  0.00  0.00     0.107 A 
ATOM      9  C   UNL d   1     -48.616  28.489  35.804  0.00  0.00     0.018 A 
ATOM     10  C   UNL d   1     -50.881  26.383  34.681  0.00  0.00     0.038 A 
ATOM     11  C   UNL d   1     -48.749  28.217  34.189  0.00  0.00     0.001 A 
ATOM     12  C   UNL d   1     -49.884  27.161  33.621  0.00  0.00     0.003 A 
ATOM     13  O   UNL d   1     -49.612  27.712  36.860  0.00  0.00    -0.259 OA
ATOM     14  C   UNL d   1     -48.184  28.743  34.468  0.00  0.00     0.013 A 
ATOM     15  C   UNL d   1     -50.454  26.631  33.343  0.00  0.00     0.013 A 
ENDROOT
BRANCH   7  16
ATOM     16  S   UNL d   1     -47.547  29.411  35.566  0.00  0.00     0.285 S 
ATOM     17  O   UNL d   1     -47.749  29.950  36.153  0.00  0.00    -0.198 OA
ATOM     18  O   UNL d   1     -46.775  29.396  35.256  0.00  0.00    -0.198 OA
BRANCH  16  19
ATOM     19  N   UNL d   1     -46.987  29.944  35.856  0.00  0.00    -0.157 NA
BRANCH  19  20
ATOM     20  C   UNL d   1     -46.997  30.730  35.606  0.00  0.00     0.116 C 
BRANCH  20  21
ATOM     21  C   UNL d   1     -47.713  31.088  35.406  0.00  0.00     0.067 C 
BRANCH  21  22
ATOM     22  C   UNL d   1     -47.718  31.836  35.058  0.00  0.00     0.236 C 
ATOM     23  O   UNL d   1     -47.323  32.461  35.428  0.00  0.00    -0.283 OA
ENDBRANCH  21  22
ENDBRANCH  20  21
ENDBRANCH  19  20
ENDBRANCH  16  19
ENDBRANCH   7  16
BRANCH   8  24
ATOM     24  S   UNL d   1     -51.520  25.713  33.591  0.00  0.00     0.285 S 
ATOM     25  O   UNL d   1     -52.276  25.983  33.405  0.00  0.00    -0.198 OA
ATOM     26  O   UNL d   1     -51.329  24.919  33.494  0.00  0.00    -0.198 OA
BRANCH  24  27
ATOM     27  N   UNL d   1     -52.082  25.179  33.306  0.00  0.00    -0.157 NA
BRANCH  27  28
ATOM     28  C   UNL d   1     -52.385  24.594  33.801  0.00  0.00     0.116 C 
BRANCH  28  29
ATOM     29  C   UNL d   1     -52.321  23.797  33.598  0.00  0.00     0.067 C 
BRANCH  29  30
ATOM     30  C   UNL d   1     -52.568  23.210  34.120  0.00  0.00     0.236 C 
ATOM     31  O   UNL d   1     -53.348  23.197  34.391  0.00  0.00    -0.283 OA
ENDBRANCH  29  30
ENDBRANCH  28  29
ENDBRANCH  27  28
ENDBRANCH  24  27
ENDBRANCH   8  24
TORSDOF 10
ENDMDL
