MODEL 1
REMARK VINA RESULT:      -0.1      0.000      0.000
REMARK  6 active torsions:
REMARK  status: ('A' for Active; 'I' for Inactive)
REMARK       I    between atoms: N_6  and  C_1 
REMARK       I    between atoms: N_9  and  C_1 
REMARK    1  A    between atoms: N_2  and  C_3 
REMARK    2  A    between atoms: C_3  and  C_5 
REMARK    3  A    between atoms: C_7  and  C_3 
REMARK    4  A    between atoms: C_16  and  N_4 
REMARK    5  A    between atoms: C_5  and  N_6 
REMARK    6  A    between atoms: C_19  and  N_9 
ROOT
ATOM      1  C   UNL d   1      32.151  17.827 -23.784  0.00  0.00     0.088 C 
ENDROOT
BRANCH   1   2
ATOM      2  N   UNL d   1      32.329  18.474 -23.298  0.00  0.00    -0.300 N 
ATOM      3  C   UNL d   1      32.064  18.487 -22.518  0.00  0.00     0.100 A 
ATOM      4  C   UNL d   1      32.240  19.127 -22.037  0.00  0.00     0.100 A 
ATOM      5  N   UNL d   1      32.685  19.767 -22.323  0.00  0.00    -0.301 N 
ATOM      6  C   UNL d   1      32.953  19.743 -23.124  0.00  0.00     0.100 A 
ATOM      7  C   UNL d   1      32.770  19.099 -23.592  0.00  0.00     0.100 A 
BRANCH   5   8
ATOM      8  C   UNL d   1      32.868  20.408 -21.858  0.00  0.00     0.064 A 
ATOM      9  C   UNL d   1      33.051  20.320 -21.062  0.00  0.00     0.018 A 
ATOM     10  C   UNL d   1      33.235  20.978 -20.597  0.00  0.00     0.002 A 
ATOM     11  C   UNL d   1      33.235  21.735 -20.937  0.00  0.00     0.000 A 
ATOM     12  C   UNL d   1      33.050  21.826 -21.741  0.00  0.00     0.002 A 
ATOM     13  C   UNL d   1      32.867  21.164 -22.198  0.00  0.00     0.018 A 
ENDBRANCH   5   8
ENDBRANCH   1   2
BRANCH   1  14
ATOM     14  C   UNL d   1      31.634  17.915 -24.418  0.00  0.00     0.103 C 
ATOM     15  C   UNL d   1      31.874  18.319 -25.086  0.00  0.00     0.022 C 
BRANCH  14  16
ATOM     16  N   UNL d   1      30.880  17.593 -24.371  0.00  0.00    -0.190 NA
ATOM     17  C   UNL d   1      30.232  18.017 -24.664  0.00  0.00     0.369 C 
ATOM     18  N   UNL d   1      29.478  17.695 -24.617  0.00  0.00    -0.191 NA
ATOM     19  O   UNL d   1      30.351  18.757 -24.999  0.00  0.00    -0.242 OA
BRANCH  18  20
ATOM     20  C   UNL d   1      29.360  16.951 -24.280  0.00  0.00     0.086 A 
ATOM     21  C   UNL d   1      29.352  16.278 -24.769  0.00  0.00     0.019 A 
ATOM     22  C   UNL d   1      29.235  15.538 -24.437  0.00  0.00     0.002 A 
ATOM     23  C   UNL d   1      29.124  15.460 -23.623  0.00  0.00     0.000 A 
ATOM     24  C   UNL d   1      29.132  16.131 -23.143  0.00  0.00     0.002 A 
ATOM     25  C   UNL d   1      29.251  16.881 -23.472  0.00  0.00     0.019 A 
ENDBRANCH  18  20
ENDBRANCH  14  16
ENDBRANCH   1  14
BRANCH   1  26
ATOM     26  C   UNL d   1      32.494  17.096 -23.629  0.00  0.00     0.047 A 
ATOM     27  S   UNL d   1      33.040  16.697 -24.104  0.00  0.00    -0.085 SA
ATOM     28  C   UNL d   1      33.232  15.988 -23.736  0.00  0.00     0.035 A 
ATOM     29  C   UNL d   1      32.806  15.940 -23.028  0.00  0.00     0.007 A 
ATOM     30  C   UNL d   1      32.352  16.625 -22.965  0.00  0.00     0.009 A 
ENDBRANCH   1  26
TORSDOF 6
ENDMDL
MODEL 2
REMARK VINA RESULT:       0.8      1.125      1.703
REMARK  6 active torsions:
REMARK  status: ('A' for Active; 'I' for Inactive)
REMARK       I    between atoms: N_6  and  C_1 
REMARK       I    between atoms: N_9  and  C_1 
REMARK    1  A    between atoms: N_2  and  C_3 
REMARK    2  A    between atoms: C_3  and  C_5 
REMARK    3  A    between atoms: C_7  and  C_3 
REMARK    4  A    between atoms: C_16  and  N_4 
REMARK    5  A    between atoms: C_5  and  N_6 
REMARK    6  A    between atoms: C_19  and  N_9 
ROOT
ATOM      1  C   UNL d   1      32.320  16.916 -23.614  0.00  0.00     0.088 C 
ENDROOT
BRANCH   1   2
ATOM      2  N   UNL d   1      32.479  17.712 -23.450  0.00  0.00    -0.300 N 
ATOM      3  C   UNL d   1      33.057  18.111 -23.880  0.00  0.00     0.100 A 
ATOM      4  C   UNL d   1      33.215  18.900 -23.719  0.00  0.00     0.100 A 
ATOM      5  N   UNL d   1      32.799  19.305 -23.125  0.00  0.00    -0.301 N 
ATOM      6  C   UNL d   1      32.208  18.886 -22.690  0.00  0.00     0.100 A 
ATOM      7  C   UNL d   1      32.062  18.101 -22.862  0.00  0.00     0.100 A 
BRANCH   5   8
ATOM      8  C   UNL d   1      32.944  20.086 -22.954  0.00  0.00     0.064 A 
ATOM      9  C   UNL d   1      33.087  20.635 -23.549  0.00  0.00     0.018 A 
ATOM     10  C   UNL d   1      33.234  21.428 -23.364  0.00  0.00     0.002 A 
ATOM     11  C   UNL d   1      33.237  21.672 -22.571  0.00  0.00     0.000 A 
ATOM     12  C   UNL d   1      33.093  21.119 -21.969  0.00  0.00     0.002 A 
ATOM     13  C   UNL d   1      32.948  20.330 -22.162  0.00  0.00     0.018 A 
ENDBRANCH   5   8
ENDBRANCH   1   2
BRANCH   1  14
ATOM     14  C   UNL d   1      31.983  16.698 -24.332  0.00  0.00     0.103 C 
ATOM     15  C   UNL d   1      32.458  16.426 -24.938  0.00  0.00     0.022 C 
BRANCH  14  16
ATOM     16  N   UNL d   1      31.170  16.758 -24.431  0.00  0.00    -0.190 NA
ATOM     17  C   UNL d   1      30.756  16.154 -24.817  0.00  0.00     0.369 C 
ATOM     18  N   UNL d   1      29.944  16.214 -24.916  0.00  0.00    -0.191 NA
ATOM     19  O   UNL d   1      31.165  15.499 -25.097  0.00  0.00    -0.242 OA
BRANCH  18  20
ATOM     20  C   UNL d   1      29.534  16.873 -24.634  0.00  0.00     0.086 A 
ATOM     21  C   UNL d   1      29.117  16.817 -23.916  0.00  0.00     0.019 A 
ATOM     22  C   UNL d   1      28.709  17.470 -23.634  0.00  0.00     0.002 A 
ATOM     23  C   UNL d   1      28.712  18.177 -24.058  0.00  0.00     0.000 A 
ATOM     24  C   UNL d   1      29.127  18.227 -24.769  0.00  0.00     0.002 A 
ATOM     25  C   UNL d   1      29.540  17.571 -25.060  0.00  0.00     0.019 A 
ENDBRANCH  18  20
ENDBRANCH  14  16
ENDBRANCH   1  14
BRANCH   1  26
ATOM     26  C   UNL d   1      32.501  16.342 -23.053  0.00  0.00     0.047 A 
ATOM     27  S   UNL d   1      33.241  15.998 -22.919  0.00  0.00    -0.085 SA
ATOM     28  C   UNL d   1      33.166  15.454 -22.309  0.00  0.00     0.035 A 
ATOM     29  C   UNL d   1      32.378  15.454 -22.058  0.00  0.00     0.007 A 
ATOM     30  C   UNL d   1      31.970  16.002 -22.518  0.00  0.00     0.009 A 
ENDBRANCH   1  26
TORSDOF 6
ENDMDL
