MODEL 1
REMARK VINA RESULT:     189.0      0.000      0.000
REMARK  4 active torsions:
REMARK  status: ('A' for Active; 'I' for Inactive)
REMARK    1  A    between atoms: N_14  and  C_2 
REMARK       I    between atoms: C_9  and  N_11 
REMARK    2  A    between atoms: C_13  and  C_9 
REMARK    3  A    between atoms: C_10  and  C_17 
REMARK       I    between atoms: N_12  and  C_10 
REMARK    4  A    between atoms: C_30  and  N_14 
ROOT
ATOM      1  C   UNL d   1     -56.182-100.455 -42.949  0.00  0.00     0.057 A 
ATOM      2  C   UNL d   1     -56.784 -99.893 -42.794  0.00  0.00     0.006 A 
ATOM      3  C   UNL d   1     -55.785-100.445 -43.672  0.00  0.00     0.006 A 
ATOM      4  C   UNL d   1     -56.575 -99.326 -44.094  0.00  0.00     0.084 A 
ATOM      5  C   UNL d   1     -56.971 -99.336 -43.371  0.00  0.00     0.019 A 
ATOM      6  C   UNL d   1     -55.979 -99.882 -44.248  0.00  0.00     0.019 A 
ENDROOT
BRANCH   1   7
ATOM      7  C   UNL d   1     -55.968-101.032 -42.386  0.00  0.00     0.265 C 
ATOM      8  N   UNL d   1     -56.087-100.895 -41.578  0.00  0.00    -0.270 N 
ATOM      9  C   UNL d   1     -56.265-100.635 -40.702  0.00  0.00     0.096 A 
ATOM     10  C   UNL d   1     -56.088-101.026 -40.764  0.00  0.00     0.096 A 
ATOM     11  C   UNL d   1     -56.026-101.257 -40.221  0.00  0.00     0.077 A 
ATOM     12  N   UNL d   1     -55.944-101.567 -39.460  0.00  0.00    -0.171 NA
ATOM     13  C   UNL d   1     -55.719-102.164 -38.933  0.00  0.00     0.267 C 
ATOM     14  C   UNL d   1     -55.854-101.637 -40.278  0.00  0.00     0.077 A 
ATOM     15  O   UNL d   1     -55.392-102.859 -39.213  0.00  0.00    -0.271 OA
ATOM     16  O   UNL d   1     -55.634-101.748 -42.638  0.00  0.00    -0.267 OA
BRANCH  13  17
ATOM     17  C   UNL d   1     -55.827-102.051 -38.126  0.00  0.00     0.151 A 
ATOM     18  O   UNL d   1     -56.384-102.421 -37.659  0.00  0.00    -0.301 OA
ATOM     19  C   UNL d   1     -56.303-102.151 -36.889  0.00  0.00     0.123 A 
ATOM     20  C   UNL d   1     -55.686-101.607 -36.882  0.00  0.00     0.029 A 
ATOM     21  C   UNL d   1     -55.391-101.544 -37.642  0.00  0.00     0.031 A 
ENDBRANCH  13  17
ENDBRANCH   1   7
BRANCH   4  22
ATOM     22  N   UNL d   1     -56.773 -98.760 -44.668  0.00  0.00    -0.221 NA
BRANCH  22  23
ATOM     23  C   UNL d   1     -57.327 -98.943 -45.258  0.00  0.00     0.194 A 
ATOM     24  S   UNL d   1     -58.108 -99.105 -45.125  0.00  0.00    -0.046 SA
ATOM     25  C   UNL d   1     -58.468 -99.260 -45.866  0.00  0.00     0.062 A 
ATOM     26  C   UNL d   1     -59.176 -99.456 -46.239  0.00  0.00     0.107 A 
ATOM     27  C   UNL d   1     -57.889 -99.188 -46.446  0.00  0.00     0.102 A 
ATOM     28  S   UNL d   1     -59.034 -99.504 -47.041  0.00  0.00     0.213 S 
ATOM     29  C   UNL d   1     -58.244 -99.340 -47.177  0.00  0.00     0.118 A 
ATOM     30  O   UNL d   1     -59.844 -99.685 -47.032  0.00  0.00    -0.217 OA
ATOM     31  O   UNL d   1     -59.030 -99.585 -47.868  0.00  0.00    -0.217 OA
ATOM     32  N   UNL d   1     -57.175 -98.990 -46.071  0.00  0.00    -0.220 NA
ENDBRANCH  22  23
ENDBRANCH   4  22
TORSDOF 4
ENDMDL
