MODEL 1
REMARK VINA RESULT:     122.3      0.000      0.000
REMARK  7 active torsions:
REMARK  status: ('A' for Active; 'I' for Inactive)
REMARK    1  A    between atoms: N_3  and  S_1 
REMARK    2  A    between atoms: C_8  and  S_1 
REMARK    3  A    between atoms: S_2  and  C_7 
REMARK    4  A    between atoms: N_9  and  S_2 
REMARK    5  A    between atoms: C_4  and  N_3 
REMARK       I    between atoms: C_5  and  N_10 
REMARK    6  A    between atoms: C_16  and  C_5 
REMARK    7  A    between atoms: N_10  and  C_24 
ROOT
ATOM      1  C   UNL d   1      61.660  47.510  50.081  0.00  0.00     0.106 A 
ATOM      2  C   UNL d   1      62.036  47.284  49.393  0.00  0.00     0.015 A 
ATOM      3  C   UNL d   1      61.467  46.955  50.660  0.00  0.00     0.015 A 
ATOM      4  C   UNL d   1      62.038  45.932  49.849  0.00  0.00     0.085 A 
ATOM      5  C   UNL d   1      61.657  46.163  50.542  0.00  0.00     0.020 A 
ATOM      6  C   UNL d   1      62.227  46.493  49.275  0.00  0.00     0.020 A 
ENDROOT
BRANCH   4   7
ATOM      7  N   UNL d   1      62.230  45.128  49.732  0.00  0.00    -0.208 NA
ATOM      8  C   UNL d   1      61.818  44.539  50.137  0.00  0.00     0.279 C 
ATOM      9  O   UNL d   1      61.214  44.753  50.659  0.00  0.00    -0.265 OA
BRANCH   8  10
ATOM     10  C   UNL d   1      62.010  43.747  50.019  0.00  0.00     0.058 A 
ATOM     11  C   UNL d   1      62.205  43.265  50.660  0.00  0.00     0.005 A 
ATOM     12  C   UNL d   1      62.396  42.477  50.546  0.00  0.00     0.013 A 
ATOM     13  C   UNL d   1      62.396  42.151  49.781  0.00  0.00     0.104 A 
ATOM     14  C   UNL d   1      62.198  42.642  49.132  0.00  0.00     0.013 A 
ATOM     15  C   UNL d   1      62.008  43.428  49.245  0.00  0.00     0.005 A 
BRANCH  13  16
ATOM     16  S   UNL d   1      62.591  41.351  49.666  0.00  0.00     0.271 S 
ATOM     17  O   UNL d   1      62.188  41.354  48.941  0.00  0.00    -0.200 OA
ATOM     18  O   UNL d   1      62.992  41.353  50.392  0.00  0.00    -0.200 OA
BRANCH  16  19
ATOM     19  N   UNL d   1      62.784  40.556  49.553  0.00  0.00    -0.226 N 
ATOM     20  C   UNL d   1      62.601  40.182  48.831  0.00  0.00     0.111 C 
ATOM     21  C   UNL d   1      63.155  40.131  50.148  0.00  0.00     0.111 C 
ENDBRANCH  16  19
ENDBRANCH  13  16
ENDBRANCH   8  10
ENDBRANCH   4   7
BRANCH   1  22
ATOM     22  S   UNL d   1      61.469  48.302  50.199  0.00  0.00     0.300 S 
ATOM     23  O   UNL d   1      61.574  48.214  51.015  0.00  0.00    -0.198 OA
ATOM     24  O   UNL d   1      61.359  48.406  49.390  0.00  0.00    -0.198 OA
BRANCH  22  25
ATOM     25  N   UNL d   1      61.276  49.101  50.322  0.00  0.00     0.034 NA
BRANCH  25  26
ATOM     26  C   UNL d   1      60.620  49.302  50.776  0.00  0.00     0.760 A 
ATOM     27  N   UNL d   1      60.696  49.404  51.603  0.00  0.00    -0.059 NA
ATOM     28  C   UNL d   1      60.039  49.606  52.057  0.00  0.00     0.102 A 
ATOM     29  C   UNL d   1      60.115  49.707  52.873  0.00  0.00     0.021 C 
ATOM     30  C   UNL d   1      59.307  49.706  51.695  0.00  0.00     0.041 A 
ATOM     31  C   UNL d   1      59.230  49.603  50.868  0.00  0.00     0.120 A 
ATOM     32  N   UNL d   1      59.887  49.403  50.423  0.00  0.00    -0.057 NA
ENDBRANCH  25  26
ENDBRANCH  22  25
ENDBRANCH   1  22
TORSDOF 7
ENDMDL
MODEL 2
REMARK VINA RESULT:     125.0      1.005      7.085
REMARK  7 active torsions:
REMARK  status: ('A' for Active; 'I' for Inactive)
REMARK    1  A    between atoms: N_3  and  S_1 
REMARK    2  A    between atoms: C_8  and  S_1 
REMARK    3  A    between atoms: S_2  and  C_7 
REMARK    4  A    between atoms: N_9  and  S_2 
REMARK    5  A    between atoms: C_4  and  N_3 
REMARK       I    between atoms: C_5  and  N_10 
REMARK    6  A    between atoms: C_16  and  C_5 
REMARK    7  A    between atoms: N_10  and  C_24 
ROOT
ATOM      1  C   UNL d   1      62.428  42.552  50.981  0.00  0.00     0.106 A 
ATOM      2  C   UNL d   1      62.538  43.041  50.337  0.00  0.00     0.015 A 
ATOM      3  C   UNL d   1      62.064  42.830  51.668  0.00  0.00     0.015 A 
ATOM      4  C   UNL d   1      61.917  44.107  51.054  0.00  0.00     0.085 A 
ATOM      5  C   UNL d   1      61.808  43.612  51.702  0.00  0.00     0.020 A 
ATOM      6  C   UNL d   1      62.282  43.822  50.371  0.00  0.00     0.020 A 
ENDROOT
BRANCH   4   7
ATOM      7  N   UNL d   1      61.656  44.899  51.092  0.00  0.00    -0.208 NA
ATOM      8  C   UNL d   1      61.705  45.386  50.427  0.00  0.00     0.279 C 
ATOM      9  O   UNL d   1      62.014  45.080  49.725  0.00  0.00    -0.265 OA
BRANCH   8  10
ATOM     10  C   UNL d   1      61.447  46.166  50.468  0.00  0.00     0.058 A 
ATOM     11  C   UNL d   1      60.919  46.401  51.056  0.00  0.00     0.005 A 
ATOM     12  C   UNL d   1      60.660  47.178  51.099  0.00  0.00     0.013 A 
ATOM     13  C   UNL d   1      60.928  47.741  50.548  0.00  0.00     0.104 A 
ATOM     14  C   UNL d   1      61.464  47.499  49.951  0.00  0.00     0.013 A 
ATOM     15  C   UNL d   1      61.722  46.726  49.908  0.00  0.00     0.005 A 
BRANCH  13  16
ATOM     16  S   UNL d   1      60.665  48.528  50.593  0.00  0.00     0.271 S 
ATOM     17  O   UNL d   1      61.409  48.793  50.341  0.00  0.00    -0.200 OA
ATOM     18  O   UNL d   1      59.922  48.257  50.844  0.00  0.00    -0.200 OA
BRANCH  16  19
ATOM     19  N   UNL d   1      60.404  49.309  50.637  0.00  0.00    -0.226 N 
ATOM     20  C   UNL d   1      60.155  49.706  49.947  0.00  0.00     0.111 C 
ATOM     21  C   UNL d   1      60.387  49.701  51.358  0.00  0.00     0.111 C 
ENDBRANCH  16  19
ENDBRANCH  13  16
ENDBRANCH   8  10
ENDBRANCH   4   7
BRANCH   1  22
ATOM     22  S   UNL d   1      62.684  41.770  50.947  0.00  0.00     0.300 S 
ATOM     23  O   UNL d   1      63.157  41.944  50.291  0.00  0.00    -0.198 OA
ATOM     24  O   UNL d   1      62.220  41.580  51.599  0.00  0.00    -0.198 OA
BRANCH  22  25
ATOM     25  N   UNL d   1      62.944  40.982  50.910  0.00  0.00     0.034 NA
BRANCH  25  26
ATOM     26  C   UNL d   1      62.777  40.523  50.248  0.00  0.00     0.760 A 
ATOM     27  N   UNL d   1      62.537  39.726  50.338  0.00  0.00    -0.059 NA
ATOM     28  C   UNL d   1      62.370  39.267  49.675  0.00  0.00     0.102 A 
ATOM     29  C   UNL d   1      62.133  38.482  49.764  0.00  0.00     0.021 C 
ATOM     30  C   UNL d   1      62.441  39.594  48.923  0.00  0.00     0.041 A 
ATOM     31  C   UNL d   1      62.681  40.391  48.832  0.00  0.00     0.120 A 
ATOM     32  N   UNL d   1      62.845  40.841  49.496  0.00  0.00    -0.057 NA
ENDBRANCH  25  26
ENDBRANCH  22  25
ENDBRANCH   1  22
TORSDOF 7
ENDMDL
