MODEL 1
REMARK VINA RESULT:      -8.5      0.000      0.000
REMARK  3 active torsions:
REMARK  status: ('A' for Active; 'I' for Inactive)
REMARK    1  A    between atoms: C_4  and  C_1 
REMARK    2  A    between atoms: N_2  and  C_3 
REMARK    3  A    between atoms: C_5  and  N_2 
ROOT
ATOM      1  C   UNL d   1     -46.717  12.732  23.103  0.00  0.00     0.082 A 
ATOM      2  C   UNL d   1     -47.540  12.827  23.001  0.00  0.00     0.087 A 
ATOM      3  C   UNL d   1     -46.421  12.049  23.447  0.00  0.00     0.008 A 
ATOM      4  C   UNL d   1     -48.051  12.229  23.251  0.00  0.00     0.019 A 
ATOM      5  C   UNL d   1     -46.942  11.447  23.698  0.00  0.00     0.000 A 
ATOM      6  C   UNL d   1     -47.755  11.545  23.596  0.00  0.00     0.002 A 
ENDROOT
BRANCH   2   7
ATOM      7  N   UNL d   1     -47.837  13.511  22.656  0.00  0.00    -0.245 NA
BRANCH   7   8
ATOM      8  C   UNL d   1     -48.572  13.513  22.269  0.00  0.00     0.081 A 
ATOM      9  C   UNL d   1     -49.121  14.101  22.408  0.00  0.00     0.018 A 
ATOM     10  C   UNL d   1     -49.851  14.099  22.020  0.00  0.00     0.002 A 
ATOM     11  C   UNL d   1     -48.942  14.693  22.936  0.00  0.00     0.002 C 
ATOM     12  C   UNL d   1     -50.396  14.682  22.158  0.00  0.00     0.000 C 
ATOM     13  C   UNL d   1     -50.015  13.484  21.483  0.00  0.00     0.000 A 
ATOM     14  C   UNL d   1     -49.466  12.896  21.344  0.00  0.00     0.002 A 
ATOM     15  C   UNL d   1     -48.728  12.897  21.735  0.00  0.00     0.019 A 
ENDBRANCH   7   8
ENDBRANCH   2   7
BRANCH   1  16
ATOM     16  C   UNL d   1     -46.207  13.331  22.853  0.00  0.00     0.212 C 
ATOM     17  O   UNL d   1     -45.877  13.310  22.101  0.00  0.00    -0.644 OA
ATOM     18  O   UNL d   1     -46.022  13.954  23.350  0.00  0.00    -0.644 OA
ENDBRANCH   1  16
TORSDOF 3
ENDMDL
MODEL 2
REMARK VINA RESULT:      -8.1      1.147      1.957
REMARK  3 active torsions:
REMARK  status: ('A' for Active; 'I' for Inactive)
REMARK    1  A    between atoms: C_4  and  C_1 
REMARK    2  A    between atoms: N_2  and  C_3 
REMARK    3  A    between atoms: C_5  and  N_2 
ROOT
ATOM      1  C   UNL d   1     -46.720  13.682  22.810  0.00  0.00     0.082 A 
ATOM      2  C   UNL d   1     -47.548  13.602  22.741  0.00  0.00     0.087 A 
ATOM      3  C   UNL d   1     -46.370  14.422  22.750  0.00  0.00     0.008 A 
ATOM      4  C   UNL d   1     -48.010  14.274  22.613  0.00  0.00     0.019 A 
ATOM      5  C   UNL d   1     -46.842  15.098  22.620  0.00  0.00     0.000 A 
ATOM      6  C   UNL d   1     -47.660  15.015  22.553  0.00  0.00     0.002 A 
ENDROOT
BRANCH   2   7
ATOM      7  N   UNL d   1     -47.898  12.862  22.801  0.00  0.00    -0.245 NA
BRANCH   7   8
ATOM      8  C   UNL d   1     -48.663  12.723  22.508  0.00  0.00     0.081 A 
ATOM      9  C   UNL d   1     -49.220  12.326  22.954  0.00  0.00     0.018 A 
ATOM     10  C   UNL d   1     -49.980  12.190  22.658  0.00  0.00     0.002 A 
ATOM     11  C   UNL d   1     -49.019  12.065  23.698  0.00  0.00     0.002 C 
ATOM     12  C   UNL d   1     -50.533  11.797  23.101  0.00  0.00     0.000 C 
ATOM     13  C   UNL d   1     -50.166  12.466  21.895  0.00  0.00     0.000 A 
ATOM     14  C   UNL d   1     -49.609  12.862  21.449  0.00  0.00     0.002 A 
ATOM     15  C   UNL d   1     -48.840  13.000  21.746  0.00  0.00     0.019 A 
ENDBRANCH   7   8
ENDBRANCH   2   7
BRANCH   1  16
ATOM     16  C   UNL d   1     -46.258  13.010  22.938  0.00  0.00     0.212 C 
ATOM     17  O   UNL d   1     -45.940  12.596  22.304  0.00  0.00    -0.644 OA
ATOM     18  O   UNL d   1     -46.111  12.745  23.698  0.00  0.00    -0.644 OA
ENDBRANCH   1  16
TORSDOF 3
ENDMDL
MODEL 3
REMARK VINA RESULT:      -7.9      1.596      2.051
REMARK  3 active torsions:
REMARK  status: ('A' for Active; 'I' for Inactive)
REMARK    1  A    between atoms: C_4  and  C_1 
REMARK    2  A    between atoms: N_2  and  C_3 
REMARK    3  A    between atoms: C_5  and  N_2 
ROOT
ATOM      1  C   UNL d   1     -47.927  11.977  23.171  0.00  0.00     0.082 A 
ATOM      2  C   UNL d   1     -48.037  12.804  23.155  0.00  0.00     0.087 A 
ATOM      3  C   UNL d   1     -47.182  11.664  23.318  0.00  0.00     0.008 A 
ATOM      4  C   UNL d   1     -47.392  13.302  23.288  0.00  0.00     0.019 A 
ATOM      5  C   UNL d   1     -46.534  12.171  23.452  0.00  0.00     0.000 A 
ATOM      6  C   UNL d   1     -46.648  12.988  23.435  0.00  0.00     0.002 A 
ENDROOT
BRANCH   2   7
ATOM      7  N   UNL d   1     -48.782  13.118  23.008  0.00  0.00    -0.245 NA
BRANCH   7   8
ATOM      8  C   UNL d   1     -48.886  13.930  22.869  0.00  0.00     0.081 A 
ATOM      9  C   UNL d   1     -49.502  14.342  23.212  0.00  0.00     0.018 A 
ATOM     10  C   UNL d   1     -49.603  15.150  23.071  0.00  0.00     0.002 A 
ATOM     11  C   UNL d   1     -50.021  13.945  23.698  0.00  0.00     0.002 C 
ATOM     12  C   UNL d   1     -50.214  15.558  23.411  0.00  0.00     0.000 C 
ATOM     13  C   UNL d   1     -49.061  15.537  22.570  0.00  0.00     0.000 A 
ATOM     14  C   UNL d   1     -48.445  15.126  22.227  0.00  0.00     0.002 A 
ATOM     15  C   UNL d   1     -48.342  14.308  22.369  0.00  0.00     0.019 A 
ENDBRANCH   7   8
ENDBRANCH   2   7
BRANCH   1  16
ATOM     16  C   UNL d   1     -48.572  11.480  23.037  0.00  0.00     0.212 C 
ATOM     17  O   UNL d   1     -48.984  11.154  23.668  0.00  0.00    -0.644 OA
ATOM     18  O   UNL d   1     -48.811  11.304  22.275  0.00  0.00    -0.644 OA
ENDBRANCH   1  16
TORSDOF 3
ENDMDL
MODEL 4
REMARK VINA RESULT:      -7.7      1.606      3.580
REMARK  3 active torsions:
REMARK  status: ('A' for Active; 'I' for Inactive)
REMARK    1  A    between atoms: C_4  and  C_1 
REMARK    2  A    between atoms: N_2  and  C_3 
REMARK    3  A    between atoms: C_5  and  N_2 
ROOT
ATOM      1  C   UNL d   1     -49.840  13.967  22.346  0.00  0.00     0.082 A 
ATOM      2  C   UNL d   1     -49.111  13.839  22.732  0.00  0.00     0.087 A 
ATOM      3  C   UNL d   1     -50.243  14.675  22.448  0.00  0.00     0.008 A 
ATOM      4  C   UNL d   1     -48.801  14.431  23.216  0.00  0.00     0.019 A 
ATOM      5  C   UNL d   1     -49.924  15.269  22.939  0.00  0.00     0.000 A 
ATOM      6  C   UNL d   1     -49.204  15.139  23.319  0.00  0.00     0.002 A 
ENDROOT
BRANCH   2   7
ATOM      7  N   UNL d   1     -48.709  13.131  22.629  0.00  0.00    -0.245 NA
BRANCH   7   8
ATOM      8  C   UNL d   1     -47.892  13.077  22.770  0.00  0.00     0.081 A 
ATOM      9  C   UNL d   1     -47.573  12.439  23.166  0.00  0.00     0.018 A 
ATOM     10  C   UNL d   1     -46.759  12.388  23.304  0.00  0.00     0.002 A 
ATOM     11  C   UNL d   1     -48.068  11.847  23.427  0.00  0.00     0.002 C 
ATOM     12  C   UNL d   1     -46.443  11.755  23.698  0.00  0.00     0.000 C 
ATOM     13  C   UNL d   1     -46.270  13.004  23.030  0.00  0.00     0.000 A 
ATOM     14  C   UNL d   1     -46.589  13.642  22.633  0.00  0.00     0.002 A 
ATOM     15  C   UNL d   1     -47.411  13.694  22.493  0.00  0.00     0.019 A 
ENDBRANCH   7   8
ENDBRANCH   2   7
BRANCH   1  16
ATOM     16  C   UNL d   1     -50.150  13.375  21.861  0.00  0.00     0.212 C 
ATOM     17  O   UNL d   1     -50.663  12.811  22.168  0.00  0.00    -0.644 OA
ATOM     18  O   UNL d   1     -49.952  13.340  21.068  0.00  0.00    -0.644 OA
ENDBRANCH   1  16
TORSDOF 3
ENDMDL
MODEL 5
REMARK VINA RESULT:      -6.0      8.075      9.465
REMARK  3 active torsions:
REMARK  status: ('A' for Active; 'I' for Inactive)
REMARK    1  A    between atoms: C_4  and  C_1 
REMARK    2  A    between atoms: N_2  and  C_3 
REMARK    3  A    between atoms: C_5  and  N_2 
ROOT
ATOM      1  C   UNL d   1     -39.940  14.687  17.602  0.00  0.00     0.082 A 
ATOM      2  C   UNL d   1     -40.052  15.104  18.317  0.00  0.00     0.087 A 
ATOM      3  C   UNL d   1     -40.374  14.890  16.935  0.00  0.00     0.008 A 
ATOM      4  C   UNL d   1     -40.602  15.719  18.345  0.00  0.00     0.019 A 
ATOM      5  C   UNL d   1     -40.928  15.513  16.970  0.00  0.00     0.000 A 
ATOM      6  C   UNL d   1     -41.035  15.921  17.678  0.00  0.00     0.002 A 
ENDROOT
BRANCH   2   7
ATOM      7  N   UNL d   1     -39.618  14.901  18.984  0.00  0.00    -0.245 NA
BRANCH   7   8
ATOM      8  C   UNL d   1     -39.916  15.037  19.748  0.00  0.00     0.081 A 
ATOM      9  C   UNL d   1     -39.467  15.414  20.315  0.00  0.00     0.018 A 
ATOM     10  C   UNL d   1     -39.767  15.547  21.074  0.00  0.00     0.002 A 
ATOM     11  C   UNL d   1     -38.714  15.660  20.125  0.00  0.00     0.002 C 
ATOM     12  C   UNL d   1     -39.321  15.922  21.637  0.00  0.00     0.000 C 
ATOM     13  C   UNL d   1     -40.539  15.288  21.248  0.00  0.00     0.000 A 
ATOM     14  C   UNL d   1     -40.988  14.911  20.681  0.00  0.00     0.002 A 
ATOM     15  C   UNL d   1     -40.686  14.775  19.913  0.00  0.00     0.019 A 
ENDBRANCH   7   8
ENDBRANCH   2   7
BRANCH   1  16
ATOM     16  C   UNL d   1     -39.391  14.072  17.574  0.00  0.00     0.212 C 
ATOM     17  O   UNL d   1     -39.624  13.298  17.714  0.00  0.00    -0.644 OA
ATOM     18  O   UNL d   1     -38.604  14.224  17.406  0.00  0.00    -0.644 OA
ENDBRANCH   1  16
TORSDOF 3
ENDMDL
MODEL 6
REMARK VINA RESULT:      -5.8      7.675      9.082
REMARK  3 active torsions:
REMARK  status: ('A' for Active; 'I' for Inactive)
REMARK    1  A    between atoms: C_4  and  C_1 
REMARK    2  A    between atoms: N_2  and  C_3 
REMARK    3  A    between atoms: C_5  and  N_2 
ROOT
ATOM      1  C   UNL d   1     -40.321  15.517  20.811  0.00  0.00     0.082 A 
ATOM      2  C   UNL d   1     -40.039  15.498  20.026  0.00  0.00     0.087 A 
ATOM      3  C   UNL d   1     -39.814  15.717  21.426  0.00  0.00     0.008 A 
ATOM      4  C   UNL d   1     -39.249  15.682  19.874  0.00  0.00     0.019 A 
ATOM      5  C   UNL d   1     -39.017  15.903  21.267  0.00  0.00     0.000 A 
ATOM      6  C   UNL d   1     -38.743  15.883  20.489  0.00  0.00     0.002 A 
ENDROOT
BRANCH   2   7
ATOM      7  N   UNL d   1     -40.545  15.297  19.411  0.00  0.00    -0.245 NA
BRANCH   7   8
ATOM      8  C   UNL d   1     -40.257  14.951  18.713  0.00  0.00     0.081 A 
ATOM      9  C   UNL d   1     -40.459  15.249  17.980  0.00  0.00     0.018 A 
ATOM     10  C   UNL d   1     -40.171  14.902  17.287  0.00  0.00     0.002 A 
ATOM     11  C   UNL d   1     -40.952  15.896  17.938  0.00  0.00     0.002 C 
ATOM     12  C   UNL d   1     -40.371  15.198  16.560  0.00  0.00     0.000 C 
ATOM     13  C   UNL d   1     -39.668  14.241  17.352  0.00  0.00     0.000 A 
ATOM     14  C   UNL d   1     -39.466  13.944  18.085  0.00  0.00     0.002 A 
ATOM     15  C   UNL d   1     -39.757  14.293  18.786  0.00  0.00     0.019 A 
ENDBRANCH   7   8
ENDBRANCH   2   7
BRANCH   1  16
ATOM     16  C   UNL d   1     -41.110  15.332  20.963  0.00  0.00     0.212 C 
ATOM     17  O   UNL d   1     -41.340  14.553  21.085  0.00  0.00    -0.644 OA
ATOM     18  O   UNL d   1     -41.677  15.921  20.993  0.00  0.00    -0.644 OA
ENDBRANCH   1  16
TORSDOF 3
ENDMDL
