MODEL 1
REMARK VINA RESULT:      -5.0      0.000      0.000
REMARK  4 active torsions:
REMARK  status: ('A' for Active; 'I' for Inactive)
REMARK    1  A    between atoms: C_9  and  N_1 
REMARK    2  A    between atoms: C_6  and  C_2 
REMARK       I    between atoms: N_8  and  C_6 
REMARK    3  A    between atoms: C_15  and  N_8 
REMARK    4  A    between atoms: C_13  and  C_9 
ROOT
ATOM      1  N   UNL d   1      59.002  -0.721  29.217  0.00  0.00    -0.258 N 
ATOM      2  C   UNL d   1      58.416  -0.233  30.337  0.00  0.00     0.114 A 
ATOM      3  C   UNL d   1      58.395  -0.709  29.716  0.00  0.00     0.270 A 
ATOM      4  C   UNL d   1      59.622  -0.262  29.337  0.00  0.00     0.150 A 
ATOM      5  C   UNL d   1      59.036   0.228  30.461  0.00  0.00     0.013 A 
ATOM      6  C   UNL d   1      59.636   0.212  29.960  0.00  0.00     0.035 A 
ATOM      7  N   UNL d   1      60.214  -0.276  28.844  0.00  0.00    -0.227 NA
ATOM      8  O   UNL d   1      57.768  -0.994  29.835  0.00  0.00    -0.266 OA
ATOM      9  C   UNL d   1      60.256   0.676  30.086  0.00  0.00     0.005 A 
ATOM     10  C   UNL d   1      60.830   0.177  28.959  0.00  0.00     0.101 A 
ATOM     11  C   UNL d   1      60.851   0.653  29.581  0.00  0.00     0.021 A 
ENDROOT
BRANCH   2  12
ATOM     12  C   UNL d   1      57.813  -0.218  30.839  0.00  0.00     0.284 C 
ATOM     13  N   UNL d   1      57.719  -0.497  31.618  0.00  0.00    -0.208 NA
ATOM     14  O   UNL d   1      57.433   0.078  30.441  0.00  0.00    -0.265 OA
BRANCH  13  15
ATOM     15  C   UNL d   1      56.980  -0.393  32.021  0.00  0.00     0.085 A 
ATOM     16  C   UNL d   1      56.707   0.367  32.211  0.00  0.00     0.019 A 
ATOM     17  C   UNL d   1      55.985   0.454  32.603  0.00  0.00     0.002 A 
ATOM     18  C   UNL d   1      55.539  -0.210  32.803  0.00  0.00     0.000 A 
ATOM     19  C   UNL d   1      55.797  -0.975  32.621  0.00  0.00     0.002 A 
ATOM     20  C   UNL d   1      56.528  -1.062  32.224  0.00  0.00     0.019 A 
ENDBRANCH  13  15
ENDBRANCH   2  12
BRANCH   1  21
ATOM     21  C   UNL d   1      58.983  -1.227  28.553  0.00  0.00     0.084 C 
BRANCH  21  22
ATOM     22  C   UNL d   1      59.055  -1.861  28.635  0.00  0.00     0.018 A 
ATOM     23  C   UNL d   1      58.366  -2.357  28.473  0.00  0.00     0.004 A 
ATOM     24  C   UNL d   1      58.417  -3.217  28.570  0.00  0.00     0.030 A 
ATOM     25  C   UNL d   1      59.154  -3.575  28.828  0.00  0.00     0.140 A 
ATOM     26  C   UNL d   1      59.846  -3.091  28.993  0.00  0.00     0.030 A 
ATOM     27  F   UNL d   1      59.205  -4.413  28.923  0.00  0.00    -0.204 F 
ATOM     28  C   UNL d   1      59.799  -2.224  28.896  0.00  0.00     0.004 A 
ENDBRANCH  21  22
ENDBRANCH   1  21
TORSDOF 4
ENDMDL
