MODEL 1
REMARK VINA RESULT:       6.8      0.000      0.000
REMARK  5 active torsions:
REMARK  status: ('A' for Active; 'I' for Inactive)
REMARK    1  A    between atoms: C_7  and  C_3 
REMARK    2  A    between atoms: C_8  and  C_7 
REMARK       I    between atoms: N_14  and  C_8 
REMARK    3  A    between atoms: N_9  and  C_16 
REMARK    4  A    between atoms: C_15  and  N_14 
REMARK    5  A    between atoms: C_16  and  C_15 
ROOT
ATOM      1  C   UNL d   1      45.740 -15.333  44.560  0.00  0.00     0.281 C 
ATOM      2  O   UNL d   1      46.528 -15.156  44.392  0.00  0.00    -0.265 OA
ATOM      3  N   UNL d   1      45.474 -16.111  44.515  0.00  0.00    -0.205 NA
ENDROOT
BRANCH   1   4
ATOM      4  C   UNL d   1      45.219 -14.732  44.772  0.00  0.00     0.082 C 
BRANCH   4   5
ATOM      5  C   UNL d   1      45.324 -13.968  44.473  0.00  0.00     0.096 A 
ATOM      6  C   UNL d   1      44.934 -13.740  43.782  0.00  0.00     0.082 A 
ATOM      7  C   UNL d   1      45.031 -12.976  43.473  0.00  0.00     0.285 A 
ATOM      8  N   UNL d   1      45.527 -12.452  43.874  0.00  0.00    -0.152 NA
ATOM      9  O   UNL d   1      44.645 -12.750  42.789  0.00  0.00    -0.265 OA
ATOM     10  C   UNL d   1      45.917 -12.680  44.564  0.00  0.00     0.371 A 
ATOM     11  N   UNL d   1      45.814 -13.435  44.860  0.00  0.00    -0.191 NA
ATOM     12  O   UNL d   1      46.410 -12.145  44.955  0.00  0.00    -0.242 OA
ENDBRANCH   4   5
ENDBRANCH   1   4
BRANCH   3  13
ATOM     13  C   UNL d   1      45.995 -16.711  44.304  0.00  0.00     0.121 C 
BRANCH  13  14
ATOM     14  C   UNL d   1      45.952 -17.452  44.677  0.00  0.00     0.101 C 
BRANCH  14  15
ATOM     15  N   UNL d   1      46.179 -18.137  44.286  0.00  0.00    -0.298 N 
ATOM     16  C   UNL d   1      46.310 -18.817  44.734  0.00  0.00     0.107 A 
ATOM     17  C   UNL d   1      46.540 -19.517  44.342  0.00  0.00     0.142 A 
ATOM     18  O   UNL d   1      46.632 -19.522  43.527  0.00  0.00    -0.300 OA
ATOM     19  C   UNL d   1      46.496 -18.831  43.098  0.00  0.00     0.142 A 
ATOM     20  C   UNL d   1      46.269 -18.141  43.480  0.00  0.00     0.107 A 
ENDBRANCH  14  15
ENDBRANCH  13  14
ENDBRANCH   3  13
TORSDOF 5
ENDMDL
MODEL 2
REMARK VINA RESULT:       7.7      1.258      5.339
REMARK  5 active torsions:
REMARK  status: ('A' for Active; 'I' for Inactive)
REMARK    1  A    between atoms: C_7  and  C_3 
REMARK    2  A    between atoms: C_8  and  C_7 
REMARK       I    between atoms: N_14  and  C_8 
REMARK    3  A    between atoms: N_9  and  C_16 
REMARK    4  A    between atoms: C_15  and  N_14 
REMARK    5  A    between atoms: C_16  and  C_15 
ROOT
ATOM      1  C   UNL d   1      46.034 -17.357  43.648  0.00  0.00     0.281 C 
ATOM      2  O   UNL d   1      45.347 -17.417  43.195  0.00  0.00    -0.265 OA
ATOM      3  N   UNL d   1      46.106 -16.758  44.208  0.00  0.00    -0.205 NA
ENDROOT
BRANCH   1   4
ATOM      4  C   UNL d   1      46.647 -17.894  43.540  0.00  0.00     0.082 C 
BRANCH   4   5
ATOM      5  C   UNL d   1      46.489 -18.706  43.530  0.00  0.00     0.096 A 
ATOM      6  C   UNL d   1      46.452 -19.108  42.810  0.00  0.00     0.082 A 
ATOM      7  C   UNL d   1      46.294 -19.923  42.787  0.00  0.00     0.285 A 
ATOM      8  N   UNL d   1      46.177 -20.319  43.502  0.00  0.00    -0.152 NA
ATOM      9  O   UNL d   1      46.257 -20.321  42.075  0.00  0.00    -0.265 OA
ATOM     10  C   UNL d   1      46.215 -19.916  44.221  0.00  0.00     0.371 A 
ATOM     11  N   UNL d   1      46.370 -19.114  44.232  0.00  0.00    -0.191 NA
ATOM     12  O   UNL d   1      46.095 -20.325  44.929  0.00  0.00    -0.242 OA
ENDBRANCH   4   5
ENDBRANCH   1   4
BRANCH   3  13
ATOM     13  C   UNL d   1      45.493 -16.220  44.316  0.00  0.00     0.121 C 
BRANCH  13  14
ATOM     14  C   UNL d   1      45.548 -15.636  44.904  0.00  0.00     0.101 C 
BRANCH  14  15
ATOM     15  N   UNL d   1      45.468 -14.840  44.719  0.00  0.00    -0.298 N 
ATOM     16  C   UNL d   1      46.140 -14.362  44.751  0.00  0.00     0.107 A 
ATOM     17  C   UNL d   1      46.066 -13.553  44.565  0.00  0.00     0.142 A 
ATOM     18  O   UNL d   1      45.336 -13.243  44.354  0.00  0.00    -0.300 OA
ATOM     19  C   UNL d   1      44.677 -13.738  44.328  0.00  0.00     0.142 A 
ATOM     20  C   UNL d   1      44.746 -14.535  44.511  0.00  0.00     0.107 A 
ENDBRANCH  14  15
ENDBRANCH  13  14
ENDBRANCH   3  13
TORSDOF 5
ENDMDL
