MODEL 1
REMARK VINA RESULT:      -8.9      0.000      0.000
REMARK  6 active torsions:
REMARK  status: ('A' for Active; 'I' for Inactive)
REMARK    1  A    between atoms: N_2  and  S_1 
REMARK    2  A    between atoms: C_6  and  S_1 
REMARK    3  A    between atoms: N_4  and  C_3 
REMARK       I    between atoms: C_5  and  N_4 
REMARK       I    between atoms: N_10  and  C_5 
REMARK    4  A    between atoms: C_7  and  C_11 
REMARK    5  A    between atoms: O_20  and  C_7 
REMARK    6  A    between atoms: C_14  and  N_10 
ROOT
ATOM      1  N   UNL d   1      54.237  33.056  54.713  0.00  0.00    -0.214 N 
ATOM      2  C   UNL d   1      54.054  33.868  54.717  0.00  0.00     0.162 A 
ATOM      3  C   UNL d   1      54.849  32.932  55.261  0.00  0.00     0.093 A 
ATOM      4  C   UNL d   1      54.552  34.242  55.266  0.00  0.00     0.040 A 
ATOM      5  C   UNL d   1      55.036  33.669  55.597  0.00  0.00     0.023 A 
ENDROOT
BRANCH   2   6
ATOM      6  N   UNL d   1      53.467  34.235  54.246  0.00  0.00    -0.173 NA
ATOM      7  C   UNL d   1      53.191  34.983  54.450  0.00  0.00     0.370 C 
ATOM      8  N   UNL d   1      52.610  35.348  53.985  0.00  0.00    -0.191 NA
ATOM      9  O   UNL d   1      53.485  35.375  55.116  0.00  0.00    -0.242 OA
BRANCH   8  10
ATOM     10  C   UNL d   1      52.312  34.963  53.321  0.00  0.00     0.086 A 
ATOM     11  C   UNL d   1      51.543  34.663  53.329  0.00  0.00     0.025 A 
ATOM     12  C   UNL d   1      51.245  34.278  52.664  0.00  0.00     0.065 A 
ATOM     13  C   UNL d   1      51.718  34.193  51.989  0.00  0.00     0.005 A 
ATOM     14  C   UNL d   1      52.484  34.494  51.985  0.00  0.00     0.002 A 
ATOM     15  C   UNL d   1      52.783  34.878  52.649  0.00  0.00     0.019 A 
BRANCH  12  16
ATOM     16  C   UNL d   1      50.473  33.980  52.679  0.00  0.00     0.296 C 
ATOM     17  O   UNL d   1      50.276  33.357  53.169  0.00  0.00    -0.259 OA
BRANCH  16  18
ATOM     18  O   UNL d   1      49.901  34.321  52.192  0.00  0.00    -0.296 OA
ATOM     19  C   UNL d   1      49.114  34.331  52.415  0.00  0.00     0.185 C 
ENDBRANCH  16  18
ENDBRANCH  12  16
ENDBRANCH   8  10
ENDBRANCH   2   6
BRANCH   1  20
ATOM     20  S   UNL d   1      53.937  32.418  54.293  0.00  0.00     0.272 S 
ATOM     21  O   UNL d   1      53.384  32.272  54.851  0.00  0.00    -0.200 OA
ATOM     22  O   UNL d   1      54.491  32.538  53.698  0.00  0.00    -0.200 OA
BRANCH  20  23
ATOM     23  C   UNL d   1      53.624  31.767  53.872  0.00  0.00     0.104 A 
ATOM     24  C   UNL d   1      53.982  31.517  53.174  0.00  0.00     0.014 A 
ATOM     25  C   UNL d   1      53.671  30.880  52.768  0.00  0.00     0.012 A 
ATOM     26  C   UNL d   1      52.998  30.482  53.053  0.00  0.00     0.058 A 
ATOM     27  C   UNL d   1      52.642  30.731  53.750  0.00  0.00     0.012 A 
ATOM     28 CL   UNL d   1      52.686  29.836  52.639  0.00  0.00    -0.082 Cl
ATOM     29  C   UNL d   1      52.956  31.381  54.167  0.00  0.00     0.014 A 
ENDBRANCH  20  23
ENDBRANCH   1  20
TORSDOF 6
ENDMDL
MODEL 2
REMARK VINA RESULT:      -8.3      1.701      3.950
REMARK  6 active torsions:
REMARK  status: ('A' for Active; 'I' for Inactive)
REMARK    1  A    between atoms: N_2  and  S_1 
REMARK    2  A    between atoms: C_6  and  S_1 
REMARK    3  A    between atoms: N_4  and  C_3 
REMARK       I    between atoms: C_5  and  N_4 
REMARK       I    between atoms: N_10  and  C_5 
REMARK    4  A    between atoms: C_7  and  C_11 
REMARK    5  A    between atoms: O_20  and  C_7 
REMARK    6  A    between atoms: C_14  and  N_10 
ROOT
ATOM      1  N   UNL d   1      53.151  33.900  54.298  0.00  0.00    -0.214 N 
ATOM      2  C   UNL d   1      53.736  33.318  54.406  0.00  0.00     0.162 A 
ATOM      3  C   UNL d   1      53.323  34.530  54.812  0.00  0.00     0.093 A 
ATOM      4  C   UNL d   1      54.266  33.589  54.984  0.00  0.00     0.040 A 
ATOM      5  C   UNL d   1      54.012  34.328  55.231  0.00  0.00     0.023 A 
ENDROOT
BRANCH   2   6
ATOM      6  N   UNL d   1      53.775  32.589  53.996  0.00  0.00    -0.173 NA
ATOM      7  C   UNL d   1      54.480  32.361  53.638  0.00  0.00     0.370 C 
ATOM      8  N   UNL d   1      54.521  31.640  53.232  0.00  0.00    -0.191 NA
ATOM      9  O   UNL d   1      55.150  32.844  53.677  0.00  0.00    -0.242 OA
BRANCH   8  10
ATOM     10  C   UNL d   1      53.858  31.153  53.189  0.00  0.00     0.086 A 
ATOM     11  C   UNL d   1      53.727  30.583  53.771  0.00  0.00     0.025 A 
ATOM     12  C   UNL d   1      53.063  30.096  53.727  0.00  0.00     0.065 A 
ATOM     13  C   UNL d   1      52.529  30.180  53.099  0.00  0.00     0.005 A 
ATOM     14  C   UNL d   1      52.664  30.750  52.520  0.00  0.00     0.002 A 
ATOM     15  C   UNL d   1      53.327  31.237  52.563  0.00  0.00     0.019 A 
BRANCH  12  16
ATOM     16  C   UNL d   1      52.938  29.527  54.315  0.00  0.00     0.296 C 
ATOM     17  O   UNL d   1      52.257  29.535  54.766  0.00  0.00    -0.259 OA
BRANCH  16  18
ATOM     18  O   UNL d   1      53.512  28.947  54.442  0.00  0.00    -0.296 OA
ATOM     19  C   UNL d   1      53.446  28.424  55.067  0.00  0.00     0.185 C 
ENDBRANCH  16  18
ENDBRANCH  12  16
ENDBRANCH   8  10
ENDBRANCH   2   6
BRANCH   1  20
ATOM     20  S   UNL d   1      52.492  33.947  53.810  0.00  0.00     0.272 S 
ATOM     21  O   UNL d   1      52.891  34.371  53.263  0.00  0.00    -0.200 OA
ATOM     22  O   UNL d   1      52.051  33.513  54.349  0.00  0.00    -0.200 OA
BRANCH  20  23
ATOM     23  C   UNL d   1      51.828  34.000  53.306  0.00  0.00     0.104 A 
ATOM     24  C   UNL d   1      51.093  33.734  53.564  0.00  0.00     0.014 A 
ATOM     25  C   UNL d   1      50.447  33.788  53.067  0.00  0.00     0.012 A 
ATOM     26  C   UNL d   1      50.525  34.110  52.303  0.00  0.00     0.058 A 
ATOM     27  C   UNL d   1      51.259  34.375  52.046  0.00  0.00     0.012 A 
ATOM     28 CL   UNL d   1      49.868  34.163  51.802  0.00  0.00    -0.082 Cl
ATOM     29  C   UNL d   1      51.920  34.321  52.550  0.00  0.00     0.014 A 
ENDBRANCH  20  23
ENDBRANCH   1  20
TORSDOF 6
ENDMDL
MODEL 3
REMARK VINA RESULT:      -8.0      1.797      3.076
REMARK  6 active torsions:
REMARK  status: ('A' for Active; 'I' for Inactive)
REMARK    1  A    between atoms: N_2  and  S_1 
REMARK    2  A    between atoms: C_6  and  S_1 
REMARK    3  A    between atoms: N_4  and  C_3 
REMARK       I    between atoms: C_5  and  N_4 
REMARK       I    between atoms: N_10  and  C_5 
REMARK    4  A    between atoms: C_7  and  C_11 
REMARK    5  A    between atoms: O_20  and  C_7 
REMARK    6  A    between atoms: C_14  and  N_10 
ROOT
ATOM      1  N   UNL d   1      53.398  31.321  53.583  0.00  0.00    -0.214 N 
ATOM      2  C   UNL d   1      52.657  31.340  53.205  0.00  0.00     0.162 A 
ATOM      3  C   UNL d   1      53.667  30.534  53.574  0.00  0.00     0.093 A 
ATOM      4  C   UNL d   1      52.471  30.568  52.963  0.00  0.00     0.040 A 
ATOM      5  C   UNL d   1      53.088  30.078  53.189  0.00  0.00     0.023 A 
ENDROOT
BRANCH   2   6
ATOM      6  N   UNL d   1      52.188  32.024  53.092  0.00  0.00    -0.173 NA
ATOM      7  C   UNL d   1      51.371  31.974  53.172  0.00  0.00     0.370 C 
ATOM      8  N   UNL d   1      50.905  32.650  53.061  0.00  0.00    -0.191 NA
ATOM      9  O   UNL d   1      51.007  31.257  53.363  0.00  0.00    -0.242 OA
BRANCH   8  10
ATOM     10  C   UNL d   1      51.260  33.369  52.871  0.00  0.00     0.086 A 
ATOM     11  C   UNL d   1      51.359  33.946  53.453  0.00  0.00     0.025 A 
ATOM     12  C   UNL d   1      51.714  34.665  53.263  0.00  0.00     0.065 A 
ATOM     13  C   UNL d   1      51.970  34.808  52.488  0.00  0.00     0.005 A 
ATOM     14  C   UNL d   1      51.869  34.230  51.910  0.00  0.00     0.002 A 
ATOM     15  C   UNL d   1      51.514  33.511  52.099  0.00  0.00     0.019 A 
BRANCH  12  16
ATOM     16  C   UNL d   1      51.811  35.238  53.852  0.00  0.00     0.296 C 
ATOM     17  O   UNL d   1      51.164  35.569  54.223  0.00  0.00    -0.259 OA
BRANCH  16  18
ATOM     18  O   UNL d   1      52.575  35.474  54.061  0.00  0.00    -0.296 OA
ATOM     19  C   UNL d   1      52.695  36.000  54.676  0.00  0.00     0.185 C 
ENDBRANCH  16  18
ENDBRANCH  12  16
ENDBRANCH   8  10
ENDBRANCH   2   6
BRANCH   1  20
ATOM     20  S   UNL d   1      53.862  31.901  53.932  0.00  0.00     0.272 S 
ATOM     21  O   UNL d   1      53.544  31.765  54.652  0.00  0.00    -0.200 OA
ATOM     22  O   UNL d   1      54.213  32.069  53.209  0.00  0.00    -0.200 OA
BRANCH  20  23
ATOM     23  C   UNL d   1      54.331  32.489  54.297  0.00  0.00     0.104 A 
ATOM     24  C   UNL d   1      54.886  32.906  53.855  0.00  0.00     0.014 A 
ATOM     25  C   UNL d   1      55.340  33.480  54.217  0.00  0.00     0.012 A 
ATOM     26  C   UNL d   1      55.248  33.647  55.027  0.00  0.00     0.058 A 
ATOM     27  C   UNL d   1      54.693  33.231  55.468  0.00  0.00     0.012 A 
ATOM     28 CL   UNL d   1      55.710  34.230  55.391  0.00  0.00    -0.082 Cl
ATOM     29  C   UNL d   1      54.228  32.644  55.102  0.00  0.00     0.014 A 
ENDBRANCH  20  23
ENDBRANCH   1  20
TORSDOF 6
ENDMDL
MODEL 4
REMARK VINA RESULT:      -8.0      1.797      3.675
REMARK  6 active torsions:
REMARK  status: ('A' for Active; 'I' for Inactive)
REMARK    1  A    between atoms: N_2  and  S_1 
REMARK    2  A    between atoms: C_6  and  S_1 
REMARK    3  A    between atoms: N_4  and  C_3 
REMARK       I    between atoms: C_5  and  N_4 
REMARK       I    between atoms: N_10  and  C_5 
REMARK    4  A    between atoms: C_7  and  C_11 
REMARK    5  A    between atoms: O_20  and  C_7 
REMARK    6  A    between atoms: C_14  and  N_10 
ROOT
ATOM      1  N   UNL d   1      52.627  31.536  53.089  0.00  0.00    -0.214 N 
ATOM      2  C   UNL d   1      53.280  31.388  53.584  0.00  0.00     0.162 A 
ATOM      3  C   UNL d   1      52.458  30.834  52.677  0.00  0.00     0.093 A 
ATOM      4  C   UNL d   1      53.511  30.598  53.476  0.00  0.00     0.040 A 
ATOM      5  C   UNL d   1      53.009  30.262  52.923  0.00  0.00     0.023 A 
ENDROOT
BRANCH   2   6
ATOM      6  N   UNL d   1      53.635  31.946  54.097  0.00  0.00    -0.173 NA
ATOM      7  C   UNL d   1      53.797  31.735  54.876  0.00  0.00     0.370 C 
ATOM      8  N   UNL d   1      54.148  32.285  55.387  0.00  0.00    -0.191 NA
ATOM      9  O   UNL d   1      53.614  30.979  55.157  0.00  0.00    -0.242 OA
BRANCH   8  10
ATOM     10  C   UNL d   1      54.334  33.040  55.114  0.00  0.00     0.086 A 
ATOM     11  C   UNL d   1      53.829  33.672  55.277  0.00  0.00     0.025 A 
ATOM     12  C   UNL d   1      54.015  34.428  55.005  0.00  0.00     0.065 A 
ATOM     13  C   UNL d   1      54.708  34.551  54.567  0.00  0.00     0.005 A 
ATOM     14  C   UNL d   1      55.209  33.917  54.407  0.00  0.00     0.002 A 
ATOM     15  C   UNL d   1      55.024  33.162  54.679  0.00  0.00     0.019 A 
BRANCH  12  16
ATOM     16  C   UNL d   1      53.504  35.057  55.172  0.00  0.00     0.296 C 
ATOM     17  O   UNL d   1      53.182  35.146  55.917  0.00  0.00    -0.259 OA
BRANCH  16  18
ATOM     18  O   UNL d   1      53.321  35.596  54.574  0.00  0.00    -0.296 OA
ATOM     19  C   UNL d   1      52.831  36.234  54.723  0.00  0.00     0.185 C 
ENDBRANCH  16  18
ENDBRANCH  12  16
ENDBRANCH   8  10
ENDBRANCH   2   6
BRANCH   1  20
ATOM     20  S   UNL d   1      52.167  32.202  52.956  0.00  0.00     0.272 S 
ATOM     21  O   UNL d   1      51.612  31.960  53.477  0.00  0.00    -0.200 OA
ATOM     22  O   UNL d   1      52.715  32.484  52.413  0.00  0.00    -0.200 OA
BRANCH  20  23
ATOM     23  C   UNL d   1      51.692  32.877  52.827  0.00  0.00     0.104 A 
ATOM     24  C   UNL d   1      51.895  33.420  52.242  0.00  0.00     0.014 A 
ATOM     25  C   UNL d   1      51.427  34.077  52.122  0.00  0.00     0.012 A 
ATOM     26  C   UNL d   1      50.746  34.205  52.583  0.00  0.00     0.058 A 
ATOM     27  C   UNL d   1      50.542  33.663  53.166  0.00  0.00     0.012 A 
ATOM     28 CL   UNL d   1      50.273  34.872  52.457  0.00  0.00    -0.082 Cl
ATOM     29  C   UNL d   1      51.018  32.990  53.292  0.00  0.00     0.014 A 
ENDBRANCH  20  23
ENDBRANCH   1  20
TORSDOF 6
ENDMDL
MODEL 5
REMARK VINA RESULT:      -6.5      1.882      4.196
REMARK  6 active torsions:
REMARK  status: ('A' for Active; 'I' for Inactive)
REMARK    1  A    between atoms: N_2  and  S_1 
REMARK    2  A    between atoms: C_6  and  S_1 
REMARK    3  A    between atoms: N_4  and  C_3 
REMARK       I    between atoms: C_5  and  N_4 
REMARK       I    between atoms: N_10  and  C_5 
REMARK    4  A    between atoms: C_7  and  C_11 
REMARK    5  A    between atoms: O_20  and  C_7 
REMARK    6  A    between atoms: C_14  and  N_10 
ROOT
ATOM      1  N   UNL d   1      52.330  33.977  53.444  0.00  0.00    -0.214 N 
ATOM      2  C   UNL d   1      51.819  33.426  53.087  0.00  0.00     0.162 A 
ATOM      3  C   UNL d   1      52.029  34.737  53.291  0.00  0.00     0.093 A 
ATOM      4  C   UNL d   1      51.205  33.844  52.717  0.00  0.00     0.040 A 
ATOM      5  C   UNL d   1      51.335  34.644  52.842  0.00  0.00     0.023 A 
ENDROOT
BRANCH   2   6
ATOM      6  N   UNL d   1      51.915  32.594  53.105  0.00  0.00    -0.173 NA
ATOM      7  C   UNL d   1      51.251  32.108  53.078  0.00  0.00     0.370 C 
ATOM      8  N   UNL d   1      51.344  31.284  53.095  0.00  0.00    -0.191 NA
ATOM      9  O   UNL d   1      50.492  32.430  53.033  0.00  0.00    -0.242 OA
BRANCH   8  10
ATOM     10  C   UNL d   1      52.098  30.955  53.139  0.00  0.00     0.086 A 
ATOM     11  C   UNL d   1      52.329  30.546  53.817  0.00  0.00     0.025 A 
ATOM     12  C   UNL d   1      53.084  30.216  53.861  0.00  0.00     0.065 A 
ATOM     13  C   UNL d   1      53.608  30.297  53.224  0.00  0.00     0.005 A 
ATOM     14  C   UNL d   1      53.373  30.707  52.549  0.00  0.00     0.002 A 
ATOM     15  C   UNL d   1      52.620  31.036  52.505  0.00  0.00     0.019 A 
BRANCH  12  16
ATOM     16  C   UNL d   1      53.309  29.807  54.543  0.00  0.00     0.296 C 
ATOM     17  O   UNL d   1      53.540  30.210  55.215  0.00  0.00    -0.259 OA
BRANCH  16  18
ATOM     18  O   UNL d   1      53.298  28.981  54.539  0.00  0.00    -0.296 OA
ATOM     19  C   UNL d   1      53.468  28.558  55.218  0.00  0.00     0.185 C 
ENDBRANCH  16  18
ENDBRANCH  12  16
ENDBRANCH   8  10
ENDBRANCH   2   6
BRANCH   1  20
ATOM     20  S   UNL d   1      53.020  33.898  53.881  0.00  0.00     0.272 S 
ATOM     21  O   UNL d   1      52.615  33.857  54.568  0.00  0.00    -0.200 OA
ATOM     22  O   UNL d   1      53.470  33.936  53.195  0.00  0.00    -0.200 OA
BRANCH  20  23
ATOM     23  C   UNL d   1      53.717  33.817  54.335  0.00  0.00     0.104 A 
ATOM     24  C   UNL d   1      53.672  33.766  55.155  0.00  0.00     0.014 A 
ATOM     25  C   UNL d   1      54.357  33.686  55.592  0.00  0.00     0.012 A 
ATOM     26  C   UNL d   1      55.099  33.656  55.218  0.00  0.00     0.058 A 
ATOM     27  C   UNL d   1      55.144  33.707  54.398  0.00  0.00     0.012 A 
ATOM     28 CL   UNL d   1      55.792  33.576  55.664  0.00  0.00    -0.082 Cl
ATOM     29  C   UNL d   1      54.447  33.788  53.949  0.00  0.00     0.014 A 
ENDBRANCH  20  23
ENDBRANCH   1  20
TORSDOF 6
ENDMDL
MODEL 6
REMARK VINA RESULT:      -6.1      1.371      3.441
REMARK  6 active torsions:
REMARK  status: ('A' for Active; 'I' for Inactive)
REMARK    1  A    between atoms: N_2  and  S_1 
REMARK    2  A    between atoms: C_6  and  S_1 
REMARK    3  A    between atoms: N_4  and  C_3 
REMARK       I    between atoms: C_5  and  N_4 
REMARK       I    between atoms: N_10  and  C_5 
REMARK    4  A    between atoms: C_7  and  C_11 
REMARK    5  A    between atoms: O_20  and  C_7 
REMARK    6  A    between atoms: C_14  and  N_10 
ROOT
ATOM      1  N   UNL d   1      51.535  33.204  52.740  0.00  0.00    -0.214 N 
ATOM      2  C   UNL d   1      51.672  33.945  53.093  0.00  0.00     0.162 A 
ATOM      3  C   UNL d   1      50.925  33.298  52.184  0.00  0.00     0.093 A 
ATOM      4  C   UNL d   1      51.149  34.493  52.755  0.00  0.00     0.040 A 
ATOM      5  C   UNL d   1      50.694  34.096  52.200  0.00  0.00     0.023 A 
ENDROOT
BRANCH   2   6
ATOM      6  N   UNL d   1      52.242  34.101  53.687  0.00  0.00    -0.173 NA
ATOM      7  C   UNL d   1      52.266  34.842  54.043  0.00  0.00     0.370 C 
ATOM      8  N   UNL d   1      52.829  34.999  54.630  0.00  0.00    -0.191 NA
ATOM      9  O   UNL d   1      51.733  35.435  53.822  0.00  0.00    -0.242 OA
BRANCH   8  10
ATOM     10  C   UNL d   1      53.363  34.413  54.856  0.00  0.00     0.086 A 
ATOM     11  C   UNL d   1      54.076  34.327  54.449  0.00  0.00     0.025 A 
ATOM     12  C   UNL d   1      54.610  33.742  54.674  0.00  0.00     0.065 A 
ATOM     13  C   UNL d   1      54.431  33.241  55.309  0.00  0.00     0.005 A 
ATOM     14  C   UNL d   1      53.718  33.330  55.713  0.00  0.00     0.002 A 
ATOM     15  C   UNL d   1      53.184  33.915  55.488  0.00  0.00     0.019 A 
BRANCH  12  16
ATOM     16  C   UNL d   1      55.323  33.661  54.261  0.00  0.00     0.296 C 
ATOM     17  O   UNL d   1      55.938  34.183  54.385  0.00  0.00    -0.259 OA
BRANCH  16  18
ATOM     18  O   UNL d   1      55.406  33.044  53.719  0.00  0.00    -0.296 OA
ATOM     19  C   UNL d   1      55.938  33.100  53.101  0.00  0.00     0.185 C 
ENDBRANCH  16  18
ENDBRANCH  12  16
ENDBRANCH   8  10
ENDBRANCH   2   6
BRANCH   1  20
ATOM     20  S   UNL d   1      51.874  32.464  52.845  0.00  0.00     0.272 S 
ATOM     21  O   UNL d   1      51.342  32.266  53.407  0.00  0.00    -0.200 OA
ATOM     22  O   UNL d   1      52.438  32.631  52.272  0.00  0.00    -0.200 OA
BRANCH  20  23
ATOM     23  C   UNL d   1      52.212  31.708  52.958  0.00  0.00     0.104 A 
ATOM     24  C   UNL d   1      52.871  31.481  52.520  0.00  0.00     0.014 A 
ATOM     25  C   UNL d   1      53.196  30.741  52.636  0.00  0.00     0.012 A 
ATOM     26  C   UNL d   1      52.870  30.215  53.192  0.00  0.00     0.058 A 
ATOM     27  C   UNL d   1      52.212  30.442  53.630  0.00  0.00     0.012 A 
ATOM     28 CL   UNL d   1      53.203  29.466  53.307  0.00  0.00    -0.082 Cl
ATOM     29  C   UNL d   1      51.877  31.196  53.514  0.00  0.00     0.014 A 
ENDBRANCH  20  23
ENDBRANCH   1  20
TORSDOF 6
ENDMDL
