MODEL 1
REMARK VINA RESULT:      13.1      0.000      0.000
REMARK  3 active torsions:
REMARK  status: ('A' for Active; 'I' for Inactive)
REMARK    1  A    between atoms: N_3  and  S_1 
REMARK    2  A    between atoms: C_8  and  S_1 
REMARK    3  A    between atoms: C_2  and  N_3 
ROOT
ATOM      1  S   UNL d   1      45.808 -16.197  44.523  0.00  0.00     0.287 S 
ATOM      2  O   UNL d   1      45.106 -16.269  44.093  0.00  0.00    -0.198 OA
ATOM      3  O   UNL d   1      46.509 -16.115  44.954  0.00  0.00    -0.198 OA
ENDROOT
BRANCH   1   4
ATOM      4  N   UNL d   1      45.915 -17.015  44.494  0.00  0.00    -0.131 NA
BRANCH   4   5
ATOM      5  C   UNL d   1      46.131 -17.556  43.907  0.00  0.00     0.219 A 
ATOM      6  C   UNL d   1      46.265 -18.362  44.020  0.00  0.00     0.064 A 
ATOM      7  C   UNL d   1      46.467 -18.689  43.285  0.00  0.00     0.112 A 
ATOM      8  C   UNL d   1      46.208 -18.773  44.738  0.00  0.00     0.005 C 
ATOM      9  C   UNL d   1      46.647 -19.485  43.145  0.00  0.00     0.023 C 
ATOM     10  N   UNL d   1      46.456 -18.083  42.724  0.00  0.00    -0.125 NA
ATOM     11  O   UNL d   1      46.248 -17.379  43.109  0.00  0.00    -0.191 OA
ENDBRANCH   4   5
ENDBRANCH   1   4
BRANCH   1  12
ATOM     12  C   UNL d   1      45.700 -15.378  44.553  0.00  0.00     0.105 A 
ATOM     13  C   UNL d   1      46.260 -14.875  44.216  0.00  0.00     0.015 A 
ATOM     14  C   UNL d   1      46.154 -14.067  44.245  0.00  0.00     0.022 A 
ATOM     15  C   UNL d   1      45.497 -13.750  44.605  0.00  0.00     0.103 A 
ATOM     16  C   UNL d   1      44.936 -14.249  44.942  0.00  0.00     0.022 A 
ATOM     17  N   UNL d   1      45.389 -12.931  44.635  0.00  0.00    -0.148 N 
ATOM     18  C   UNL d   1      45.043 -15.060  44.913  0.00  0.00     0.015 A 
ENDBRANCH   1  12
TORSDOF 3
ENDMDL
MODEL 2
REMARK VINA RESULT:      13.7      0.874      4.009
REMARK  3 active torsions:
REMARK  status: ('A' for Active; 'I' for Inactive)
REMARK    1  A    between atoms: N_3  and  S_1 
REMARK    2  A    between atoms: C_8  and  S_1 
REMARK    3  A    between atoms: C_2  and  N_3 
ROOT
ATOM      1  S   UNL d   1      45.824 -16.902  44.262  0.00  0.00     0.287 S 
ATOM      2  O   UNL d   1      46.215 -17.128  44.954  0.00  0.00    -0.198 OA
ATOM      3  O   UNL d   1      45.436 -16.685  43.565  0.00  0.00    -0.198 OA
ENDROOT
BRANCH   1   4
ATOM      4  N   UNL d   1      45.618 -16.181  44.608  0.00  0.00    -0.131 NA
BRANCH   4   5
ATOM      5  C   UNL d   1      45.841 -15.393  44.496  0.00  0.00     0.219 A 
ATOM      6  C   UNL d   1      45.375 -14.732  44.655  0.00  0.00     0.064 A 
ATOM      7  C   UNL d   1      45.817 -14.058  44.462  0.00  0.00     0.112 A 
ATOM      8  C   UNL d   1      44.602 -14.739  44.955  0.00  0.00     0.005 C 
ATOM      9  C   UNL d   1      45.561 -13.275  44.536  0.00  0.00     0.023 C 
ATOM     10  N   UNL d   1      46.555 -14.309  44.184  0.00  0.00    -0.125 NA
ATOM     11  O   UNL d   1      46.571 -15.137  44.205  0.00  0.00    -0.191 OA
ENDBRANCH   4   5
ENDBRANCH   1   4
BRANCH   1  12
ATOM     12  C   UNL d   1      46.031 -17.624  43.916  0.00  0.00     0.105 A 
ATOM     13  C   UNL d   1      46.025 -17.705  43.095  0.00  0.00     0.015 A 
ATOM     14  C   UNL d   1      46.229 -18.417  42.754  0.00  0.00     0.022 A 
ATOM     15  C   UNL d   1      46.440 -19.052  43.217  0.00  0.00     0.103 A 
ATOM     16  C   UNL d   1      46.447 -18.974  44.036  0.00  0.00     0.022 A 
ATOM     17  N   UNL d   1      46.646 -19.773  42.871  0.00  0.00    -0.148 N 
ATOM     18  C   UNL d   1      46.242 -18.259  44.379  0.00  0.00     0.015 A 
ENDBRANCH   1  12
TORSDOF 3
ENDMDL
