MODEL 1
REMARK VINA RESULT:      46.6      0.000      0.000
REMARK  3 active torsions:
REMARK  status: ('A' for Active; 'I' for Inactive)
REMARK    1  A    between atoms: C_8  and  N_2 
REMARK    2  A    between atoms: C_14  and  C_8 
REMARK    3  A    between atoms: N_13  and  C_14 
ROOT
ATOM      1  C   UNL d   1      13.751  13.688  -3.339  0.00  0.00     0.166 A 
ATOM      2  N   UNL d   1      13.508  12.918  -3.212  0.00  0.00    -0.288 N 
ATOM      3  C   UNL d   1      13.707  13.897  -4.140  0.00  0.00     0.117 A 
ATOM      4  C   UNL d   1      13.433  13.244  -4.506  0.00  0.00     0.037 A 
ATOM      5  C   UNL d   1      13.307  12.626  -3.924  0.00  0.00     0.067 A 
ATOM      6  N   UNL d   1      14.011  14.241  -2.836  0.00  0.00    -0.225 NA
ATOM      7  N   UNL d   1      13.918  14.644  -4.432  0.00  0.00    -0.241 NA
ATOM      8  C   UNL d   1      14.223  14.991  -3.133  0.00  0.00     0.101 A 
ATOM      9  C   UNL d   1      14.175  15.188  -3.932  0.00  0.00     0.099 A 
ATOM     10  C   UNL d   1      13.029  11.898  -4.133  0.00  0.00     0.018 A 
ATOM     11  C   UNL d   1      13.278  13.120  -5.282  0.00  0.00     0.010 A 
ATOM     12  C   UNL d   1      13.003  12.399  -5.498  0.00  0.00     0.035 A 
ATOM     13  C   UNL d   1      12.877  11.781  -4.916  0.00  0.00     0.008 A 
ATOM     14 BR   UNL d   1      12.838  12.242  -6.269  0.00  0.00    -0.049 Br
ATOM     15  C   UNL d   1      14.389  15.940  -4.218  0.00  0.00     0.021 A 
ATOM     16  C   UNL d   1      14.481  15.537  -2.629  0.00  0.00     0.021 A 
ATOM     17  C   UNL d   1      14.693  16.284  -2.923  0.00  0.00     0.002 A 
ATOM     18  C   UNL d   1      14.646  16.484  -3.718  0.00  0.00     0.002 A 
ENDROOT
BRANCH   2  19
ATOM     19  C   UNL d   1      13.469  12.491  -2.480  0.00  0.00     0.101 C 
BRANCH  19  20
ATOM     20  C   UNL d   1      13.955  11.806  -2.407  0.00  0.00     0.100 C 
BRANCH  20  21
ATOM     21  N   UNL d   1      14.214  11.813  -1.607  0.00  0.00    -0.298 N 
ATOM     22  C   UNL d   1      15.041  11.780  -1.433  0.00  0.00     0.107 A 
ATOM     23  C   UNL d   1      15.299  11.787  -0.640  0.00  0.00     0.142 A 
ATOM     24  O   UNL d   1      14.740  11.826  -0.016  0.00  0.00    -0.300 OA
ATOM     25  C   UNL d   1      13.919  11.859  -0.196  0.00  0.00     0.142 A 
ATOM     26  C   UNL d   1      13.657  11.852  -0.992  0.00  0.00     0.107 A 
ENDBRANCH  20  21
ENDBRANCH  19  20
ENDBRANCH   2  19
TORSDOF 3
ENDMDL
