MODEL 1
REMARK VINA RESULT:      64.3      0.000      0.000
REMARK  6 active torsions:
REMARK  status: ('A' for Active; 'I' for Inactive)
REMARK    1  A    between atoms: C_2  and  S_1 
REMARK    2  A    between atoms: N_4  and  S_1 
REMARK    3  A    between atoms: C_9  and  C_17 
REMARK       I    between atoms: N_20  and  C_9 
REMARK    4  A    between atoms: C_18  and  C_25 
REMARK    5  A    between atoms: C_24  and  N_20 
REMARK    6  A    between atoms: C_25  and  C_24 
ROOT
ATOM      1  N   UNL d   1     -47.645  30.506  35.313  0.00  0.00    -0.229 N 
ATOM      2  C   UNL d   1     -48.394  30.284  35.592  0.00  0.00     0.092 A 
ATOM      3  C   UNL d   1     -47.203  29.973  34.867  0.00  0.00     0.092 A 
ATOM      4  C   UNL d   1     -48.246  29.000  34.973  0.00  0.00     0.061 A 
ATOM      5  C   UNL d   1     -47.502  29.223  34.698  0.00  0.00     0.025 A 
ATOM      6  C   UNL d   1     -48.693  29.534  35.423  0.00  0.00     0.025 A 
ENDROOT
BRANCH   1   7
ATOM      7  S   UNL d   1     -47.345  31.260  35.484  0.00  0.00     0.273 S 
ATOM      8  O   UNL d   1     -47.047  32.007  35.653  0.00  0.00    -0.200 OA
ATOM      9  O   UNL d   1     -46.914  30.946  36.113  0.00  0.00    -0.200 OA
BRANCH   7  10
ATOM     10  C   UNL d   1     -47.779  31.575  34.852  0.00  0.00     0.125 A 
ATOM     11  C   UNL d   1     -47.464  32.186  34.395  0.00  0.00     0.142 A 
ATOM     12  C   UNL d   1     -47.895  32.500  33.767  0.00  0.00     0.131 A 
ATOM     13  N   UNL d   1     -46.741  32.586  34.440  0.00  0.00    -0.101 NA
ATOM     14  N   UNL d   1     -47.442  33.096  33.418  0.00  0.00    -0.102 NA
ATOM     15  C   UNL d   1     -48.645  32.206  33.589  0.00  0.00     0.023 A 
ATOM     16  O   UNL d   1     -46.733  33.152  33.829  0.00  0.00    -0.106 OA
ATOM     17  C   UNL d   1     -48.966  31.589  34.047  0.00  0.00     0.002 A 
ATOM     18  C   UNL d   1     -48.535  31.276  34.675  0.00  0.00     0.015 A 
ENDBRANCH   7  10
ENDBRANCH   1   7
BRANCH   4  19
ATOM     19  C   UNL d   1     -48.538  28.253  34.802  0.00  0.00     0.279 C 
ATOM     20  O   UNL d   1     -48.271  27.600  35.214  0.00  0.00    -0.265 OA
ATOM     21  N   UNL d   1     -49.110  28.155  34.205  0.00  0.00    -0.206 NA
BRANCH  21  22
ATOM     22  C   UNL d   1     -49.409  27.396  34.028  0.00  0.00     0.102 C 
BRANCH  22  23
ATOM     23  C   UNL d   1     -49.970  27.297  33.425  0.00  0.00     0.021 C 
BRANCH  23  24
ATOM     24  C   UNL d   1     -50.427  26.606  33.398  0.00  0.00     0.002 A 
ATOM     25  C   UNL d   1     -50.064  25.872  33.375  0.00  0.00     0.000 A 
ATOM     26  C   UNL d   1     -50.521  25.181  33.349  0.00  0.00     0.000 A 
ATOM     27  C   UNL d   1     -51.340  25.226  33.346  0.00  0.00     0.000 A 
ATOM     28  C   UNL d   1     -51.713  25.969  33.370  0.00  0.00     0.000 A 
ATOM     29  C   UNL d   1     -51.256  26.660  33.396  0.00  0.00     0.000 A 
ENDBRANCH  23  24
ENDBRANCH  22  23
ENDBRANCH  21  22
ENDBRANCH   4  19
TORSDOF 6
ENDMDL
MODEL 2
REMARK VINA RESULT:      66.4      2.822      6.619
REMARK  6 active torsions:
REMARK  status: ('A' for Active; 'I' for Inactive)
REMARK    1  A    between atoms: C_2  and  S_1 
REMARK    2  A    between atoms: N_4  and  S_1 
REMARK    3  A    between atoms: C_9  and  C_17 
REMARK       I    between atoms: N_20  and  C_9 
REMARK    4  A    between atoms: C_18  and  C_25 
REMARK    5  A    between atoms: C_24  and  N_20 
REMARK    6  A    between atoms: C_25  and  C_24 
ROOT
ATOM      1  N   UNL d   1     -50.482  25.611  33.562  0.00  0.00    -0.229 N 
ATOM      2  C   UNL d   1     -50.989  26.232  33.771  0.00  0.00     0.092 A 
ATOM      3  C   UNL d   1     -49.675  25.754  33.482  0.00  0.00     0.092 A 
ATOM      4  C   UNL d   1     -49.873  27.131  33.818  0.00  0.00     0.061 A 
ATOM      5  C   UNL d   1     -49.372  26.511  33.610  0.00  0.00     0.025 A 
ATOM      6  C   UNL d   1     -50.686  26.989  33.898  0.00  0.00     0.025 A 
ENDROOT
BRANCH   1   7
ATOM      7  S   UNL d   1     -50.786  24.851  33.433  0.00  0.00     0.273 S 
ATOM      8  O   UNL d   1     -51.088  24.097  33.306  0.00  0.00    -0.200 OA
ATOM      9  O   UNL d   1     -50.024  24.538  33.476  0.00  0.00    -0.200 OA
BRANCH   7  10
ATOM     10  C   UNL d   1     -51.553  25.165  33.391  0.00  0.00     0.125 A 
ATOM     11  C   UNL d   1     -52.207  24.663  33.373  0.00  0.00     0.142 A 
ATOM     12  C   UNL d   1     -52.969  24.975  33.330  0.00  0.00     0.131 A 
ATOM     13  N   UNL d   1     -52.265  23.838  33.389  0.00  0.00    -0.101 NA
ATOM     14  N   UNL d   1     -53.503  24.345  33.321  0.00  0.00    -0.102 NA
ATOM     15  C   UNL d   1     -53.083  25.792  33.306  0.00  0.00     0.023 A 
ATOM     16  O   UNL d   1     -53.074  23.646  33.356  0.00  0.00    -0.106 OA
ATOM     17  C   UNL d   1     -52.425  26.301  33.325  0.00  0.00     0.002 A 
ATOM     18  C   UNL d   1     -51.663  25.989  33.367  0.00  0.00     0.015 A 
ENDBRANCH   7  10
ENDBRANCH   1   7
BRANCH   4  19
ATOM     19  C   UNL d   1     -49.566  27.881  33.943  0.00  0.00     0.279 C 
ATOM     20  O   UNL d   1     -50.064  28.526  34.000  0.00  0.00    -0.265 OA
ATOM     21  N   UNL d   1     -48.744  27.989  34.014  0.00  0.00    -0.206 NA
BRANCH  21  22
ATOM     22  C   UNL d   1     -48.429  28.751  34.141  0.00  0.00     0.102 C 
BRANCH  22  23
ATOM     23  C   UNL d   1     -48.256  29.009  34.911  0.00  0.00     0.021 C 
BRANCH  23  24
ATOM     24  C   UNL d   1     -47.960  29.775  35.031  0.00  0.00     0.002 A 
ATOM     25  C   UNL d   1     -47.591  29.968  35.736  0.00  0.00     0.000 A 
ATOM     26  C   UNL d   1     -47.295  30.733  35.856  0.00  0.00     0.000 A 
ATOM     27  C   UNL d   1     -47.369  31.303  35.270  0.00  0.00     0.000 A 
ATOM     28  C   UNL d   1     -47.744  31.110  34.553  0.00  0.00     0.000 A 
ATOM     29  C   UNL d   1     -48.040  30.345  34.433  0.00  0.00     0.000 A 
ENDBRANCH  23  24
ENDBRANCH  22  23
ENDBRANCH  21  22
ENDBRANCH   4  19
TORSDOF 6
ENDMDL
