MODEL 1
REMARK VINA RESULT:      -1.6      0.000      0.000
REMARK  3 active torsions:
REMARK  status: ('A' for Active; 'I' for Inactive)
REMARK    1  A    between atoms: S_10  and  C_2 
REMARK    2  A    between atoms: C_9  and  C_4 
REMARK    3  A    between atoms: C_17  and  C_12 
ROOT
ATOM      1  C   UNL d   1      31.573  17.146 -23.850  0.00  0.00     0.092 A 
ATOM      2  C   UNL d   1      31.389  16.359 -23.805  0.00  0.00     0.119 A 
ATOM      3  N   UNL d   1      31.948  15.821 -23.506  0.00  0.00    -0.201 NA
ATOM      4  C   UNL d   1      32.320  17.411 -23.598  0.00  0.00     0.016 A 
ATOM      5  C   UNL d   1      32.686  16.087 -23.257  0.00  0.00     0.280 A 
ATOM      6  C   UNL d   1      31.018  17.684 -24.147  0.00  0.00     0.103 C 
ATOM      7  N   UNL d   1      30.458  18.216 -24.446  0.00  0.00    -0.191 NA
ATOM      8  C   UNL d   1      32.870  16.875 -23.303  0.00  0.00     0.063 A 
ATOM      9  O   UNL d   1      33.241  15.550 -22.961  0.00  0.00    -0.265 OA
ENDROOT
BRANCH   2  10
ATOM     10  S   UNL d   1      30.646  16.093 -24.055  0.00  0.00    -0.093 SA
ATOM     11  C   UNL d   1      30.269  15.467 -23.659  0.00  0.00     0.076 C 
ENDBRANCH   2  10
BRANCH   4  12
ATOM     12  C   UNL d   1      32.507  18.208 -23.644  0.00  0.00     0.001 A 
ATOM     13  C   UNL d   1      32.434  18.667 -22.977  0.00  0.00     0.000 A 
ATOM     14  C   UNL d   1      32.621  19.475 -23.014  0.00  0.00     0.000 A 
ATOM     15  C   UNL d   1      32.872  19.806 -23.706  0.00  0.00     0.000 A 
ATOM     16  C   UNL d   1      32.944  19.337 -24.377  0.00  0.00     0.000 A 
ATOM     17  C   UNL d   1      32.757  18.523 -24.346  0.00  0.00     0.000 A 
BRANCH  15  18
ATOM     18  C   UNL d   1      33.081  20.698 -23.758  0.00  0.00     0.000 C 
ATOM     19  C   UNL d   1      33.240  21.321 -24.651  0.00  0.00     0.000 C 
ATOM     20  C   UNL d   1      33.241  21.441 -22.840  0.00  0.00     0.000 C 
ENDBRANCH  15  18
ENDBRANCH   4  12
TORSDOF 3
ENDMDL
MODEL 2
REMARK VINA RESULT:      -0.9      2.646      4.427
REMARK  3 active torsions:
REMARK  status: ('A' for Active; 'I' for Inactive)
REMARK    1  A    between atoms: S_10  and  C_2 
REMARK    2  A    between atoms: C_9  and  C_4 
REMARK    3  A    between atoms: C_17  and  C_12 
ROOT
ATOM      1  C   UNL d   1      32.964  20.824 -22.888  0.00  0.00     0.092 A 
ATOM      2  C   UNL d   1      32.994  21.552 -22.534  0.00  0.00     0.119 A 
ATOM      3  N   UNL d   1      32.856  21.619 -21.716  0.00  0.00    -0.201 NA
ATOM      4  C   UNL d   1      32.795  20.150 -22.432  0.00  0.00     0.016 A 
ATOM      5  C   UNL d   1      32.688  20.949 -21.269  0.00  0.00     0.280 A 
ATOM      6  C   UNL d   1      33.102  20.755 -23.701  0.00  0.00     0.103 C 
ATOM      7  N   UNL d   1      33.240  20.693 -24.516  0.00  0.00    -0.191 NA
ATOM      8  C   UNL d   1      32.658  20.221 -21.623  0.00  0.00     0.063 A 
ATOM      9  O   UNL d   1      32.551  21.018 -20.456  0.00  0.00    -0.265 OA
ENDROOT
BRANCH   2  10
ATOM     10  S   UNL d   1      33.163  22.225 -22.985  0.00  0.00    -0.093 SA
ATOM     11  C   UNL d   1      33.235  22.968 -22.619  0.00  0.00     0.076 C 
ENDBRANCH   2  10
BRANCH   4  12
ATOM     12  C   UNL d   1      32.764  19.413 -22.791  0.00  0.00     0.001 A 
ATOM     13  C   UNL d   1      33.229  18.814 -22.497  0.00  0.00     0.000 A 
ATOM     14  C   UNL d   1      33.205  18.065 -22.854  0.00  0.00     0.000 A 
ATOM     15  C   UNL d   1      32.724  17.929 -23.488  0.00  0.00     0.000 A 
ATOM     16  C   UNL d   1      32.256  18.538 -23.781  0.00  0.00     0.000 A 
ATOM     17  C   UNL d   1      32.276  19.295 -23.425  0.00  0.00     0.000 A 
BRANCH  15  18
ATOM     18  C   UNL d   1      32.690  17.104 -23.890  0.00  0.00     0.000 C 
ATOM     19  C   UNL d   1      32.752  16.108 -23.428  0.00  0.00     0.000 C 
ATOM     20  C   UNL d   1      32.565  16.890 -25.055  0.00  0.00     0.000 C 
ENDBRANCH  15  18
ENDBRANCH   4  12
TORSDOF 3
ENDMDL
MODEL 3
REMARK VINA RESULT:      -0.9      1.560      4.071
REMARK  3 active torsions:
REMARK  status: ('A' for Active; 'I' for Inactive)
REMARK    1  A    between atoms: S_10  and  C_2 
REMARK    2  A    between atoms: C_9  and  C_4 
REMARK    3  A    between atoms: C_17  and  C_12 
ROOT
ATOM      1  C   UNL d   1      31.549  17.453 -24.354  0.00  0.00     0.092 A 
ATOM      2  C   UNL d   1      32.321  17.695 -24.307  0.00  0.00     0.119 A 
ATOM      3  N   UNL d   1      32.884  17.209 -23.936  0.00  0.00    -0.201 NA
ATOM      4  C   UNL d   1      31.326  16.720 -24.030  0.00  0.00     0.016 A 
ATOM      5  C   UNL d   1      32.659  16.484 -23.618  0.00  0.00     0.280 A 
ATOM      6  C   UNL d   1      30.986  17.935 -24.723  0.00  0.00     0.103 C 
ATOM      7  N   UNL d   1      30.428  18.423 -25.093  0.00  0.00    -0.191 NA
ATOM      8  C   UNL d   1      31.888  16.242 -23.664  0.00  0.00     0.063 A 
ATOM      9  O   UNL d   1      33.222  16.002 -23.249  0.00  0.00    -0.265 OA
ENDROOT
BRANCH   2  10
ATOM     10  S   UNL d   1      32.545  18.424 -24.628  0.00  0.00    -0.093 SA
ATOM     11  C   UNL d   1      33.135  18.881 -24.261  0.00  0.00     0.076 C 
ENDBRANCH   2  10
BRANCH   4  12
ATOM     12  C   UNL d   1      30.545  16.474 -24.078  0.00  0.00     0.001 A 
ATOM     13  C   UNL d   1      30.020  16.726 -23.510  0.00  0.00     0.000 A 
ATOM     14  C   UNL d   1      29.228  16.483 -23.550  0.00  0.00     0.000 A 
ATOM     15  C   UNL d   1      28.976  16.000 -24.146  0.00  0.00     0.000 A 
ATOM     16  C   UNL d   1      29.512  15.749 -24.717  0.00  0.00     0.000 A 
ATOM     17  C   UNL d   1      30.311  15.991 -24.682  0.00  0.00     0.000 A 
BRANCH  15  18
ATOM     18  C   UNL d   1      28.102  15.726 -24.199  0.00  0.00     0.000 C 
ATOM     19  C   UNL d   1      27.516  15.453 -25.089  0.00  0.00     0.000 C 
ATOM     20  C   UNL d   1      27.348  15.588 -23.287  0.00  0.00     0.000 C 
ENDBRANCH  15  18
ENDBRANCH   4  12
TORSDOF 3
ENDMDL
MODEL 4
REMARK VINA RESULT:      -0.5      3.503      5.414
REMARK  3 active torsions:
REMARK  status: ('A' for Active; 'I' for Inactive)
REMARK    1  A    between atoms: S_10  and  C_2 
REMARK    2  A    between atoms: C_9  and  C_4 
REMARK    3  A    between atoms: C_17  and  C_12 
ROOT
ATOM      1  C   UNL d   1      32.847  21.833 -21.106  0.00  0.00     0.092 A 
ATOM      2  C   UNL d   1      32.791  22.586 -20.810  0.00  0.00     0.119 A 
ATOM      3  N   UNL d   1      32.595  23.215 -21.318  0.00  0.00    -0.201 NA
ATOM      4  C   UNL d   1      32.709  21.695 -21.914  0.00  0.00     0.016 A 
ATOM      5  C   UNL d   1      32.459  23.073 -22.117  0.00  0.00     0.280 A 
ATOM      6  C   UNL d   1      33.042  21.206 -20.603  0.00  0.00     0.103 C 
ATOM      7  N   UNL d   1      33.238  20.582 -20.093  0.00  0.00    -0.191 NA
ATOM      8  C   UNL d   1      32.515  22.321 -22.412  0.00  0.00     0.063 A 
ATOM      9  O   UNL d   1      32.264  23.701 -22.620  0.00  0.00    -0.265 OA
ENDROOT
BRANCH   2  10
ATOM     10  S   UNL d   1      32.929  22.725 -20.007  0.00  0.00    -0.093 SA
ATOM     11  C   UNL d   1      33.135  23.486 -19.742  0.00  0.00     0.076 C 
ENDBRANCH   2  10
BRANCH   4  12
ATOM     12  C   UNL d   1      32.766  20.934 -22.213  0.00  0.00     0.001 A 
ATOM     13  C   UNL d   1      33.178  20.813 -22.903  0.00  0.00     0.000 A 
ATOM     14  C   UNL d   1      33.241  20.046 -23.213  0.00  0.00     0.000 A 
ATOM     15  C   UNL d   1      32.896  19.422 -22.834  0.00  0.00     0.000 A 
ATOM     16  C   UNL d   1      32.481  19.550 -22.137  0.00  0.00     0.000 A 
ATOM     17  C   UNL d   1      32.414  20.321 -21.820  0.00  0.00     0.000 A 
BRANCH  15  18
ATOM     18  C   UNL d   1      32.960  18.569 -23.169  0.00  0.00     0.000 C 
ATOM     19  C   UNL d   1      32.862  18.226 -24.209  0.00  0.00     0.000 C 
ATOM     20  C   UNL d   1      33.173  17.578 -22.543  0.00  0.00     0.000 C 
ENDBRANCH  15  18
ENDBRANCH   4  12
TORSDOF 3
ENDMDL
MODEL 5
REMARK VINA RESULT:       0.1      2.387      3.471
REMARK  3 active torsions:
REMARK  status: ('A' for Active; 'I' for Inactive)
REMARK    1  A    between atoms: S_10  and  C_2 
REMARK    2  A    between atoms: C_9  and  C_4 
REMARK    3  A    between atoms: C_17  and  C_12 
ROOT
ATOM      1  C   UNL d   1      28.863  16.650 -24.068  0.00  0.00     0.092 A 
ATOM      2  C   UNL d   1      28.099  16.516 -23.835  0.00  0.00     0.119 A 
ATOM      3  N   UNL d   1      27.675  17.117 -23.447  0.00  0.00    -0.201 NA
ATOM      4  C   UNL d   1      29.218  17.387 -23.917  0.00  0.00     0.016 A 
ATOM      5  C   UNL d   1      28.030  17.845 -23.300  0.00  0.00     0.280 A 
ATOM      6  C   UNL d   1      29.288  16.054 -24.455  0.00  0.00     0.103 C 
ATOM      7  N   UNL d   1      29.707  15.453 -24.842  0.00  0.00    -0.191 NA
ATOM      8  C   UNL d   1      28.794  17.979 -23.533  0.00  0.00     0.063 A 
ATOM      9  O   UNL d   1      27.606  18.441 -22.913  0.00  0.00    -0.265 OA
ENDROOT
BRANCH   2  10
ATOM     10  S   UNL d   1      27.744  15.784 -23.984  0.00  0.00    -0.093 SA
ATOM     11  C   UNL d   1      27.069  15.551 -23.558  0.00  0.00     0.076 C 
ENDBRANCH   2  10
BRANCH   4  12
ATOM     12  C   UNL d   1      29.992  17.523 -24.153  0.00  0.00     0.001 A 
ATOM     13  C   UNL d   1      30.597  17.305 -23.657  0.00  0.00     0.000 A 
ATOM     14  C   UNL d   1      31.383  17.438 -23.887  0.00  0.00     0.000 A 
ATOM     15  C   UNL d   1      31.549  17.782 -24.599  0.00  0.00     0.000 A 
ATOM     16  C   UNL d   1      30.933  18.000 -25.097  0.00  0.00     0.000 A 
ATOM     17  C   UNL d   1      30.139  17.868 -24.870  0.00  0.00     0.000 A 
BRANCH  15  18
ATOM     18  C   UNL d   1      32.415  17.933 -24.863  0.00  0.00     0.000 C 
ATOM     19  C   UNL d   1      33.211  17.204 -25.073  0.00  0.00     0.000 C 
ATOM     20  C   UNL d   1      32.920  18.995 -25.054  0.00  0.00     0.000 C 
ENDBRANCH  15  18
ENDBRANCH   4  12
TORSDOF 3
ENDMDL
MODEL 6
REMARK VINA RESULT:       0.2      2.234      3.391
REMARK  3 active torsions:
REMARK  status: ('A' for Active; 'I' for Inactive)
REMARK    1  A    between atoms: S_10  and  C_2 
REMARK    2  A    between atoms: C_9  and  C_4 
REMARK    3  A    between atoms: C_17  and  C_12 
ROOT
ATOM      1  C   UNL d   1      32.950  19.203 -22.698  0.00  0.00     0.092 A 
ATOM      2  C   UNL d   1      32.970  18.622 -23.262  0.00  0.00     0.119 A 
ATOM      3  N   UNL d   1      32.826  18.814 -24.059  0.00  0.00    -0.201 NA
ATOM      4  C   UNL d   1      32.786  19.987 -22.919  0.00  0.00     0.016 A 
ATOM      5  C   UNL d   1      32.664  19.592 -24.273  0.00  0.00     0.280 A 
ATOM      6  C   UNL d   1      33.094  19.014 -21.905  0.00  0.00     0.103 C 
ATOM      7  N   UNL d   1      33.238  18.817 -21.113  0.00  0.00    -0.191 NA
ATOM      8  C   UNL d   1      32.644  20.173 -23.709  0.00  0.00     0.063 A 
ATOM      9  O   UNL d   1      32.521  19.781 -25.065  0.00  0.00    -0.265 OA
ENDROOT
BRANCH   2  10
ATOM     10  S   UNL d   1      33.134  17.840 -23.045  0.00  0.00    -0.093 SA
ATOM     11  C   UNL d   1      32.830  17.208 -23.492  0.00  0.00     0.076 C 
ENDBRANCH   2  10
BRANCH   4  12
ATOM     12  C   UNL d   1      32.766  20.575 -22.348  0.00  0.00     0.001 A 
ATOM     13  C   UNL d   1      32.264  20.490 -21.715  0.00  0.00     0.000 A 
ATOM     14  C   UNL d   1      32.237  21.080 -21.132  0.00  0.00     0.000 A 
ATOM     15  C   UNL d   1      32.704  21.736 -21.191  0.00  0.00     0.000 A 
ATOM     16  C   UNL d   1      33.209  21.817 -21.834  0.00  0.00     0.000 A 
ATOM     17  C   UNL d   1      33.241  21.226 -22.424  0.00  0.00     0.000 A 
BRANCH  15  18
ATOM     18  C   UNL d   1      32.681  22.394 -20.551  0.00  0.00     0.000 C 
ATOM     19  C   UNL d   1      32.171  23.368 -20.580  0.00  0.00     0.000 C 
ATOM     20  C   UNL d   1      33.216  22.365 -19.487  0.00  0.00     0.000 C 
ENDBRANCH  15  18
ENDBRANCH   4  12
TORSDOF 3
ENDMDL
MODEL 7
REMARK VINA RESULT:       1.4      2.329      3.602
REMARK  3 active torsions:
REMARK  status: ('A' for Active; 'I' for Inactive)
REMARK    1  A    between atoms: S_10  and  C_2 
REMARK    2  A    between atoms: C_9  and  C_4 
REMARK    3  A    between atoms: C_17  and  C_12 
ROOT
ATOM      1  C   UNL d   1      28.892  15.885 -23.467  0.00  0.00     0.092 A 
ATOM      2  C   UNL d   1      28.192  15.672 -23.119  0.00  0.00     0.119 A 
ATOM      3  N   UNL d   1      28.165  15.527 -22.300  0.00  0.00    -0.201 NA
ATOM      4  C   UNL d   1      29.579  15.955 -23.003  0.00  0.00     0.016 A 
ATOM      5  C   UNL d   1      28.848  15.598 -21.846  0.00  0.00     0.280 A 
ATOM      6  C   UNL d   1      28.921  16.030 -24.281  0.00  0.00     0.103 C 
ATOM      7  N   UNL d   1      28.943  16.174 -25.097  0.00  0.00    -0.191 NA
ATOM      8  C   UNL d   1      29.548  15.810 -22.194  0.00  0.00     0.063 A 
ATOM      9  O   UNL d   1      28.818  15.453 -21.032  0.00  0.00    -0.265 OA
ENDROOT
BRANCH   2  10
ATOM     10  S   UNL d   1      27.508  15.601 -23.578  0.00  0.00    -0.093 SA
ATOM     11  C   UNL d   1      26.771  15.465 -23.216  0.00  0.00     0.076 C 
ENDBRANCH   2  10
BRANCH   4  12
ATOM     12  C   UNL d   1      30.288  16.170 -23.355  0.00  0.00     0.001 A 
ATOM     13  C   UNL d   1      30.827  15.590 -23.536  0.00  0.00     0.000 A 
ATOM     14  C   UNL d   1      31.547  15.798 -23.893  0.00  0.00     0.000 A 
ATOM     15  C   UNL d   1      31.714  16.571 -24.060  0.00  0.00     0.000 A 
ATOM     16  C   UNL d   1      31.164  17.153 -23.875  0.00  0.00     0.000 A 
ATOM     17  C   UNL d   1      30.437  16.949 -23.516  0.00  0.00     0.000 A 
BRANCH  15  18
ATOM     18  C   UNL d   1      32.507  16.811 -24.455  0.00  0.00     0.000 C 
ATOM     19  C   UNL d   1      33.187  16.201 -25.068  0.00  0.00     0.000 C 
ATOM     20  C   UNL d   1      33.025  17.883 -24.404  0.00  0.00     0.000 C 
ENDBRANCH  15  18
ENDBRANCH   4  12
TORSDOF 3
ENDMDL
