MODEL 1
REMARK VINA RESULT:      -1.9      0.000      0.000
REMARK  3 active torsions:
REMARK  status: ('A' for Active; 'I' for Inactive)
REMARK    1  A    between atoms: C_8  and  C_1 
REMARK    2  A    between atoms: N_7  and  C_8 
REMARK    3  A    between atoms: C_13  and  C_8 
ROOT
ATOM      1  C   UNL d   1      31.840  17.438 -24.163  0.00  0.00     0.075 C 
ENDROOT
BRANCH   1   2
ATOM      2  N   UNL d   1      31.033  17.417 -24.315  0.00  0.00    -0.303 N 
ATOM      3  C   UNL d   1      30.535  16.956 -23.857  0.00  0.00     0.080 A 
ATOM      4  C   UNL d   1      29.725  16.939 -24.016  0.00  0.00     0.018 A 
ATOM      5  C   UNL d   1      29.226  16.478 -23.558  0.00  0.00     0.002 C 
ATOM      6  C   UNL d   1      29.411  17.386 -24.635  0.00  0.00     0.003 A 
ATOM      7  C   UNL d   1      29.924  17.847 -25.088  0.00  0.00     0.019 A 
ATOM      8  C   UNL d   1      30.733  17.865 -24.933  0.00  0.00     0.080 A 
ENDBRANCH   1   2
BRANCH   1   9
ATOM      9  C   UNL d   1      32.182  18.141 -23.898  0.00  0.00     0.106 A 
ATOM     10  C   UNL d   1      32.276  18.370 -23.104  0.00  0.00     0.290 A 
ATOM     11  N   UNL d   1      32.642  19.107 -23.092  0.00  0.00    -0.169 N 
ATOM     12  O   UNL d   1      32.040  17.931 -22.444  0.00  0.00    -0.265 OA
ATOM     13  N   UNL d   1      32.924  19.701 -22.605  0.00  0.00    -0.138 NA
ATOM     14  C   UNL d   1      32.776  19.335 -23.873  0.00  0.00     0.200 A 
ATOM     15  C   UNL d   1      33.234  20.299 -23.077  0.00  0.00     0.222 A 
ATOM     16  N   UNL d   1      33.142  20.072 -23.862  0.00  0.00    -0.197 NA
ATOM     17  S   UNL d   1      32.495  18.743 -24.369  0.00  0.00    -0.042 SA
ENDBRANCH   1   9
BRANCH   1  18
ATOM     18  C   UNL d   1      32.304  16.772 -24.272  0.00  0.00     0.017 A 
ATOM     19  C   UNL d   1      32.363  16.217 -23.683  0.00  0.00     0.002 A 
ATOM     20  C   UNL d   1      32.821  15.565 -23.799  0.00  0.00     0.000 A 
ATOM     21  C   UNL d   1      33.236  15.452 -24.517  0.00  0.00     0.000 A 
ATOM     22  C   UNL d   1      33.172  16.006 -25.095  0.00  0.00     0.000 A 
ATOM     23  C   UNL d   1      32.706  16.679 -24.988  0.00  0.00     0.002 A 
ENDBRANCH   1  18
TORSDOF 3
ENDMDL
MODEL 2
REMARK VINA RESULT:      -1.3      0.767      2.436
REMARK  3 active torsions:
REMARK  status: ('A' for Active; 'I' for Inactive)
REMARK    1  A    between atoms: C_8  and  C_1 
REMARK    2  A    between atoms: N_7  and  C_8 
REMARK    3  A    between atoms: C_13  and  C_8 
ROOT
ATOM      1  C   UNL d   1      31.807  17.440 -24.210  0.00  0.00     0.075 C 
ENDROOT
BRANCH   1   2
ATOM      2  N   UNL d   1      32.281  16.783 -24.074  0.00  0.00    -0.303 N 
ATOM      3  C   UNL d   1      32.368  16.480 -23.320  0.00  0.00     0.080 A 
ATOM      4  C   UNL d   1      32.847  15.820 -23.191  0.00  0.00     0.018 A 
ATOM      5  C   UNL d   1      32.934  15.516 -22.436  0.00  0.00     0.002 C 
ATOM      6  C   UNL d   1      33.241  15.461 -23.822  0.00  0.00     0.003 A 
ATOM      7  C   UNL d   1      33.145  15.777 -24.578  0.00  0.00     0.019 A 
ATOM      8  C   UNL d   1      32.668  16.436 -24.709  0.00  0.00     0.080 A 
ENDBRANCH   1   2
BRANCH   1   9
ATOM      9  C   UNL d   1      32.157  18.184 -24.282  0.00  0.00     0.106 A 
ATOM     10  C   UNL d   1      32.220  18.756 -23.681  0.00  0.00     0.290 A 
ATOM     11  N   UNL d   1      32.608  19.412 -23.992  0.00  0.00    -0.169 N 
ATOM     12  O   UNL d   1      31.941  18.676 -22.908  0.00  0.00    -0.265 OA
ATOM     13  N   UNL d   1      32.885  20.162 -23.822  0.00  0.00    -0.138 NA
ATOM     14  C   UNL d   1      32.785  19.249 -24.782  0.00  0.00     0.200 A 
ATOM     15  C   UNL d   1      33.235  20.471 -24.500  0.00  0.00     0.222 A 
ATOM     16  N   UNL d   1      33.173  19.905 -25.094  0.00  0.00    -0.197 NA
ATOM     17  S   UNL d   1      32.510  18.497 -24.961  0.00  0.00    -0.042 SA
ENDBRANCH   1   9
BRANCH   1  18
ATOM     18  C   UNL d   1      30.994  17.363 -24.272  0.00  0.00     0.017 A 
ATOM     19  C   UNL d   1      30.537  17.325 -23.602  0.00  0.00     0.002 A 
ATOM     20  C   UNL d   1      29.738  17.249 -23.673  0.00  0.00     0.000 A 
ATOM     21  C   UNL d   1      29.374  17.209 -24.426  0.00  0.00     0.000 A 
ATOM     22  C   UNL d   1      29.834  17.247 -25.084  0.00  0.00     0.000 A 
ATOM     23  C   UNL d   1      30.654  17.325 -25.024  0.00  0.00     0.002 A 
ENDBRANCH   1  18
TORSDOF 3
ENDMDL
