MODEL 1
REMARK VINA RESULT:      27.1      0.000      0.000
REMARK  4 active torsions:
REMARK  status: ('A' for Active; 'I' for Inactive)
REMARK    1  A    between atoms: C_8  and  C_1 
REMARK    2  A    between atoms: C_6  and  O_10 
REMARK       I    between atoms: N_13  and  C_6 
REMARK    3  A    between atoms: C_11  and  C_8 
REMARK    4  A    between atoms: O_10  and  C_9 
ROOT
ATOM      1  C   UNL d   1      45.683 -15.336  44.579  0.00  0.00     0.141 A 
ATOM      2  C   UNL d   1      45.884 -16.640  44.318  0.00  0.00     0.105 A 
ATOM      3  O   UNL d   1      45.580 -16.108  44.876  0.00  0.00    -0.304 OA
ATOM      4  C   UNL d   1      46.176 -16.205  43.674  0.00  0.00     0.064 A 
ATOM      5  C   UNL d   1      46.055 -15.402  43.829  0.00  0.00     0.220 A 
ATOM      6  C   UNL d   1      45.930 -17.462  44.317  0.00  0.00     0.046 A 
ATOM      7  C   UNL d   1      46.267 -17.854  43.674  0.00  0.00     0.107 A 
ATOM      8  C   UNL d   1      46.511 -16.599  43.036  0.00  0.00     0.007 A 
ATOM      9  O   UNL d   1      46.262 -14.768  43.337  0.00  0.00    -0.284 OA
ATOM     10  C   UNL d   1      46.560 -17.420  43.030  0.00  0.00     0.025 A 
ATOM     11  C   UNL d   1      45.641 -17.898  44.955  0.00  0.00     0.004 C 
ENDROOT
BRANCH   1  12
ATOM     12  C   UNL d   1      45.461 -14.634  44.952  0.00  0.00     0.053 C 
BRANCH  12  13
ATOM     13  C   UNL d   1      45.352 -13.948  44.508  0.00  0.00     0.102 A 
ATOM     14  O   UNL d   1      44.666 -13.748  44.085  0.00  0.00    -0.305 OA
ATOM     15  C   UNL d   1      44.794 -13.019  43.723  0.00  0.00     0.123 A 
ATOM     16  C   UNL d   1      45.561 -12.768  43.923  0.00  0.00     0.029 A 
ATOM     17  C   UNL d   1      45.898 -13.345  44.406  0.00  0.00     0.027 A 
ENDBRANCH  12  13
ENDBRANCH   1  12
BRANCH   7  18
ATOM     18  O   UNL d   1      46.315 -18.674  43.669  0.00  0.00    -0.259 OA
BRANCH  18  19
ATOM     19  C   UNL d   1      46.456 -19.083  42.965  0.00  0.00     0.378 C 
ATOM     20  N   UNL d   1      46.415 -19.911  42.954  0.00  0.00    -0.249 N 
ATOM     21  C   UNL d   1      46.556 -20.324  42.249  0.00  0.00     0.104 C 
ATOM     22  C   UNL d   1      46.233 -20.330  43.647  0.00  0.00     0.104 C 
ATOM     23  O   UNL d   1      46.637 -18.671  42.274  0.00  0.00    -0.237 OA
ENDBRANCH  18  19
ENDBRANCH   7  18
TORSDOF 4
ENDMDL
