MODEL 1
REMARK VINA RESULT:      -7.5      0.000      0.000
REMARK  5 active torsions:
REMARK  status: ('A' for Active; 'I' for Inactive)
REMARK    1  A    between atoms: C_2  and  N_1 
REMARK       I    between atoms: C_3  and  N_1 
REMARK    2  A    between atoms: N_7  and  C_2 
REMARK    3  A    between atoms: C_4  and  C_3 
REMARK    4  A    between atoms: N_5  and  C_9 
REMARK    5  A    between atoms: C_17  and  N_7 
ROOT
ATOM      1  C   UNL d   1      50.394  34.239  52.594  0.00  0.00     0.064 A 
ATOM      2  C   UNL d   1      51.046  34.517  52.175  0.00  0.00     0.019 A 
ATOM      3  C   UNL d   1      50.447  33.505  52.993  0.00  0.00     0.019 A 
ATOM      4  C   UNL d   1      51.794  33.354  52.545  0.00  0.00     0.084 A 
ATOM      5  C   UNL d   1      51.148  33.062  52.969  0.00  0.00     0.021 A 
ATOM      6  C   UNL d   1      51.738  34.087  52.147  0.00  0.00     0.021 A 
ENDROOT
BRANCH   4   7
ATOM      7  N   UNL d   1      52.480  32.932  52.514  0.00  0.00    -0.217 NA
BRANCH   7   8
ATOM      8  C   UNL d   1      52.740  32.517  53.179  0.00  0.00     0.224 C 
ATOM      9  S   UNL d   1      52.568  31.723  53.256  0.00  0.00    -0.037 SA
BRANCH   8  10
ATOM     10  N   UNL d   1      53.180  32.921  53.769  0.00  0.00    -0.178 NA
ATOM     11  C   UNL d   1      53.919  32.659  53.959  0.00  0.00     0.287 C 
ATOM     12  O   UNL d   1      54.234  32.003  53.575  0.00  0.00    -0.265 OA
BRANCH  11  13
ATOM     13  C   UNL d   1      54.353  33.041  54.526  0.00  0.00     0.087 A 
ATOM     14  S   UNL d   1      54.998  33.531  54.388  0.00  0.00    -0.082 SA
ATOM     15  C   UNL d   1      55.281  33.809  55.132  0.00  0.00     0.036 A 
ATOM     16  C   UNL d   1      54.799  33.479  55.701  0.00  0.00     0.008 A 
ATOM     17  C   UNL d   1      54.228  33.007  55.350  0.00  0.00     0.012 A 
ENDBRANCH  11  13
ENDBRANCH   8  10
ENDBRANCH   7   8
ENDBRANCH   4   7
BRANCH   1  18
ATOM     18  N   UNL d   1      49.707  34.672  52.618  0.00  0.00    -0.300 N 
ATOM     19  C   UNL d   1      49.194  34.668  51.980  0.00  0.00     0.107 A 
ATOM     20  C   UNL d   1      48.494  35.105  51.995  0.00  0.00     0.142 A 
ATOM     21  O   UNL d   1      48.305  35.550  52.657  0.00  0.00    -0.300 OA
ATOM     22  C   UNL d   1      48.815  35.561  53.306  0.00  0.00     0.142 A 
ATOM     23  C   UNL d   1      49.518  35.124  53.292  0.00  0.00     0.107 A 
ENDBRANCH   1  18
TORSDOF 5
ENDMDL
MODEL 2
REMARK VINA RESULT:      -7.4      1.424      2.176
REMARK  5 active torsions:
REMARK  status: ('A' for Active; 'I' for Inactive)
REMARK    1  A    between atoms: C_2  and  N_1 
REMARK       I    between atoms: C_3  and  N_1 
REMARK    2  A    between atoms: N_7  and  C_2 
REMARK    3  A    between atoms: C_4  and  C_3 
REMARK    4  A    between atoms: N_5  and  C_9 
REMARK    5  A    between atoms: C_17  and  N_7 
ROOT
ATOM      1  C   UNL d   1      50.356  34.248  52.465  0.00  0.00     0.064 A 
ATOM      2  C   UNL d   1      50.275  33.738  53.107  0.00  0.00     0.019 A 
ATOM      3  C   UNL d   1      51.121  34.500  52.238  0.00  0.00     0.019 A 
ATOM      4  C   UNL d   1      51.694  33.730  53.294  0.00  0.00     0.084 A 
ATOM      5  C   UNL d   1      51.791  34.241  52.652  0.00  0.00     0.021 A 
ATOM      6  C   UNL d   1      50.929  33.480  53.519  0.00  0.00     0.021 A 
ENDROOT
BRANCH   4   7
ATOM      7  N   UNL d   1      52.338  33.472  53.705  0.00  0.00    -0.217 NA
BRANCH   7   8
ATOM      8  C   UNL d   1      52.900  32.993  53.334  0.00  0.00     0.224 C 
ATOM      9  S   UNL d   1      53.566  33.328  53.002  0.00  0.00    -0.037 SA
BRANCH   8  10
ATOM     10  N   UNL d   1      52.776  32.163  53.305  0.00  0.00    -0.178 NA
ATOM     11  C   UNL d   1      53.377  31.667  53.514  0.00  0.00     0.287 C 
ATOM     12  O   UNL d   1      54.101  31.976  53.752  0.00  0.00    -0.265 OA
BRANCH  11  13
ATOM     13  C   UNL d   1      53.269  30.865  53.489  0.00  0.00     0.087 A 
ATOM     14  S   UNL d   1      53.470  30.334  54.084  0.00  0.00    -0.082 SA
ATOM     15  C   UNL d   1      53.263  29.559  53.827  0.00  0.00     0.036 A 
ATOM     16  C   UNL d   1      52.941  29.640  53.083  0.00  0.00     0.008 A 
ATOM     17  C   UNL d   1      52.937  30.429  52.860  0.00  0.00     0.012 A 
ENDBRANCH  11  13
ENDBRANCH   8  10
ENDBRANCH   7   8
ENDBRANCH   4   7
BRANCH   1  18
ATOM     18  N   UNL d   1      49.701  34.502  52.058  0.00  0.00    -0.300 N 
ATOM     19  C   UNL d   1      49.586  34.278  51.280  0.00  0.00     0.107 A 
ATOM     20  C   UNL d   1      48.923  34.531  50.857  0.00  0.00     0.142 A 
ATOM     21  O   UNL d   1      48.370  35.014  51.219  0.00  0.00    -0.300 OA
ATOM     22  C   UNL d   1      48.475  35.247  52.004  0.00  0.00     0.142 A 
ATOM     23  C   UNL d   1      49.140  34.994  52.429  0.00  0.00     0.107 A 
ENDBRANCH   1  18
TORSDOF 5
ENDMDL
MODEL 3
REMARK VINA RESULT:      -7.0      1.840      5.323
REMARK  5 active torsions:
REMARK  status: ('A' for Active; 'I' for Inactive)
REMARK    1  A    between atoms: C_2  and  N_1 
REMARK       I    between atoms: C_3  and  N_1 
REMARK    2  A    between atoms: N_7  and  C_2 
REMARK    3  A    between atoms: C_4  and  C_3 
REMARK    4  A    between atoms: N_5  and  C_9 
REMARK    5  A    between atoms: C_17  and  N_7 
ROOT
ATOM      1  C   UNL d   1      52.707  33.446  53.698  0.00  0.00     0.064 A 
ATOM      2  C   UNL d   1      52.235  32.794  53.526  0.00  0.00     0.019 A 
ATOM      3  C   UNL d   1      52.378  34.214  53.646  0.00  0.00     0.019 A 
ATOM      4  C   UNL d   1      51.125  33.655  53.254  0.00  0.00     0.084 A 
ATOM      5  C   UNL d   1      51.586  34.319  53.424  0.00  0.00     0.021 A 
ATOM      6  C   UNL d   1      51.456  32.890  53.306  0.00  0.00     0.021 A 
ENDROOT
BRANCH   4   7
ATOM      7  N   UNL d   1      50.353  33.745  53.036  0.00  0.00    -0.217 NA
BRANCH   7   8
ATOM      8  C   UNL d   1      50.139  34.349  52.516  0.00  0.00     0.224 C 
ATOM      9  S   UNL d   1      50.452  34.370  51.762  0.00  0.00    -0.037 SA
BRANCH   8  10
ATOM     10  N   UNL d   1      49.596  34.938  52.772  0.00  0.00    -0.178 NA
ATOM     11  C   UNL d   1      48.913  35.051  52.359  0.00  0.00     0.287 C 
ATOM     12  O   UNL d   1      48.753  34.592  51.694  0.00  0.00    -0.265 OA
BRANCH  11  13
ATOM     13  C   UNL d   1      48.382  35.615  52.596  0.00  0.00     0.087 A 
ATOM     14  S   UNL d   1      47.806  35.962  52.123  0.00  0.00    -0.082 SA
ATOM     15  C   UNL d   1      47.379  36.517  52.592  0.00  0.00     0.036 A 
ATOM     16  C   UNL d   1      47.709  36.491  53.337  0.00  0.00     0.008 A 
ATOM     17  C   UNL d   1      48.322  35.947  53.359  0.00  0.00     0.012 A 
ENDBRANCH  11  13
ENDBRANCH   8  10
ENDBRANCH   7   8
ENDBRANCH   4   7
BRANCH   1  18
ATOM     18  N   UNL d   1      53.482  33.345  53.917  0.00  0.00    -0.300 N 
ATOM     19  C   UNL d   1      54.026  33.046  53.382  0.00  0.00     0.107 A 
ATOM     20  C   UNL d   1      54.817  32.939  53.594  0.00  0.00     0.142 A 
ATOM     21  O   UNL d   1      55.066  33.133  54.350  0.00  0.00    -0.300 OA
ATOM     22  C   UNL d   1      54.526  33.435  54.897  0.00  0.00     0.142 A 
ATOM     23  C   UNL d   1      53.733  33.543  54.686  0.00  0.00     0.107 A 
ENDBRANCH   1  18
TORSDOF 5
ENDMDL
MODEL 4
REMARK VINA RESULT:      -6.8      2.389      5.226
REMARK  5 active torsions:
REMARK  status: ('A' for Active; 'I' for Inactive)
REMARK    1  A    between atoms: C_2  and  N_1 
REMARK       I    between atoms: C_3  and  N_1 
REMARK    2  A    between atoms: N_7  and  C_2 
REMARK    3  A    between atoms: C_4  and  C_3 
REMARK    4  A    between atoms: N_5  and  C_9 
REMARK    5  A    between atoms: C_17  and  N_7 
ROOT
ATOM      1  C   UNL d   1      53.256  30.510  53.826  0.00  0.00     0.064 A 
ATOM      2  C   UNL d   1      52.756  30.607  53.179  0.00  0.00     0.019 A 
ATOM      3  C   UNL d   1      53.701  31.163  54.101  0.00  0.00     0.019 A 
ATOM      4  C   UNL d   1      53.136  31.983  53.080  0.00  0.00     0.084 A 
ATOM      5  C   UNL d   1      53.641  31.901  53.728  0.00  0.00     0.021 A 
ATOM      6  C   UNL d   1      52.693  31.330  52.808  0.00  0.00     0.021 A 
ENDROOT
BRANCH   4   7
ATOM      7  N   UNL d   1      53.069  32.697  52.709  0.00  0.00    -0.217 NA
BRANCH   7   8
ATOM      8  C   UNL d   1      52.691  33.326  53.088  0.00  0.00     0.224 C 
ATOM      9  S   UNL d   1      53.112  33.811  53.591  0.00  0.00    -0.037 SA
BRANCH   8  10
ATOM     10  N   UNL d   1      51.873  33.457  52.948  0.00  0.00    -0.178 NA
ATOM     11  C   UNL d   1      51.629  34.179  52.682  0.00  0.00     0.287 C 
ATOM     12  O   UNL d   1      52.180  34.776  52.552  0.00  0.00    -0.265 OA
BRANCH  11  13
ATOM     13  C   UNL d   1      50.844  34.317  52.544  0.00  0.00     0.087 A 
ATOM     14  S   UNL d   1      50.294  34.566  53.102  0.00  0.00    -0.082 SA
ATOM     15  C   UNL d   1      49.546  34.640  52.720  0.00  0.00     0.036 A 
ATOM     16  C   UNL d   1      49.663  34.434  51.940  0.00  0.00     0.008 A 
ATOM     17  C   UNL d   1      50.448  34.234  51.814  0.00  0.00     0.012 A 
ENDBRANCH  11  13
ENDBRANCH   8  10
ENDBRANCH   7   8
ENDBRANCH   4   7
BRANCH   1  18
ATOM     18  N   UNL d   1      53.316  29.787  54.193  0.00  0.00    -0.300 N 
ATOM     19  C   UNL d   1      53.585  29.135  53.778  0.00  0.00     0.107 A 
ATOM     20  C   UNL d   1      53.650  28.397  54.141  0.00  0.00     0.142 A 
ATOM     21  O   UNL d   1      53.442  28.310  54.929  0.00  0.00    -0.300 OA
ATOM     22  C   UNL d   1      53.168  28.961  55.357  0.00  0.00     0.142 A 
ATOM     23  C   UNL d   1      53.103  29.703  54.994  0.00  0.00     0.107 A 
ENDBRANCH   1  18
TORSDOF 5
ENDMDL
