MODEL 1
REMARK VINA RESULT:      -2.6      0.000      0.000
REMARK  3 active torsions:
REMARK  status: ('A' for Active; 'I' for Inactive)
REMARK    1  A    between atoms: N_4  and  C_1 
REMARK    2  A    between atoms: C_11  and  C_3 
REMARK       I    between atoms: C_5  and  N_4 
REMARK    3  A    between atoms: C_8  and  C_5 
ROOT
ATOM      1  N   UNL d   1      31.937  15.453 -23.304  0.00  0.00    -0.183 NA
ATOM      2  C   UNL d   1      32.675  15.820 -23.237  0.00  0.00     0.281 C 
ATOM      3  O   UNL d   1      33.237  15.501 -22.716  0.00  0.00    -0.265 OA
ENDROOT
BRANCH   1   4
ATOM      4  C   UNL d   1      31.365  15.752 -23.814  0.00  0.00     0.197 A 
ATOM      5  N   UNL d   1      30.754  16.269 -23.602  0.00  0.00    -0.219 NA
ATOM      6  C   UNL d   1      30.305  16.429 -24.286  0.00  0.00     0.108 A 
ATOM      7  C   UNL d   1      30.643  16.010 -24.915  0.00  0.00     0.059 A 
ATOM      8  S   UNL d   1      31.300  15.590 -24.621  0.00  0.00    -0.046 SA
BRANCH   6   9
ATOM      9  C   UNL d   1      29.637  16.924 -24.325  0.00  0.00     0.100 A 
ATOM     10  N   UNL d   1      29.592  17.503 -24.903  0.00  0.00    -0.242 NA
ATOM     11  C   UNL d   1      28.933  17.999 -24.950  0.00  0.00     0.099 A 
ATOM     12  C   UNL d   1      28.326  17.897 -24.404  0.00  0.00     0.021 A 
ATOM     13  C   UNL d   1      28.373  17.321 -23.831  0.00  0.00     0.003 A 
ATOM     14  C   UNL d   1      29.022  16.825 -23.776  0.00  0.00     0.021 A 
ENDBRANCH   6   9
ENDBRANCH   1   4
BRANCH   2  15
ATOM     15  C   UNL d   1      32.817  16.502 -23.702  0.00  0.00     0.060 A 
ATOM     16  C   UNL d   1      32.748  17.251 -23.372  0.00  0.00     0.032 A 
ATOM     17  C   UNL d   1      32.887  17.924 -23.829  0.00  0.00     0.123 A 
ATOM     18  O   UNL d   1      32.818  18.679 -23.499  0.00  0.00    -0.301 OA
ATOM     19  C   UNL d   1      33.099  17.829 -24.631  0.00  0.00     0.123 A 
ATOM     20  C   UNL d   1      32.959  19.352 -23.962  0.00  0.00     0.149 A 
ATOM     21  C   UNL d   1      33.172  19.259 -24.766  0.00  0.00     0.149 A 
ATOM     22  O   UNL d   1      33.241  18.510 -25.097  0.00  0.00    -0.301 OA
ATOM     23  C   UNL d   1      33.166  17.080 -24.954  0.00  0.00     0.027 A 
ATOM     24  C   UNL d   1      33.026  16.413 -24.493  0.00  0.00     0.007 A 
ENDBRANCH   2  15
TORSDOF 3
ENDMDL
MODEL 2
REMARK VINA RESULT:      -0.8      2.066      3.621
REMARK  3 active torsions:
REMARK  status: ('A' for Active; 'I' for Inactive)
REMARK    1  A    between atoms: N_4  and  C_1 
REMARK    2  A    between atoms: C_11  and  C_3 
REMARK       I    between atoms: C_5  and  N_4 
REMARK    3  A    between atoms: C_8  and  C_5 
ROOT
ATOM      1  N   UNL d   1      33.241  16.732 -23.795  0.00  0.00    -0.183 NA
ATOM      2  C   UNL d   1      32.599  16.277 -24.048  0.00  0.00     0.281 C 
ATOM      3  O   UNL d   1      32.688  15.453 -24.104  0.00  0.00    -0.265 OA
ENDROOT
BRANCH   1   4
ATOM      4  C   UNL d   1      33.175  17.550 -23.733  0.00  0.00     0.197 A 
ATOM      5  N   UNL d   1      33.127  17.977 -23.025  0.00  0.00    -0.219 NA
ATOM      6  C   UNL d   1      33.067  18.786 -23.217  0.00  0.00     0.108 A 
ATOM      7  C   UNL d   1      33.078  18.853 -24.042  0.00  0.00     0.059 A 
ATOM      8  S   UNL d   1      33.145  18.086 -24.361  0.00  0.00    -0.046 SA
BRANCH   6   9
ATOM      9  C   UNL d   1      33.007  19.413 -22.672  0.00  0.00     0.100 A 
ATOM     10  N   UNL d   1      32.906  20.179 -22.942  0.00  0.00    -0.242 NA
ATOM     11  C   UNL d   1      32.845  20.807 -22.409  0.00  0.00     0.099 A 
ATOM     12  C   UNL d   1      32.888  20.644 -21.604  0.00  0.00     0.021 A 
ATOM     13  C   UNL d   1      32.988  19.882 -21.338  0.00  0.00     0.003 A 
ATOM     14  C   UNL d   1      33.050  19.252 -21.858  0.00  0.00     0.021 A 
ENDBRANCH   6   9
ENDBRANCH   1   4
BRANCH   2  15
ATOM     15  C   UNL d   1      31.887  16.674 -24.236  0.00  0.00     0.060 A 
ATOM     16  C   UNL d   1      31.227  16.592 -23.752  0.00  0.00     0.032 A 
ATOM     17  C   UNL d   1      30.523  16.983 -23.935  0.00  0.00     0.123 A 
ATOM     18  O   UNL d   1      29.858  16.903 -23.451  0.00  0.00    -0.301 OA
ATOM     19  C   UNL d   1      30.495  17.461 -24.619  0.00  0.00     0.123 A 
ATOM     20  C   UNL d   1      29.153  17.297 -23.638  0.00  0.00     0.149 A 
ATOM     21  C   UNL d   1      29.122  17.777 -24.324  0.00  0.00     0.149 A 
ATOM     22  O   UNL d   1      29.782  17.859 -24.807  0.00  0.00    -0.301 OA
ATOM     23  C   UNL d   1      31.155  17.539 -25.097  0.00  0.00     0.027 A 
ATOM     24  C   UNL d   1      31.853  17.147 -24.908  0.00  0.00     0.007 A 
ENDBRANCH   2  15
TORSDOF 3
ENDMDL
