MODEL 1
REMARK VINA RESULT:      -8.6      0.000      0.000
REMARK  9 active torsions:
REMARK  status: ('A' for Active; 'I' for Inactive)
REMARK    1  A    between atoms: C_6  and  C_1 
REMARK    2  A    between atoms: C_2  and  O_5 
REMARK    3  A    between atoms: C_4  and  C_2 
REMARK    4  A    between atoms: O_5  and  C_3 
REMARK    5  A    between atoms: C_7  and  C_6 
REMARK    6  A    between atoms: C_10  and  C_7 
REMARK    7  A    between atoms: O_25  and  C_8 
REMARK    8  A    between atoms: C_20  and  C_10 
REMARK    9  A    between atoms: O_27  and  C_14 
ROOT
ATOM      1  C   UNL d   1      52.709  33.909  53.561  0.00  0.00     0.062 A 
ATOM      2  C   UNL d   1      53.121  33.207  53.748  0.00  0.00     0.106 A 
ATOM      3  C   UNL d   1      52.868  34.597  53.986  0.00  0.00     0.012 A 
ATOM      4  C   UNL d   1      53.678  33.213  54.351  0.00  0.00     0.025 A 
ATOM      5  C   UNL d   1      53.427  34.594  54.588  0.00  0.00     0.035 A 
ATOM      6  C   UNL d   1      53.835  33.899  54.773  0.00  0.00     0.009 A 
ATOM      7 BR   UNL d   1      53.584  35.286  55.011  0.00  0.00    -0.049 Br
ENDROOT
BRANCH   1   8
ATOM      8  C   UNL d   1      52.148  33.909  52.956  0.00  0.00     0.198 C 
ATOM      9  O   UNL d   1      52.363  33.664  52.196  0.00  0.00    -0.286 OA
BRANCH   8  10
ATOM     10  C   UNL d   1      51.377  34.153  53.108  0.00  0.00     0.042 C 
BRANCH  10  11
ATOM     11  C   UNL d   1      50.798  34.082  52.525  0.00  0.00     0.003 C 
BRANCH  11  12
ATOM     12  C   UNL d   1      50.084  34.504  52.591  0.00  0.00     0.002 A 
ATOM     13  C   UNL d   1      49.583  34.527  51.920  0.00  0.00     0.026 A 
ATOM     14  C   UNL d   1      48.863  34.961  52.007  0.00  0.00     0.116 A 
ATOM     15  C   UNL d   1      48.670  35.341  52.716  0.00  0.00     0.116 A 
ATOM     16  C   UNL d   1      49.197  35.296  53.367  0.00  0.00     0.026 A 
ATOM     17  C   UNL d   1      49.904  34.876  53.297  0.00  0.00     0.002 A 
BRANCH  14  18
ATOM     18  O   UNL d   1      48.343  35.010  51.377  0.00  0.00    -0.326 OA
ATOM     19  C   UNL d   1      48.499  34.606  50.673  0.00  0.00     0.181 C 
ENDBRANCH  14  18
BRANCH  15  20
ATOM     20  O   UNL d   1      47.964  35.760  52.785  0.00  0.00    -0.326 OA
ATOM     21  C   UNL d   1      47.807  36.197  53.470  0.00  0.00     0.181 C 
ENDBRANCH  15  20
ENDBRANCH  11  12
ENDBRANCH  10  11
ENDBRANCH   8  10
ENDBRANCH   1   8
BRANCH   2  22
ATOM     22  O   UNL d   1      52.964  32.520  53.327  0.00  0.00    -0.271 OA
BRANCH  22  23
ATOM     23  C   UNL d   1      53.489  31.883  53.374  0.00  0.00     0.323 C 
ATOM     24  O   UNL d   1      54.299  32.012  53.500  0.00  0.00    -0.257 OA
BRANCH  23  25
ATOM     25  C   UNL d   1      53.210  31.111  53.296  0.00  0.00     0.163 A 
ATOM     26  O   UNL d   1      52.680  30.846  52.723  0.00  0.00    -0.300 OA
ATOM     27  C   UNL d   1      52.552  30.030  52.852  0.00  0.00     0.123 A 
ATOM     28  C   UNL d   1      53.005  29.800  53.502  0.00  0.00     0.029 A 
ATOM     29  C   UNL d   1      53.411  30.468  53.777  0.00  0.00     0.032 A 
ENDBRANCH  23  25
ENDBRANCH  22  23
ENDBRANCH   2  22
TORSDOF 9
ENDMDL
MODEL 2
REMARK VINA RESULT:      -8.6      1.507      2.700
REMARK  9 active torsions:
REMARK  status: ('A' for Active; 'I' for Inactive)
REMARK    1  A    between atoms: C_6  and  C_1 
REMARK    2  A    between atoms: C_2  and  O_5 
REMARK    3  A    between atoms: C_4  and  C_2 
REMARK    4  A    between atoms: O_5  and  C_3 
REMARK    5  A    between atoms: C_7  and  C_6 
REMARK    6  A    between atoms: C_10  and  C_7 
REMARK    7  A    between atoms: O_25  and  C_8 
REMARK    8  A    between atoms: C_20  and  C_10 
REMARK    9  A    between atoms: O_27  and  C_14 
ROOT
ATOM      1  C   UNL d   1      52.858  32.022  53.091  0.00  0.00     0.062 A 
ATOM      2  C   UNL d   1      53.338  32.004  53.774  0.00  0.00     0.106 A 
ATOM      3  C   UNL d   1      52.571  31.316  52.779  0.00  0.00     0.012 A 
ATOM      4  C   UNL d   1      53.516  31.284  54.125  0.00  0.00     0.025 A 
ATOM      5  C   UNL d   1      52.753  30.599  53.137  0.00  0.00     0.035 A 
ATOM      6  C   UNL d   1      53.228  30.581  53.813  0.00  0.00     0.009 A 
ATOM      7 BR   UNL d   1      52.463  29.892  52.822  0.00  0.00    -0.049 Br
ENDROOT
BRANCH   1   8
ATOM      8  C   UNL d   1      52.676  32.743  52.733  0.00  0.00     0.198 C 
ATOM      9  O   UNL d   1      53.250  33.136  52.286  0.00  0.00    -0.286 OA
BRANCH   8  10
ATOM     10  C   UNL d   1      51.926  33.069  52.820  0.00  0.00     0.042 C 
BRANCH  10  11
ATOM     11  C   UNL d   1      51.709  33.732  52.379  0.00  0.00     0.003 C 
BRANCH  11  12
ATOM     12  C   UNL d   1      50.975  34.101  52.513  0.00  0.00     0.002 A 
ATOM     13  C   UNL d   1      50.411  34.080  51.894  0.00  0.00     0.026 A 
ATOM     14  C   UNL d   1      49.673  34.460  52.050  0.00  0.00     0.116 A 
ATOM     15  C   UNL d   1      49.521  34.831  52.773  0.00  0.00     0.116 A 
ATOM     16  C   UNL d   1      50.110  34.832  53.370  0.00  0.00     0.026 A 
ATOM     17  C   UNL d   1      50.837  34.465  53.233  0.00  0.00     0.002 A 
BRANCH  14  18
ATOM     18  O   UNL d   1      49.092  34.464  51.473  0.00  0.00    -0.326 OA
ATOM     19  C   UNL d   1      49.291  34.363  50.677  0.00  0.00     0.181 C 
ENDBRANCH  14  18
BRANCH  15  20
ATOM     20  O   UNL d   1      48.796  35.198  52.910  0.00  0.00    -0.326 OA
ATOM     21  C   UNL d   1      48.696  35.687  53.569  0.00  0.00     0.181 C 
ENDBRANCH  15  20
ENDBRANCH  11  12
ENDBRANCH  10  11
ENDBRANCH   8  10
ENDBRANCH   1   8
BRANCH   2  22
ATOM     22  O   UNL d   1      53.625  32.707  54.086  0.00  0.00    -0.271 OA
BRANCH  22  23
ATOM     23  C   UNL d   1      54.034  32.698  54.805  0.00  0.00     0.323 C 
ATOM     24  O   UNL d   1      53.872  32.117  55.374  0.00  0.00    -0.257 OA
BRANCH  23  25
ATOM     25  C   UNL d   1      54.607  33.269  54.961  0.00  0.00     0.163 A 
ATOM     26  O   UNL d   1      55.335  33.339  54.579  0.00  0.00    -0.300 OA
ATOM     27  C   UNL d   1      55.736  33.992  54.914  0.00  0.00     0.123 A 
ATOM     28  C   UNL d   1      55.253  34.318  55.497  0.00  0.00     0.029 A 
ATOM     29  C   UNL d   1      54.555  33.871  55.527  0.00  0.00     0.032 A 
ENDBRANCH  23  25
ENDBRANCH  22  23
ENDBRANCH   2  22
TORSDOF 9
ENDMDL
MODEL 3
REMARK VINA RESULT:      -7.7      2.196      4.832
REMARK  9 active torsions:
REMARK  status: ('A' for Active; 'I' for Inactive)
REMARK    1  A    between atoms: C_6  and  C_1 
REMARK    2  A    between atoms: C_2  and  O_5 
REMARK    3  A    between atoms: C_4  and  C_2 
REMARK    4  A    between atoms: O_5  and  C_3 
REMARK    5  A    between atoms: C_7  and  C_6 
REMARK    6  A    between atoms: C_10  and  C_7 
REMARK    7  A    between atoms: O_25  and  C_8 
REMARK    8  A    between atoms: C_20  and  C_10 
REMARK    9  A    between atoms: O_27  and  C_14 
ROOT
ATOM      1  C   UNL d   1      52.143  33.586  52.936  0.00  0.00     0.062 A 
ATOM      2  C   UNL d   1      52.468  34.142  53.467  0.00  0.00     0.106 A 
ATOM      3  C   UNL d   1      51.364  33.675  52.683  0.00  0.00     0.012 A 
ATOM      4  C   UNL d   1      52.007  34.769  53.729  0.00  0.00     0.025 A 
ATOM      5  C   UNL d   1      50.910  34.305  52.949  0.00  0.00     0.035 A 
ATOM      6  C   UNL d   1      51.232  34.856  53.476  0.00  0.00     0.009 A 
ATOM      7 BR   UNL d   1      50.129  34.392  52.693  0.00  0.00    -0.049 Br
ENDROOT
BRANCH   1   8
ATOM      8  C   UNL d   1      52.601  32.954  52.669  0.00  0.00     0.198 C 
ATOM      9  O   UNL d   1      53.171  33.078  52.083  0.00  0.00    -0.286 OA
BRANCH   8  10
ATOM     10  C   UNL d   1      52.491  32.202  52.985  0.00  0.00     0.042 C 
BRANCH  10  11
ATOM     11  C   UNL d   1      52.933  31.565  52.702  0.00  0.00     0.003 C 
BRANCH  11  12
ATOM     12  C   UNL d   1      52.962  30.853  53.131  0.00  0.00     0.002 A 
ATOM     13  C   UNL d   1      52.261  30.397  53.176  0.00  0.00     0.026 A 
ATOM     14  C   UNL d   1      52.312  29.678  53.616  0.00  0.00     0.116 A 
ATOM     15  C   UNL d   1      53.016  29.441  53.980  0.00  0.00     0.116 A 
ATOM     16  C   UNL d   1      53.699  29.924  53.913  0.00  0.00     0.026 A 
ATOM     17  C   UNL d   1      53.665  30.630  53.486  0.00  0.00     0.002 A 
BRANCH  14  18
ATOM     18  O   UNL d   1      51.651  29.201  53.687  0.00  0.00    -0.326 OA
ATOM     19  C   UNL d   1      50.893  29.531  53.677  0.00  0.00     0.181 C 
ENDBRANCH  14  18
BRANCH  15  20
ATOM     20  O   UNL d   1      53.050  28.737  54.406  0.00  0.00    -0.326 OA
ATOM     21  C   UNL d   1      53.714  28.563  54.868  0.00  0.00     0.181 C 
ENDBRANCH  15  20
ENDBRANCH  11  12
ENDBRANCH  10  11
ENDBRANCH   8  10
ENDBRANCH   1   8
BRANCH   2  22
ATOM     22  O   UNL d   1      53.244  34.055  53.721  0.00  0.00    -0.271 OA
BRANCH  22  23
ATOM     23  C   UNL d   1      53.495  34.444  54.406  0.00  0.00     0.323 C 
ATOM     24  O   UNL d   1      53.154  35.165  54.632  0.00  0.00    -0.257 OA
BRANCH  23  25
ATOM     25  C   UNL d   1      54.091  34.115  54.873  0.00  0.00     0.163 A 
ATOM     26  O   UNL d   1      53.976  33.639  55.536  0.00  0.00    -0.300 OA
ATOM     27  C   UNL d   1      54.729  33.432  55.835  0.00  0.00     0.123 A 
ATOM     28  C   UNL d   1      55.300  33.781  55.352  0.00  0.00     0.029 A 
ATOM     29  C   UNL d   1      54.906  34.203  54.758  0.00  0.00     0.032 A 
ENDBRANCH  23  25
ENDBRANCH  22  23
ENDBRANCH   2  22
TORSDOF 9
ENDMDL
MODEL 4
REMARK VINA RESULT:      -7.6      1.500      4.924
REMARK  9 active torsions:
REMARK  status: ('A' for Active; 'I' for Inactive)
REMARK    1  A    between atoms: C_6  and  C_1 
REMARK    2  A    between atoms: C_2  and  O_5 
REMARK    3  A    between atoms: C_4  and  C_2 
REMARK    4  A    between atoms: O_5  and  C_3 
REMARK    5  A    between atoms: C_7  and  C_6 
REMARK    6  A    between atoms: C_10  and  C_7 
REMARK    7  A    between atoms: O_25  and  C_8 
REMARK    8  A    between atoms: C_20  and  C_10 
REMARK    9  A    between atoms: O_27  and  C_14 
ROOT
ATOM      1  C   UNL d   1      53.808  33.486  53.922  0.00  0.00     0.062 A 
ATOM      2  C   UNL d   1      53.228  34.085  53.886  0.00  0.00     0.106 A 
ATOM      3  C   UNL d   1      54.379  33.511  54.517  0.00  0.00     0.012 A 
ATOM      4  C   UNL d   1      53.234  34.690  54.441  0.00  0.00     0.025 A 
ATOM      5  C   UNL d   1      54.378  34.120  55.068  0.00  0.00     0.035 A 
ATOM      6  C   UNL d   1      53.804  34.713  55.031  0.00  0.00     0.009 A 
ATOM      7 BR   UNL d   1      54.952  34.142  55.662  0.00  0.00    -0.049 Br
ENDROOT
BRANCH   1   8
ATOM      8  C   UNL d   1      53.806  32.875  53.368  0.00  0.00     0.198 C 
ATOM      9  O   UNL d   1      54.163  32.990  52.630  0.00  0.00    -0.286 OA
BRANCH   8  10
ATOM     10  C   UNL d   1      53.452  32.155  53.547  0.00  0.00     0.042 C 
BRANCH  10  11
ATOM     11  C   UNL d   1      53.635  31.482  53.106  0.00  0.00     0.003 C 
BRANCH  11  12
ATOM     12  C   UNL d   1      53.483  30.725  53.415  0.00  0.00     0.002 A 
ATOM     13  C   UNL d   1      52.716  30.406  53.304  0.00  0.00     0.026 A 
ATOM     14  C   UNL d   1      52.583  29.637  53.626  0.00  0.00     0.116 A 
ATOM     15  C   UNL d   1      53.178  29.225  54.027  0.00  0.00     0.116 A 
ATOM     16  C   UNL d   1      53.934  29.577  54.118  0.00  0.00     0.026 A 
ATOM     17  C   UNL d   1      54.080  30.328  53.810  0.00  0.00     0.002 A 
BRANCH  14  18
ATOM     18  O   UNL d   1      51.848  29.286  53.541  0.00  0.00    -0.326 OA
ATOM     19  C   UNL d   1      51.164  29.750  53.506  0.00  0.00     0.181 C 
ENDBRANCH  14  18
BRANCH  15  20
ATOM     20  O   UNL d   1      53.032  28.475  54.335  0.00  0.00    -0.326 OA
ATOM     21  C   UNL d   1      53.573  28.128  54.855  0.00  0.00     0.181 C 
ENDBRANCH  15  20
ENDBRANCH  11  12
ENDBRANCH  10  11
ENDBRANCH   8  10
ENDBRANCH   1   8
BRANCH   2  22
ATOM     22  O   UNL d   1      52.658  34.062  53.295  0.00  0.00    -0.271 OA
BRANCH  22  23
ATOM     23  C   UNL d   1      52.050  34.623  53.292  0.00  0.00     0.323 C 
ATOM     24  O   UNL d   1      52.126  35.330  53.719  0.00  0.00    -0.257 OA
BRANCH  23  25
ATOM     25  C   UNL d   1      51.360  34.481  52.863  0.00  0.00     0.163 A 
ATOM     26  O   UNL d   1      51.312  34.393  52.045  0.00  0.00    -0.300 OA
ATOM     27  C   UNL d   1      50.509  34.258  51.850  0.00  0.00     0.123 A 
ATOM     28  C   UNL d   1      50.072  34.266  52.549  0.00  0.00     0.029 A 
ATOM     29  C   UNL d   1      50.598  34.403  53.175  0.00  0.00     0.032 A 
ENDBRANCH  23  25
ENDBRANCH  22  23
ENDBRANCH   2  22
TORSDOF 9
ENDMDL
