MODEL 1
REMARK VINA RESULT:      -2.6      0.000      0.000
REMARK  3 active torsions:
REMARK  status: ('A' for Active; 'I' for Inactive)
REMARK    1  A    between atoms: C_2  and  N_1 
REMARK    2  A    between atoms: N_8  and  C_3 
REMARK       I    between atoms: C_9  and  N_8 
REMARK    3  A    between atoms: C_10  and  C_9 
ROOT
ATOM      1  N   UNL d   1      32.614  17.375 -24.339  0.00  0.00    -0.189 N 
ATOM      2  C   UNL d   1      31.918  17.150 -24.725  0.00  0.00     0.171 A 
ATOM      3  N   UNL d   1      33.165  16.774 -24.428  0.00  0.00    -0.162 NA
ATOM      4  C   UNL d   1      32.060  16.404 -25.048  0.00  0.00     0.060 A 
ATOM      5  C   UNL d   1      32.813  16.171 -24.871  0.00  0.00     0.105 A 
ATOM      6  C   UNL d   1      33.166  15.454 -25.097  0.00  0.00     0.023 C 
ENDROOT
BRANCH   1   7
ATOM      7  C   UNL d   1      32.762  18.080 -23.924  0.00  0.00     0.197 A 
ATOM      8  N   UNL d   1      32.833  18.102 -23.103  0.00  0.00    -0.221 NA
ATOM      9  C   UNL d   1      32.978  18.896 -22.887  0.00  0.00     0.090 A 
ATOM     10  C   UNL d   1      33.095  19.262 -22.174  0.00  0.00     0.020 A 
ATOM     11  C   UNL d   1      32.990  19.333 -23.588  0.00  0.00     0.050 A 
ATOM     12  C   UNL d   1      33.229  20.075 -22.133  0.00  0.00     0.002 A 
ATOM     13  C   UNL d   1      33.241  20.502 -22.824  0.00  0.00     0.001 A 
ATOM     14  C   UNL d   1      33.122  20.140 -23.554  0.00  0.00     0.008 A 
ATOM     15  S   UNL d   1      32.857  18.823 -24.216  0.00  0.00    -0.047 SA
ENDBRANCH   1   7
BRANCH   2  16
ATOM     16  N   UNL d   1      31.217  17.585 -24.779  0.00  0.00    -0.189 NA
ATOM     17  C   UNL d   1      30.503  17.192 -24.775  0.00  0.00     0.281 C 
ATOM     18  O   UNL d   1      30.486  16.371 -24.718  0.00  0.00    -0.265 OA
BRANCH  17  19
ATOM     19  C   UNL d   1      29.800  17.623 -24.828  0.00  0.00     0.058 A 
ATOM     20  C   UNL d   1      29.087  18.056 -24.878  0.00  0.00     0.005 A 
ATOM     21  C   UNL d   1      29.139  17.393 -24.389  0.00  0.00     0.005 A 
ENDBRANCH  17  19
ENDBRANCH   2  16
TORSDOF 3
ENDMDL
MODEL 2
REMARK VINA RESULT:      -1.7      1.896      4.161
REMARK  3 active torsions:
REMARK  status: ('A' for Active; 'I' for Inactive)
REMARK    1  A    between atoms: C_2  and  N_1 
REMARK    2  A    between atoms: N_8  and  C_3 
REMARK       I    between atoms: C_9  and  N_8 
REMARK    3  A    between atoms: C_10  and  C_9 
ROOT
ATOM      1  N   UNL d   1      32.877  19.533 -23.999  0.00  0.00    -0.189 N 
ATOM      2  C   UNL d   1      33.104  20.050 -23.394  0.00  0.00     0.171 A 
ATOM      3  N   UNL d   1      32.878  19.947 -24.707  0.00  0.00    -0.162 NA
ATOM      4  C   UNL d   1      33.241  20.781 -23.750  0.00  0.00     0.060 A 
ATOM      5  C   UNL d   1      33.107  20.725 -24.545  0.00  0.00     0.105 A 
ATOM      6  C   UNL d   1      33.185  21.341 -25.097  0.00  0.00     0.023 C 
ENDROOT
BRANCH   1   7
ATOM      7  C   UNL d   1      32.676  18.729 -23.933  0.00  0.00     0.197 A 
ATOM      8  N   UNL d   1      31.902  18.459 -24.019  0.00  0.00    -0.221 NA
ATOM      9  C   UNL d   1      31.915  17.630 -23.917  0.00  0.00     0.090 A 
ATOM     10  C   UNL d   1      31.337  17.062 -23.937  0.00  0.00     0.020 A 
ATOM     11  C   UNL d   1      32.701  17.422 -23.773  0.00  0.00     0.050 A 
ATOM     12  C   UNL d   1      31.522  16.268 -23.814  0.00  0.00     0.002 A 
ATOM     13  C   UNL d   1      32.295  16.065 -23.672  0.00  0.00     0.001 A 
ATOM     14  C   UNL d   1      32.890  16.635 -23.650  0.00  0.00     0.008 A 
ATOM     15  S   UNL d   1      33.158  18.102 -23.785  0.00  0.00    -0.047 SA
ENDBRANCH   1   7
BRANCH   2  16
ATOM     16  N   UNL d   1      33.178  19.871 -22.589  0.00  0.00    -0.189 NA
ATOM     17  C   UNL d   1      33.096  20.468 -22.041  0.00  0.00     0.281 C 
ATOM     18  O   UNL d   1      32.941  21.238 -22.288  0.00  0.00    -0.265 OA
BRANCH  17  19
ATOM     19  C   UNL d   1      33.170  20.294 -21.236  0.00  0.00     0.058 A 
ATOM     20  C   UNL d   1      33.241  20.120 -20.421  0.00  0.00     0.005 A 
ATOM     21  C   UNL d   1      32.645  20.625 -20.691  0.00  0.00     0.005 A 
ENDBRANCH  17  19
ENDBRANCH   2  16
TORSDOF 3
ENDMDL
MODEL 3
REMARK VINA RESULT:      -0.9      1.863      4.135
REMARK  3 active torsions:
REMARK  status: ('A' for Active; 'I' for Inactive)
REMARK    1  A    between atoms: C_2  and  N_1 
REMARK    2  A    between atoms: N_8  and  C_3 
REMARK       I    between atoms: C_9  and  N_8 
REMARK    3  A    between atoms: C_10  and  C_9 
ROOT
ATOM      1  N   UNL d   1      31.161  17.758 -24.544  0.00  0.00    -0.189 N 
ATOM      2  C   UNL d   1      31.919  17.567 -24.274  0.00  0.00     0.171 A 
ATOM      3  N   UNL d   1      31.180  18.517 -24.855  0.00  0.00    -0.162 NA
ATOM      4  C   UNL d   1      32.394  18.224 -24.429  0.00  0.00     0.060 A 
ATOM      5  C   UNL d   1      31.952  18.802 -24.780  0.00  0.00     0.105 A 
ATOM      6  C   UNL d   1      32.228  19.547 -25.021  0.00  0.00     0.023 C 
ENDROOT
BRANCH   1   7
ATOM      7  C   UNL d   1      30.477  17.285 -24.518  0.00  0.00     0.197 A 
ATOM      8  N   UNL d   1      29.914  17.355 -23.920  0.00  0.00    -0.221 NA
ATOM      9  C   UNL d   1      29.313  16.797 -24.077  0.00  0.00     0.090 A 
ATOM     10  C   UNL d   1      28.625  16.604 -23.695  0.00  0.00     0.020 A 
ATOM     11  C   UNL d   1      29.531  16.404 -24.769  0.00  0.00     0.050 A 
ATOM     12  C   UNL d   1      28.130  16.013 -23.989  0.00  0.00     0.002 A 
ATOM     13  C   UNL d   1      28.347  15.628 -24.670  0.00  0.00     0.001 A 
ATOM     14  C   UNL d   1      29.044  15.816 -25.066  0.00  0.00     0.008 A 
ATOM     15  S   UNL d   1      30.245  16.711 -25.031  0.00  0.00    -0.047 SA
ENDBRANCH   1   7
BRANCH   2  16
ATOM     16  N   UNL d   1      32.157  16.858 -23.920  0.00  0.00    -0.189 NA
ATOM     17  C   UNL d   1      32.757  16.871 -23.369  0.00  0.00     0.281 C 
ATOM     18  O   UNL d   1      33.120  17.583 -23.171  0.00  0.00    -0.265 OA
BRANCH  17  19
ATOM     19  C   UNL d   1      32.998  16.165 -23.012  0.00  0.00     0.058 A 
ATOM     20  C   UNL d   1      33.241  15.453 -22.648  0.00  0.00     0.005 A 
ATOM     21  C   UNL d   1      33.126  16.136 -22.197  0.00  0.00     0.005 A 
ENDBRANCH  17  19
ENDBRANCH   2  16
TORSDOF 3
ENDMDL
MODEL 4
REMARK VINA RESULT:      -0.6      3.121      5.420
REMARK  3 active torsions:
REMARK  status: ('A' for Active; 'I' for Inactive)
REMARK    1  A    between atoms: C_2  and  N_1 
REMARK    2  A    between atoms: N_8  and  C_3 
REMARK       I    between atoms: C_9  and  N_8 
REMARK    3  A    between atoms: C_10  and  C_9 
ROOT
ATOM      1  N   UNL d   1      33.223  21.786 -23.298  0.00  0.00    -0.189 N 
ATOM      2  C   UNL d   1      33.205  22.331 -22.675  0.00  0.00     0.171 A 
ATOM      3  N   UNL d   1      33.238  22.201 -24.005  0.00  0.00    -0.162 NA
ATOM      4  C   UNL d   1      33.211  23.080 -23.021  0.00  0.00     0.060 A 
ATOM      5  C   UNL d   1      33.230  23.008 -23.825  0.00  0.00     0.105 A 
ATOM      6  C   UNL d   1      33.241  23.634 -24.370  0.00  0.00     0.023 C 
ENDROOT
BRANCH   1   7
ATOM      7  C   UNL d   1      33.225  20.956 -23.247  0.00  0.00     0.197 A 
ATOM      8  N   UNL d   1      33.216  20.473 -23.916  0.00  0.00    -0.221 NA
ATOM      9  C   UNL d   1      33.221  19.681 -23.652  0.00  0.00     0.090 A 
ATOM     10  C   UNL d   1      33.217  18.970 -24.038  0.00  0.00     0.020 A 
ATOM     11  C   UNL d   1      33.233  19.708 -22.826  0.00  0.00     0.050 A 
ATOM     12  C   UNL d   1      33.224  18.260 -23.618  0.00  0.00     0.002 A 
ATOM     13  C   UNL d   1      33.236  18.289 -22.806  0.00  0.00     0.001 A 
ATOM     14  C   UNL d   1      33.241  19.007 -22.403  0.00  0.00     0.008 A 
ATOM     15  S   UNL d   1      33.235  20.493 -22.590  0.00  0.00    -0.047 SA
ENDBRANCH   1   7
BRANCH   2  16
ATOM     16  N   UNL d   1      33.187  22.161 -21.866  0.00  0.00    -0.189 NA
ATOM     17  C   UNL d   1      32.987  22.751 -21.341  0.00  0.00     0.281 C 
ATOM     18  O   UNL d   1      32.807  23.505 -21.616  0.00  0.00    -0.265 OA
BRANCH  17  19
ATOM     19  C   UNL d   1      32.967  22.585 -20.531  0.00  0.00     0.058 A 
ATOM     20  C   UNL d   1      32.946  22.422 -19.711  0.00  0.00     0.005 A 
ATOM     21  C   UNL d   1      32.841  23.193 -19.987  0.00  0.00     0.005 A 
ENDBRANCH  17  19
ENDBRANCH   2  16
TORSDOF 3
ENDMDL
MODEL 5
REMARK VINA RESULT:      -0.1      2.844      4.406
REMARK  3 active torsions:
REMARK  status: ('A' for Active; 'I' for Inactive)
REMARK    1  A    between atoms: C_2  and  N_1 
REMARK    2  A    between atoms: N_8  and  C_3 
REMARK       I    between atoms: C_9  and  N_8 
REMARK    3  A    between atoms: C_10  and  C_9 
ROOT
ATOM      1  N   UNL d   1      33.025  21.708 -23.000  0.00  0.00    -0.189 N 
ATOM      2  C   UNL d   1      33.171  20.958 -23.318  0.00  0.00     0.171 A 
ATOM      3  N   UNL d   1      33.000  22.250 -23.615  0.00  0.00    -0.162 NA
ATOM      4  C   UNL d   1      33.235  21.059 -24.134  0.00  0.00     0.060 A 
ATOM      5  C   UNL d   1      33.132  21.838 -24.320  0.00  0.00     0.105 A 
ATOM      6  C   UNL d   1      33.156  22.164 -25.084  0.00  0.00     0.023 C 
ENDROOT
BRANCH   1   7
ATOM      7  C   UNL d   1      32.916  21.910 -22.201  0.00  0.00     0.197 A 
ATOM      8  N   UNL d   1      33.210  21.447 -21.585  0.00  0.00    -0.221 NA
ATOM      9  C   UNL d   1      32.996  21.820 -20.869  0.00  0.00     0.090 A 
ATOM     10  C   UNL d   1      33.122  21.635 -20.090  0.00  0.00     0.020 A 
ATOM     11  C   UNL d   1      32.576  22.501 -21.074  0.00  0.00     0.050 A 
ATOM     12  C   UNL d   1      32.836  22.122 -19.489  0.00  0.00     0.002 A 
ATOM     13  C   UNL d   1      32.424  22.791 -19.693  0.00  0.00     0.001 A 
ATOM     14  C   UNL d   1      32.289  22.988 -20.481  0.00  0.00     0.008 A 
ATOM     15  S   UNL d   1      32.533  22.546 -21.891  0.00  0.00    -0.047 SA
ENDBRANCH   1   7
BRANCH   2  16
ATOM     16  N   UNL d   1      33.241  20.247 -22.901  0.00  0.00    -0.189 NA
ATOM     17  C   UNL d   1      33.082  19.546 -23.284  0.00  0.00     0.281 C 
ATOM     18  O   UNL d   1      32.856  19.550 -24.075  0.00  0.00    -0.265 OA
BRANCH  17  19
ATOM     19  C   UNL d   1      33.150  18.832 -22.871  0.00  0.00     0.058 A 
ATOM     20  C   UNL d   1      33.218  18.109 -22.458  0.00  0.00     0.005 A 
ATOM     21  C   UNL d   1      33.022  18.115 -23.260  0.00  0.00     0.005 A 
ENDBRANCH  17  19
ENDBRANCH   2  16
TORSDOF 3
ENDMDL
MODEL 6
REMARK VINA RESULT:       0.3      2.574      4.844
REMARK  3 active torsions:
REMARK  status: ('A' for Active; 'I' for Inactive)
REMARK    1  A    between atoms: C_2  and  N_1 
REMARK    2  A    between atoms: N_8  and  C_3 
REMARK       I    between atoms: C_9  and  N_8 
REMARK    3  A    between atoms: C_10  and  C_9 
ROOT
ATOM      1  N   UNL d   1      32.950  20.605 -21.998  0.00  0.00    -0.189 N 
ATOM      2  C   UNL d   1      33.054  21.355 -22.332  0.00  0.00     0.171 A 
ATOM      3  N   UNL d   1      32.910  20.688 -21.183  0.00  0.00    -0.162 NA
ATOM      4  C   UNL d   1      33.076  21.889 -21.704  0.00  0.00     0.060 A 
ATOM      5  C   UNL d   1      32.989  21.492 -21.007  0.00  0.00     0.105 A 
ATOM      6  C   UNL d   1      32.982  21.833 -20.249  0.00  0.00     0.023 C 
ENDROOT
BRANCH   1   7
ATOM      7  C   UNL d   1      32.892  19.876 -22.393  0.00  0.00     0.197 A 
ATOM      8  N   UNL d   1      32.437  19.777 -23.073  0.00  0.00    -0.221 NA
ATOM      9  C   UNL d   1      32.512  18.979 -23.310  0.00  0.00     0.090 A 
ATOM     10  C   UNL d   1      32.203  18.554 -23.926  0.00  0.00     0.020 A 
ATOM     11  C   UNL d   1      33.014  18.617 -22.763  0.00  0.00     0.050 A 
ATOM     12  C   UNL d   1      32.382  17.754 -24.019  0.00  0.00     0.002 A 
ATOM     13  C   UNL d   1      32.875  17.400 -23.480  0.00  0.00     0.001 A 
ATOM     14  C   UNL d   1      33.195  17.824 -22.850  0.00  0.00     0.008 A 
ATOM     15  S   UNL d   1      33.241  19.175 -22.206  0.00  0.00    -0.047 SA
ENDBRANCH   1   7
BRANCH   2  16
ATOM     16  N   UNL d   1      33.123  21.535 -23.137  0.00  0.00    -0.189 NA
ATOM     17  C   UNL d   1      33.105  22.315 -23.372  0.00  0.00     0.281 C 
ATOM     18  O   UNL d   1      33.019  22.913 -22.812  0.00  0.00    -0.265 OA
BRANCH  17  19
ATOM     19  C   UNL d   1      33.174  22.500 -24.175  0.00  0.00     0.058 A 
ATOM     20  C   UNL d   1      33.241  22.691 -24.986  0.00  0.00     0.005 A 
ATOM     21  C   UNL d   1      32.853  23.203 -24.467  0.00  0.00     0.005 A 
ENDBRANCH  17  19
ENDBRANCH   2  16
TORSDOF 3
ENDMDL
