MODEL 1
REMARK VINA RESULT:      72.4      0.000      0.000
REMARK  5 active torsions:
REMARK  status: ('A' for Active; 'I' for Inactive)
REMARK    1  A    between atoms: C_11  and  N_1 
REMARK    2  A    between atoms: C_15  and  C_3 
REMARK    3  A    between atoms: N_4  and  C_7 
REMARK    4  A    between atoms: C_9  and  C_10 
REMARK       I    between atoms: C_10  and  N_12 
REMARK    5  A    between atoms: N_12  and  C_15 
ROOT
ATOM      1  C   UNL d   1     -49.835  27.537  34.116  0.00  0.00     0.141 C 
ENDROOT
BRANCH   1   2
ATOM      2  N   UNL d   1     -49.526  28.272  34.333  0.00  0.00    -0.203 NA
ATOM      3  C   UNL d   1     -48.709  28.352  34.454  0.00  0.00     0.279 C 
ATOM      4  O   UNL d   1     -48.221  27.714  34.358  0.00  0.00    -0.265 OA
BRANCH   3   5
ATOM      5  C   UNL d   1     -48.403  29.094  34.672  0.00  0.00     0.059 A 
ATOM      6  C   UNL d   1     -48.021  29.180  35.400  0.00  0.00     0.027 A 
ATOM      7  C   UNL d   1     -47.724  29.905  35.611  0.00  0.00     0.127 A 
ATOM      8  C   UNL d   1     -47.952  28.525  35.894  0.00  0.00     0.002 C 
ATOM      9  C   UNL d   1     -47.797  30.564  35.105  0.00  0.00     0.024 A 
ATOM     10  C   UNL d   1     -48.175  30.489  34.380  0.00  0.00     0.002 A 
ATOM     11  C   UNL d   1     -48.474  29.762  34.166  0.00  0.00     0.005 A 
BRANCH   7  12
ATOM     12  N   UNL d   1     -47.347  29.979  36.333  0.00  0.00    -0.114 N 
ATOM     13  O   UNL d   1     -47.705  29.708  37.028  0.00  0.00    -0.532 OA
ATOM     14  O   UNL d   1     -46.594  30.332  36.376  0.00  0.00    -0.532 OA
ENDBRANCH   7  12
ENDBRANCH   3   5
ENDBRANCH   1   2
BRANCH   1  15
ATOM     15  C   UNL d   1     -50.636  27.467  33.922  0.00  0.00     0.191 A 
ATOM     16  N   UNL d   1     -51.027  26.784  33.688  0.00  0.00    -0.264 N 
ATOM     17  C   UNL d   1     -51.815  26.958  33.549  0.00  0.00     0.227 A 
ATOM     18  N   UNL d   1     -51.925  27.772  33.699  0.00  0.00    -0.117 NA
ATOM     19  S   UNL d   1     -52.399  26.434  33.306  0.00  0.00    -0.036 SA
ATOM     20  N   UNL d   1     -51.191  28.089  33.931  0.00  0.00    -0.126 NA
BRANCH  16  21
ATOM     21  C   UNL d   1     -50.678  26.035  33.606  0.00  0.00     0.068 A 
ATOM     22  C   UNL d   1     -49.883  25.983  33.387  0.00  0.00     0.020 A 
ATOM     23  C   UNL d   1     -49.546  25.234  33.308  0.00  0.00     0.031 A 
ATOM     24  C   UNL d   1     -49.984  24.548  33.442  0.00  0.00     0.140 A 
ATOM     25  C   UNL d   1     -50.781  24.618  33.661  0.00  0.00     0.031 A 
ATOM     26  F   UNL d   1     -49.640  23.812  33.361  0.00  0.00    -0.204 F 
ATOM     27  C   UNL d   1     -51.129  25.362  33.743  0.00  0.00     0.020 A 
ENDBRANCH  16  21
ENDBRANCH   1  15
TORSDOF 5
ENDMDL
