MODEL 1
REMARK VINA RESULT:      -8.9      0.000      0.000
REMARK  5 active torsions:
REMARK  status: ('A' for Active; 'I' for Inactive)
REMARK    1  A    between atoms: N_3  and  C_1 
REMARK       I    between atoms: C_9  and  N_3 
REMARK       I    between atoms: N_5  and  C_8 
REMARK    2  A    between atoms: C_8  and  C_16 
REMARK    3  A    between atoms: C_17  and  C_9 
REMARK    4  A    between atoms: S_13  and  C_17 
REMARK    5  A    between atoms: C_16  and  S_13 
ROOT
ATOM      1  N   UNL d   1      51.604  33.132  53.020  0.00  0.00    -0.183 NA
ATOM      2  C   UNL d   1      51.352  33.919  52.945  0.00  0.00     0.287 C 
ATOM      3  O   UNL d   1      51.818  34.534  53.250  0.00  0.00    -0.265 OA
ENDROOT
BRANCH   2   4
ATOM      4  C   UNL d   1      50.644  34.096  52.570  0.00  0.00     0.098 C 
BRANCH   4   5
ATOM      5  S   UNL d   1      50.065  34.548  52.955  0.00  0.00    -0.076 SA
BRANCH   5   6
ATOM      6  C   UNL d   1      49.416  34.836  52.533  0.00  0.00     0.097 C 
BRANCH   6   7
ATOM      7  C   UNL d   1      48.864  35.326  52.899  0.00  0.00     0.271 C 
ATOM      8  N   UNL d   1      48.168  35.530  52.508  0.00  0.00    -0.272 N 
ATOM      9  C   UNL d   1      47.620  36.018  52.876  0.00  0.00     0.083 A 
ATOM     10  C   UNL d   1      48.020  35.242  51.745  0.00  0.00     0.083 A 
ATOM     11  C   UNL d   1      46.925  36.219  52.481  0.00  0.00     0.018 A 
ATOM     12  C   UNL d   1      46.373  36.709  52.848  0.00  0.00     0.002 C 
ATOM     13  C   UNL d   1      46.784  35.929  51.720  0.00  0.00     0.003 A 
ATOM     14  C   UNL d   1      47.336  35.436  51.349  0.00  0.00     0.019 A 
ATOM     15  O   UNL d   1      49.013  35.610  53.655  0.00  0.00    -0.266 OA
ENDBRANCH   6   7
ENDBRANCH   5   6
ENDBRANCH   4   5
ENDBRANCH   2   4
BRANCH   1  16
ATOM     16  C   UNL d   1      52.326  33.178  53.421  0.00  0.00     0.182 A 
ATOM     17  N   UNL d   1      52.946  32.630  53.375  0.00  0.00    -0.283 N 
ATOM     18  C   UNL d   1      53.562  32.893  53.865  0.00  0.00     0.072 A 
ATOM     19  C   UNL d   1      52.943  31.949  52.922  0.00  0.00     0.101 C 
ATOM     20  C   UNL d   1      54.302  32.585  54.040  0.00  0.00     0.017 A 
ATOM     21  C   UNL d   1      53.323  33.604  54.214  0.00  0.00     0.048 A 
ATOM     22  C   UNL d   1      54.802  32.972  54.553  0.00  0.00    -0.011 A 
ATOM     23  C   UNL d   1      54.563  33.683  54.902  0.00  0.00     0.027 A 
ATOM     24  C   UNL d   1      53.825  34.006  54.738  0.00  0.00    -0.004 A 
ATOM     25  S   UNL d   1      52.558  33.783  53.941  0.00  0.00    -0.048 SA
ENDBRANCH   1  16
TORSDOF 5
ENDMDL
MODEL 2
REMARK VINA RESULT:      -8.6      0.882      6.041
REMARK  5 active torsions:
REMARK  status: ('A' for Active; 'I' for Inactive)
REMARK    1  A    between atoms: N_3  and  C_1 
REMARK       I    between atoms: C_9  and  N_3 
REMARK       I    between atoms: N_5  and  C_8 
REMARK    2  A    between atoms: C_8  and  C_16 
REMARK    3  A    between atoms: C_17  and  C_9 
REMARK    4  A    between atoms: S_13  and  C_17 
REMARK    5  A    between atoms: C_16  and  S_13 
ROOT
ATOM      1  N   UNL d   1      49.584  34.548  51.826  0.00  0.00    -0.183 NA
ATOM      2  C   UNL d   1      49.965  34.476  52.560  0.00  0.00     0.287 C 
ATOM      3  O   UNL d   1      49.634  34.828  53.234  0.00  0.00    -0.265 OA
ENDROOT
BRANCH   2   4
ATOM      4  C   UNL d   1      50.669  34.060  52.625  0.00  0.00     0.098 C 
BRANCH   4   5
ATOM      5  S   UNL d   1      51.279  34.338  53.112  0.00  0.00    -0.076 SA
BRANCH   5   6
ATOM      6  C   UNL d   1      51.956  33.879  53.232  0.00  0.00     0.097 C 
BRANCH   6   7
ATOM      7  C   UNL d   1      52.565  34.152  53.715  0.00  0.00     0.271 C 
ATOM      8  N   UNL d   1      53.158  33.636  53.962  0.00  0.00    -0.272 N 
ATOM      9  C   UNL d   1      53.764  33.910  54.443  0.00  0.00     0.083 A 
ATOM     10  C   UNL d   1      53.145  32.842  53.727  0.00  0.00     0.083 A 
ATOM     11  C   UNL d   1      54.356  33.392  54.689  0.00  0.00     0.018 A 
ATOM     12  C   UNL d   1      54.965  33.664  55.172  0.00  0.00     0.002 C 
ATOM     13  C   UNL d   1      54.336  32.600  54.450  0.00  0.00     0.003 A 
ATOM     14  C   UNL d   1      53.725  32.323  53.965  0.00  0.00     0.019 A 
ATOM     15  O   UNL d   1      52.577  34.939  53.947  0.00  0.00    -0.266 OA
ENDBRANCH   6   7
ENDBRANCH   5   6
ENDBRANCH   4   5
ENDBRANCH   2   4
BRANCH   1  16
ATOM     16  C   UNL d   1      48.907  34.997  51.982  0.00  0.00     0.182 A 
ATOM     17  N   UNL d   1      48.254  35.085  51.480  0.00  0.00    -0.283 N 
ATOM     18  C   UNL d   1      47.704  35.582  51.855  0.00  0.00     0.072 A 
ATOM     19  C   UNL d   1      48.172  34.740  50.743  0.00  0.00     0.101 C 
ATOM     20  C   UNL d   1      46.966  35.862  51.630  0.00  0.00     0.017 A 
ATOM     21  C   UNL d   1      48.017  35.800  52.589  0.00  0.00     0.048 A 
ATOM     22  C   UNL d   1      46.542  36.353  52.122  0.00  0.00    -0.011 A 
ATOM     23  C   UNL d   1      46.855  36.571  52.856  0.00  0.00     0.027 A 
ATOM     24  C   UNL d   1      47.593  36.299  53.097  0.00  0.00    -0.004 A 
ATOM     25  S   UNL d   1      48.762  35.439  52.670  0.00  0.00    -0.048 SA
ENDBRANCH   1  16
TORSDOF 5
ENDMDL
MODEL 3
REMARK VINA RESULT:      -6.2     10.386     10.996
REMARK  5 active torsions:
REMARK  status: ('A' for Active; 'I' for Inactive)
REMARK    1  A    between atoms: N_3  and  C_1 
REMARK       I    between atoms: C_9  and  N_3 
REMARK       I    between atoms: N_5  and  C_8 
REMARK    2  A    between atoms: C_8  and  C_16 
REMARK    3  A    between atoms: C_17  and  C_9 
REMARK    4  A    between atoms: S_13  and  C_17 
REMARK    5  A    between atoms: C_16  and  S_13 
ROOT
ATOM      1  N   UNL d   1      44.426  25.295  57.066  0.00  0.00    -0.183 NA
ATOM      2  C   UNL d   1      44.893  25.951  56.867  0.00  0.00     0.287 C 
ATOM      3  O   UNL d   1      45.359  25.933  56.181  0.00  0.00    -0.265 OA
ENDROOT
BRANCH   2   4
ATOM      4  C   UNL d   1      44.899  26.618  57.344  0.00  0.00     0.098 C 
BRANCH   4   5
ATOM      5  S   UNL d   1      45.053  27.366  57.020  0.00  0.00    -0.076 SA
BRANCH   5   6
ATOM      6  C   UNL d   1      45.121  28.025  57.513  0.00  0.00     0.097 C 
BRANCH   6   7
ATOM      7  C   UNL d   1      44.966  28.781  57.222  0.00  0.00     0.271 C 
ATOM      8  N   UNL d   1      44.994  29.431  57.728  0.00  0.00    -0.272 N 
ATOM      9  C   UNL d   1      44.839  30.183  57.436  0.00  0.00     0.083 A 
ATOM     10  C   UNL d   1      45.179  29.328  58.529  0.00  0.00     0.083 A 
ATOM     11  C   UNL d   1      44.868  30.831  57.944  0.00  0.00     0.018 A 
ATOM     12  C   UNL d   1      44.713  31.586  57.654  0.00  0.00     0.002 C 
ATOM     13  C   UNL d   1      45.053  30.721  58.742  0.00  0.00     0.003 A 
ATOM     14  C   UNL d   1      45.210  29.964  59.037  0.00  0.00     0.019 A 
ATOM     15  O   UNL d   1      44.783  28.880  56.428  0.00  0.00    -0.266 OA
ENDBRANCH   6   7
ENDBRANCH   5   6
ENDBRANCH   4   5
ENDBRANCH   2   4
BRANCH   1  16
ATOM     16  C   UNL d   1      44.565  24.744  56.465  0.00  0.00     0.182 A 
ATOM     17  N   UNL d   1      44.772  23.949  56.569  0.00  0.00    -0.283 N 
ATOM     18  C   UNL d   1      44.857  23.603  55.819  0.00  0.00     0.072 A 
ATOM     19  C   UNL d   1      44.875  23.577  57.290  0.00  0.00     0.101 C 
ATOM     20  C   UNL d   1      45.054  22.843  55.578  0.00  0.00     0.017 A 
ATOM     21  C   UNL d   1      44.702  24.184  55.252  0.00  0.00     0.048 A 
ATOM     22  C   UNL d   1      45.096  22.658  54.787  0.00  0.00    -0.011 A 
ATOM     23  C   UNL d   1      44.941  23.239  54.219  0.00  0.00     0.027 A 
ATOM     24  C   UNL d   1      44.743  24.005  54.443  0.00  0.00    -0.004 A 
ATOM     25  S   UNL d   1      44.521  24.892  55.649  0.00  0.00    -0.048 SA
ENDBRANCH   1  16
TORSDOF 5
ENDMDL
MODEL 4
REMARK VINA RESULT:      -6.1     10.346     11.487
REMARK  5 active torsions:
REMARK  status: ('A' for Active; 'I' for Inactive)
REMARK    1  A    between atoms: N_3  and  C_1 
REMARK       I    between atoms: C_9  and  N_3 
REMARK       I    between atoms: N_5  and  C_8 
REMARK    2  A    between atoms: C_8  and  C_16 
REMARK    3  A    between atoms: C_17  and  C_9 
REMARK    4  A    between atoms: S_13  and  C_17 
REMARK    5  A    between atoms: C_16  and  S_13 
ROOT
ATOM      1  N   UNL d   1      45.316  27.253  57.306  0.00  0.00    -0.183 NA
ATOM      2  C   UNL d   1      44.832  26.841  56.772  0.00  0.00     0.287 C 
ATOM      3  O   UNL d   1      44.316  27.258  56.275  0.00  0.00    -0.265 OA
ENDROOT
BRANCH   2   4
ATOM      4  C   UNL d   1      44.860  26.022  56.733  0.00  0.00     0.098 C 
BRANCH   4   5
ATOM      5  S   UNL d   1      44.728  25.630  56.013  0.00  0.00    -0.076 SA
BRANCH   5   6
ATOM      6  C   UNL d   1      44.872  24.819  55.950  0.00  0.00     0.097 C 
BRANCH   6   7
ATOM      7  C   UNL d   1      44.760  24.431  55.232  0.00  0.00     0.271 C 
ATOM      8  N   UNL d   1      44.989  23.643  55.149  0.00  0.00    -0.272 N 
ATOM      9  C   UNL d   1      44.877  23.258  54.432  0.00  0.00     0.083 A 
ATOM     10  C   UNL d   1      45.333  23.240  55.786  0.00  0.00     0.083 A 
ATOM     11  C   UNL d   1      45.107  22.471  54.353  0.00  0.00     0.018 A 
ATOM     12  C   UNL d   1      44.995  22.082  53.635  0.00  0.00     0.002 C 
ATOM     13  C   UNL d   1      45.449  22.074  54.993  0.00  0.00     0.003 A 
ATOM     14  C   UNL d   1      45.562  22.462  55.715  0.00  0.00     0.019 A 
ATOM     15  O   UNL d   1      44.420  24.832  54.602  0.00  0.00    -0.266 OA
ENDBRANCH   6   7
ENDBRANCH   5   6
ENDBRANCH   4   5
ENDBRANCH   2   4
BRANCH   1  16
ATOM     16  C   UNL d   1      45.134  28.050  57.184  0.00  0.00     0.182 A 
ATOM     17  N   UNL d   1      45.029  28.622  57.774  0.00  0.00    -0.283 N 
ATOM     18  C   UNL d   1      44.854  29.345  57.407  0.00  0.00     0.072 A 
ATOM     19  C   UNL d   1      45.089  28.490  58.579  0.00  0.00     0.101 C 
ATOM     20  C   UNL d   1      44.698  30.095  57.702  0.00  0.00     0.017 A 
ATOM     21  C   UNL d   1      44.850  29.221  56.589  0.00  0.00     0.048 A 
ATOM     22  C   UNL d   1      44.541  30.715  57.198  0.00  0.00    -0.011 A 
ATOM     23  C   UNL d   1      44.538  30.590  56.381  0.00  0.00     0.027 A 
ATOM     24  C   UNL d   1      44.691  29.845  56.067  0.00  0.00    -0.004 A 
ATOM     25  S   UNL d   1      45.023  28.420  56.449  0.00  0.00    -0.048 SA
ENDBRANCH   1  16
TORSDOF 5
ENDMDL
MODEL 5
REMARK VINA RESULT:      -5.9     10.170     11.194
REMARK  5 active torsions:
REMARK  status: ('A' for Active; 'I' for Inactive)
REMARK    1  A    between atoms: N_3  and  C_1 
REMARK       I    between atoms: C_9  and  N_3 
REMARK       I    between atoms: N_5  and  C_8 
REMARK    2  A    between atoms: C_8  and  C_16 
REMARK    3  A    between atoms: C_17  and  C_9 
REMARK    4  A    between atoms: S_13  and  C_17 
REMARK    5  A    between atoms: C_16  and  S_13 
ROOT
ATOM      1  N   UNL d   1      45.159  28.797  56.916  0.00  0.00    -0.183 NA
ATOM      2  C   UNL d   1      44.765  28.098  57.127  0.00  0.00     0.287 C 
ATOM      3  O   UNL d   1      44.352  28.058  57.845  0.00  0.00    -0.265 OA
ENDROOT
BRANCH   2   4
ATOM      4  C   UNL d   1      44.780  27.445  56.631  0.00  0.00     0.098 C 
BRANCH   4   5
ATOM      5  S   UNL d   1      44.656  26.683  56.934  0.00  0.00    -0.076 SA
BRANCH   5   6
ATOM      6  C   UNL d   1      44.668  26.029  56.429  0.00  0.00     0.097 C 
BRANCH   6   7
ATOM      7  C   UNL d   1      44.646  25.265  56.735  0.00  0.00     0.271 C 
ATOM      8  N   UNL d   1      44.705  24.616  56.231  0.00  0.00    -0.272 N 
ATOM      9  C   UNL d   1      44.683  23.855  56.539  0.00  0.00     0.083 A 
ATOM     10  C   UNL d   1      44.788  24.729  55.414  0.00  0.00     0.083 A 
ATOM     11  C   UNL d   1      44.743  23.208  56.031  0.00  0.00     0.018 A 
ATOM     12  C   UNL d   1      44.721  22.444  56.338  0.00  0.00     0.002 C 
ATOM     13  C   UNL d   1      44.825  23.329  55.217  0.00  0.00     0.003 A 
ATOM     14  C   UNL d   1      44.848  24.095  54.906  0.00  0.00     0.019 A 
ATOM     15  O   UNL d   1      44.564  25.155  57.545  0.00  0.00    -0.266 OA
ENDBRANCH   6   7
ENDBRANCH   5   6
ENDBRANCH   4   5
ENDBRANCH   2   4
BRANCH   1  16
ATOM     16  C   UNL d   1      45.019  29.318  57.544  0.00  0.00     0.182 A 
ATOM     17  N   UNL d   1      44.732  30.092  57.480  0.00  0.00    -0.283 N 
ATOM     18  C   UNL d   1      44.676  30.411  58.245  0.00  0.00     0.072 A 
ATOM     19  C   UNL d   1      44.539  30.471  56.781  0.00  0.00     0.101 C 
ATOM     20  C   UNL d   1      44.432  31.143  58.524  0.00  0.00     0.017 A 
ATOM     21  C   UNL d   1      44.929  29.833  58.780  0.00  0.00     0.048 A 
ATOM     22  C   UNL d   1      44.436  31.305  59.322  0.00  0.00    -0.011 A 
ATOM     23  C   UNL d   1      44.688  30.727  59.857  0.00  0.00     0.027 A 
ATOM     24  C   UNL d   1      44.937  29.988  59.595  0.00  0.00    -0.004 A 
ATOM     25  S   UNL d   1      45.142  29.155  58.349  0.00  0.00    -0.048 SA
ENDBRANCH   1  16
TORSDOF 5
ENDMDL
