MODEL 1
REMARK VINA RESULT:      39.8      0.000      0.000
REMARK  3 active torsions:
REMARK  status: ('A' for Active; 'I' for Inactive)
REMARK       I    between atoms: C_4  and  N_1 
REMARK    1  A    between atoms: N_3  and  C_2 
REMARK    2  A    between atoms: C_9  and  C_4 
REMARK    3  A    between atoms: N_10  and  C_5 
ROOT
ATOM      1  C   UNL d   1      45.180 -16.057  44.237  0.00  0.00     0.143 A 
ATOM      2  C   UNL d   1      45.911 -15.623  44.224  0.00  0.00     0.086 A 
ATOM      3  C   UNL d   1      45.226 -16.892  44.248  0.00  0.00     0.030 A 
ATOM      4  C   UNL d   1      45.961 -17.262  44.246  0.00  0.00     0.058 A 
ATOM      5  C   UNL d   1      46.622 -16.021  44.222  0.00  0.00     0.019 A 
ATOM      6  C   UNL d   1      46.639 -16.841  44.233  0.00  0.00     0.006 A 
ENDROOT
BRANCH   4   7
ATOM      7  C   UNL d   1      45.970 -18.090  44.257  0.00  0.00     0.265 C 
ATOM      8  N   UNL d   1      46.139 -18.495  43.539  0.00  0.00    -0.275 N 
ATOM      9  C   UNL d   1      46.173 -19.313  43.443  0.00  0.00     0.067 A 
ATOM     10  C   UNL d   1      46.300 -18.138  42.811  0.00  0.00     0.067 A 
ATOM     11  C   UNL d   1      46.349 -19.459  42.679  0.00  0.00     0.019 A 
ATOM     12  C   UNL d   1      46.046 -20.178  44.057  0.00  0.00     0.019 C 
ATOM     13  C   UNL d   1      46.432 -18.745  42.267  0.00  0.00     0.018 A 
ATOM     14  C   UNL d   1      46.607 -18.557  41.483  0.00  0.00     0.002 A 
ATOM     15  C   UNL d   1      46.646 -17.778  41.262  0.00  0.00     0.000 A 
ATOM     16  C   UNL d   1      46.517 -17.175  41.793  0.00  0.00     0.002 A 
ATOM     17  C   UNL d   1      46.341 -17.355  42.578  0.00  0.00     0.018 A 
ATOM     18  O   UNL d   1      45.819 -18.526  44.950  0.00  0.00    -0.267 OA
ENDBRANCH   4   7
BRANCH   1  19
ATOM     19  N   UNL d   1      44.450 -15.656  44.238  0.00  0.00    -0.112 N 
ATOM     20  O   UNL d   1      44.147 -15.318  43.522  0.00  0.00    -0.532 OA
ATOM     21  O   UNL d   1      44.009 -15.581  44.937  0.00  0.00    -0.532 OA
ENDBRANCH   1  19
BRANCH   2  22
ATOM     22  N   UNL d   1      45.889 -14.792  44.212  0.00  0.00    -0.302 N 
ATOM     23  C   UNL d   1      45.932 -14.334  44.921  0.00  0.00     0.080 A 
ATOM     24  C   UNL d   1      45.909 -13.510  44.886  0.00  0.00     0.019 A 
ATOM     25  C   UNL d   1      45.845 -13.127  44.166  0.00  0.00     0.003 A 
ATOM     26  C   UNL d   1      45.801 -13.553  43.452  0.00  0.00     0.019 A 
ATOM     27  C   UNL d   1      45.823 -14.378  43.483  0.00  0.00     0.080 A 
ENDBRANCH   2  22
TORSDOF 3
ENDMDL
