MODEL 1
REMARK VINA RESULT:      83.8      0.000      0.000
REMARK  3 active torsions:
REMARK  status: ('A' for Active; 'I' for Inactive)
REMARK    1  A    between atoms: C_2  and  C_1 
REMARK    2  A    between atoms: C_4  and  C_1 
REMARK       I    between atoms: N_3  and  C_2 
REMARK    3  A    between atoms: C_6  and  N_5 
ROOT
ATOM      1  C   UNL d   1     -51.588  25.855  33.877  0.00  0.00     0.253 C 
ATOM      2  N   UNL d   1     -51.515  26.042  34.676  0.00  0.00    -0.272 N 
ATOM      3  N   UNL d   1     -51.325  26.490  36.230  0.00  0.00    -0.299 N 
ATOM      4  O   UNL d   1     -51.289  26.364  33.306  0.00  0.00    -0.271 OA
ATOM      5  C   UNL d   1     -51.136  26.744  34.868  0.00  0.00     0.102 A 
ATOM      6  C   UNL d   1     -51.796  25.569  35.263  0.00  0.00     0.102 A 
ATOM      7  C   UNL d   1     -51.038  26.974  35.637  0.00  0.00     0.100 A 
ATOM      8  C   UNL d   1     -51.704  25.787  36.049  0.00  0.00     0.100 A 
ENDROOT
BRANCH   1   9
ATOM      9  C   UNL d   1     -51.963  25.158  33.644  0.00  0.00     0.137 A 
ATOM     10  C   UNL d   1     -52.332  24.468  33.413  0.00  0.00     0.018 A 
ATOM     11  C   UNL d   1     -53.156  24.453  33.306  0.00  0.00     0.119 A 
ATOM     12  O   UNL d   1     -53.598  25.125  33.430  0.00  0.00    -0.304 OA
ATOM     13  C   UNL d   1     -53.228  25.823  33.663  0.00  0.00     0.119 A 
ATOM     14  C   UNL d   1     -52.408  25.842  33.771  0.00  0.00     0.018 A 
BRANCH   9  15
ATOM     15  C   UNL d   1     -51.513  24.475  33.517  0.00  0.00     0.023 A 
ATOM     16  S   UNL d   1     -51.796  23.697  33.463  0.00  0.00    -0.090 SA
ATOM     17  C   UNL d   1     -51.161  23.188  33.335  0.00  0.00     0.035 A 
ATOM     18  C   UNL d   1     -50.474  23.633  33.307  0.00  0.00     0.007 A 
ATOM     19  C   UNL d   1     -50.688  24.432  33.419  0.00  0.00     0.004 A 
ENDBRANCH   9  15
ENDBRANCH   1   9
BRANCH   3  20
ATOM     20  C   UNL d   1     -51.236  26.703  37.005  0.00  0.00     0.092 A 
ATOM     21  C   UNL d   1     -51.785  26.458  37.566  0.00  0.00     0.156 A 
ATOM     22  F   UNL d   1     -52.418  26.001  37.347  0.00  0.00    -0.203 F 
ATOM     23  C   UNL d   1     -51.695  26.672  38.344  0.00  0.00     0.031 A 
ATOM     24  C   UNL d   1     -51.054  27.136  38.574  0.00  0.00     0.002 A 
ATOM     25  C   UNL d   1     -50.504  27.382  38.009  0.00  0.00     0.002 A 
ATOM     26  C   UNL d   1     -50.597  27.163  37.220  0.00  0.00     0.020 A 
ENDBRANCH   3  20
TORSDOF 3
ENDMDL
