MODEL 1
REMARK VINA RESULT:       4.4      0.000      0.000
REMARK  2 active torsions:
REMARK  status: ('A' for Active; 'I' for Inactive)
REMARK       I    between atoms: N_2  and  C_1 
REMARK    1  A    between atoms: C_6  and  C_1 
REMARK    2  A    between atoms: C_4  and  N_2 
ROOT
ATOM      1  C   UNL d   1     -51.805  24.368  33.313  0.00  0.00     0.085 A 
ATOM      2  C   UNL d   1     -52.460  24.880  33.306  0.00  0.00     0.019 A 
ATOM      3  C   UNL d   1     -51.907  23.549  33.326  0.00  0.00     0.019 A 
ATOM      4  C   UNL d   1     -52.667  23.227  33.331  0.00  0.00     0.002 A 
ATOM      5  C   UNL d   1     -53.220  24.558  33.311  0.00  0.00     0.002 A 
ATOM      6  C   UNL d   1     -53.324  23.726  33.324  0.00  0.00     0.000 A 
ENDROOT
BRANCH   1   7
ATOM      7  N   UNL d   1     -51.045  24.690  33.308  0.00  0.00    -0.207 NA
ATOM      8  C   UNL d   1     -50.944  25.508  33.312  0.00  0.00     0.300 C 
ATOM      9  O   UNL d   1     -51.604  26.006  33.321  0.00  0.00    -0.263 OA
BRANCH   8  10
ATOM     10  C   UNL d   1     -50.185  25.829  33.306  0.00  0.00     0.184 C 
ATOM     11  N   UNL d   1     -50.081  26.643  33.399  0.00  0.00    -0.141 N 
ENDBRANCH   8  10
ENDBRANCH   1   7
TORSDOF 2
ENDMDL
MODEL 2
REMARK VINA RESULT:       4.6      1.326      2.772
REMARK  2 active torsions:
REMARK  status: ('A' for Active; 'I' for Inactive)
REMARK       I    between atoms: N_2  and  C_1 
REMARK    1  A    between atoms: C_6  and  C_1 
REMARK    2  A    between atoms: C_4  and  N_2 
ROOT
ATOM      1  C   UNL d   1     -51.656  25.302  33.336  0.00  0.00     0.085 A 
ATOM      2  C   UNL d   1     -51.919  26.089  33.383  0.00  0.00     0.019 A 
ATOM      3  C   UNL d   1     -50.850  25.125  33.309  0.00  0.00     0.019 A 
ATOM      4  C   UNL d   1     -50.292  25.733  33.329  0.00  0.00     0.002 A 
ATOM      5  C   UNL d   1     -51.362  26.697  33.403  0.00  0.00     0.002 A 
ATOM      6  C   UNL d   1     -50.543  26.518  33.375  0.00  0.00     0.000 A 
ENDROOT
BRANCH   1   7
ATOM      7  N   UNL d   1     -52.213  24.693  33.316  0.00  0.00    -0.207 NA
ATOM      8  C   UNL d   1     -51.964  23.907  33.328  0.00  0.00     0.300 C 
ATOM      9  O   UNL d   1     -51.158  23.729  33.358  0.00  0.00    -0.263 OA
BRANCH   8  10
ATOM     10  C   UNL d   1     -52.521  23.299  33.308  0.00  0.00     0.184 C 
ATOM     11  N   UNL d   1     -53.300  23.448  33.532  0.00  0.00    -0.141 N 
ENDBRANCH   8  10
ENDBRANCH   1   7
TORSDOF 2
ENDMDL
