MODEL 1
REMARK VINA RESULT:      85.2      0.000      0.000
REMARK  6 active torsions:
REMARK  status: ('A' for Active; 'I' for Inactive)
REMARK    1  A    between atoms: S_5  and  C_2 
REMARK    2  A    between atoms: C_15  and  S_5 
REMARK    3  A    between atoms: N_11  and  C_8 
REMARK    4  A    between atoms: C_16  and  N_11 
REMARK    5  A    between atoms: C_17  and  N_12 
REMARK    6  A    between atoms: C_24  and  C_17 
ROOT
ATOM      1  C   UNL d   1      14.106  13.654  -2.757  0.00  0.00     0.197 A 
ATOM      2  C   UNL d   1      14.521  13.636  -2.055  0.00  0.00     0.227 A 
ATOM      3  N   UNL d   1      13.991  12.874  -3.005  0.00  0.00    -0.192 N 
ATOM      4  N   UNL d   1      13.811  14.279  -3.215  0.00  0.00    -0.206 NA
ATOM      5  N   UNL d   1      14.665  12.854  -1.863  0.00  0.00    -0.115 NA
ATOM      6  N   UNL d   1      14.335  12.375  -2.454  0.00  0.00    -0.058 NA
ATOM      7  C   UNL d   1      13.406  14.123  -3.913  0.00  0.00     0.166 A 
ATOM      8  C   UNL d   1      13.291  13.342  -4.160  0.00  0.00     0.054 A 
ATOM      9  C   UNL d   1      13.582  12.720  -3.709  0.00  0.00     0.089 A 
ATOM     10  C   UNL d   1      12.884  13.188  -4.861  0.00  0.00     0.005 A 
ATOM     11  C   UNL d   1      13.467  11.936  -3.957  0.00  0.00     0.019 A 
ATOM     12  C   UNL d   1      12.769  12.403  -5.110  0.00  0.00     0.000 A 
ATOM     13  C   UNL d   1      13.062  11.780  -4.655  0.00  0.00     0.002 A 
ENDROOT
BRANCH   7  14
ATOM     14  N   UNL d   1      13.115  14.758  -4.364  0.00  0.00    -0.227 NA
BRANCH  14  15
ATOM     15  C   UNL d   1      13.623  15.370  -4.604  0.00  0.00     0.086 A 
ATOM     16  C   UNL d   1      13.693  16.056  -4.145  0.00  0.00     0.038 A 
ATOM     17  C   UNL d   1      14.199  16.664  -4.387  0.00  0.00     0.082 A 
ATOM     18  N   UNL d   1      14.633  16.583  -5.088  0.00  0.00    -0.302 N 
ATOM     19  C   UNL d   1      14.561  15.902  -5.541  0.00  0.00     0.082 A 
ATOM     20  C   UNL d   1      14.055  15.294  -5.299  0.00  0.00     0.038 A 
BRANCH  18  21
ATOM     21  C   UNL d   1      15.138  17.186  -5.332  0.00  0.00     0.080 C 
BRANCH  21  22
ATOM     22  C   UNL d   1      14.847  17.954  -5.423  0.00  0.00     0.018 A 
ATOM     23  C   UNL d   1      14.702  18.250  -6.177  0.00  0.00     0.002 A 
ATOM     24  C   UNL d   1      14.412  19.012  -6.275  0.00  0.00     0.000 A 
ATOM     25  C   UNL d   1      14.264  19.491  -5.605  0.00  0.00     0.000 A 
ATOM     26  C   UNL d   1      14.412  19.187  -4.854  0.00  0.00     0.000 A 
ATOM     27  C   UNL d   1      14.703  18.421  -4.757  0.00  0.00     0.002 A 
ENDBRANCH  21  22
ENDBRANCH  18  21
ENDBRANCH  14  15
ENDBRANCH   7  14
BRANCH   2  28
ATOM     28  S   UNL d   1      14.756  14.292  -1.612  0.00  0.00     0.231 S 
ATOM     29  O   UNL d   1      13.991  14.603  -1.667  0.00  0.00    -0.215 OA
ATOM     30  O   UNL d   1      15.520  13.989  -1.552  0.00  0.00    -0.215 OA
BRANCH  28  31
ATOM     31  C   UNL d   1      14.982  14.951  -1.170  0.00  0.00     0.090 A 
ATOM     32  C   UNL d   1      15.373  14.849  -0.459  0.00  0.00     0.011 A 
ATOM     33  C   UNL d   1      15.601  15.506  -0.014  0.00  0.00     0.001 A 
ATOM     34  C   UNL d   1      15.435  16.266  -0.286  0.00  0.00     0.000 A 
ATOM     35  C   UNL d   1      15.044  16.363  -0.998  0.00  0.00     0.001 A 
ATOM     36  C   UNL d   1      14.819  15.709  -1.438  0.00  0.00     0.011 A 
ENDBRANCH  28  31
ENDBRANCH   2  28
TORSDOF 6
ENDMDL
