MODEL 1
REMARK VINA RESULT:     275.9      0.000      0.000
REMARK  5 active torsions:
REMARK  status: ('A' for Active; 'I' for Inactive)
REMARK    1  A    between atoms: C_12  and  N_4 
REMARK    2  A    between atoms: C_10  and  N_6 
REMARK    3  A    between atoms: C_11  and  C_10 
REMARK       I    between atoms: N_14  and  C_11 
REMARK    4  A    between atoms: C_16  and  N_14 
REMARK    5  A    between atoms: C_17  and  C_16 
ROOT
ATOM      1  C   UNL d   1      60.750  38.615  50.786  0.00  0.00     0.172 A 
ATOM      2  C   UNL d   1      60.409  38.339  50.087  0.00  0.00     0.113 A 
ATOM      3  N   UNL d   1      60.499  38.324  51.511  0.00  0.00    -0.206 NA
ATOM      4  N   UNL d   1      61.324  39.177  50.577  0.00  0.00    -0.212 N 
ATOM      5  C   UNL d   1      59.817  37.773  50.114  0.00  0.00     0.271 A 
ATOM      6  N   UNL d   1      59.560  37.476  50.843  0.00  0.00    -0.251 N 
ATOM      7  N   UNL d   1      61.327  39.238  49.761  0.00  0.00    -0.162 NA
ATOM      8  C   UNL d   1      59.901  37.752  51.541  0.00  0.00     0.187 A 
ATOM      9  C   UNL d   1      60.778  38.736  49.459  0.00  0.00     0.129 A 
ATOM     10  O   UNL d   1      59.475  37.497  49.415  0.00  0.00    -0.266 OA
ENDROOT
BRANCH   6  11
ATOM     11  C   UNL d   1      58.958  36.899  50.878  0.00  0.00     0.147 C 
BRANCH  11  12
ATOM     12  C   UNL d   1      58.658  36.655  51.613  0.00  0.00     0.297 C 
ATOM     13  N   UNL d   1      59.164  36.283  52.148  0.00  0.00    -0.205 NA
ATOM     14  O   UNL d   1      57.872  36.786  51.795  0.00  0.00    -0.264 OA
BRANCH  13  15
ATOM     15  C   UNL d   1      58.864  36.039  52.884  0.00  0.00     0.102 C 
BRANCH  15  16
ATOM     16  C   UNL d   1      59.041  36.482  53.548  0.00  0.00     0.019 A 
ATOM     17  C   UNL d   1      59.439  37.192  53.484  0.00  0.00     0.002 A 
ATOM     18  C   UNL d   1      59.617  37.638  54.163  0.00  0.00     0.000 A 
ATOM     19  C   UNL d   1      59.384  37.351  54.901  0.00  0.00     0.000 A 
ATOM     20  C   UNL d   1      58.985  36.642  54.973  0.00  0.00     0.000 A 
ATOM     21  C   UNL d   1      58.808  36.197  54.293  0.00  0.00     0.002 A 
ENDBRANCH  15  16
ENDBRANCH  13  15
ENDBRANCH  11  12
ENDBRANCH   6  11
BRANCH   4  22
ATOM     22  C   UNL d   1      61.814  39.610  51.062  0.00  0.00     0.085 A 
ATOM     23  C   UNL d   1      62.577  39.822  50.802  0.00  0.00     0.019 A 
ATOM     24  C   UNL d   1      63.064  40.258  51.294  0.00  0.00     0.002 A 
ATOM     25  C   UNL d   1      62.799  40.490  52.059  0.00  0.00     0.000 A 
ATOM     26  C   UNL d   1      62.053  40.277  52.300  0.00  0.00     0.002 A 
ATOM     27  C   UNL d   1      61.556  39.839  51.812  0.00  0.00     0.019 A 
ENDBRANCH   4  22
TORSDOF 5
ENDMDL
