MODEL 1
REMARK VINA RESULT:      -8.2      0.000      0.000
REMARK  4 active torsions:
REMARK  status: ('A' for Active; 'I' for Inactive)
REMARK    1  A    between atoms: N_2  and  S_1 
REMARK    2  A    between atoms: C_3  and  S_1 
REMARK    3  A    between atoms: O_15  and  C_11 
REMARK    4  A    between atoms: O_17  and  C_13 
ROOT
ATOM      1  C   UNL d   1      53.009  32.876  53.478  0.00  0.00     0.128 A 
ATOM      2  C   UNL d   1      53.611  33.344  53.803  0.00  0.00     0.039 A 
ATOM      3  C   UNL d   1      53.120  32.069  53.391  0.00  0.00     0.106 A 
ATOM      4  C   UNL d   1      53.835  31.725  53.629  0.00  0.00     0.027 A 
ATOM      5  C   UNL d   1      54.317  33.002  54.037  0.00  0.00     0.095 A 
ATOM      6  C   UNL d   1      54.431  32.190  53.950  0.00  0.00     0.026 A 
ENDROOT
BRANCH   1   7
ATOM      7  S   UNL d   1      52.293  33.216  53.240  0.00  0.00     0.274 S 
ATOM      8  O   UNL d   1      52.491  33.098  52.450  0.00  0.00    -0.199 OA
ATOM      9  O   UNL d   1      52.094  33.335  54.032  0.00  0.00    -0.199 OA
BRANCH   7  10
ATOM     10  N   UNL d   1      51.585  33.554  53.014  0.00  0.00    -0.213 N 
ATOM     11  C   UNL d   1      51.511  34.136  52.474  0.00  0.00     0.157 A 
ATOM     12  N   UNL d   1      50.696  34.328  52.399  0.00  0.00    -0.224 NA
ATOM     13  C   UNL d   1      52.072  34.539  52.020  0.00  0.00     0.041 C 
ATOM     14  C   UNL d   1      50.298  33.833  52.919  0.00  0.00     0.120 A 
ATOM     15  C   UNL d   1      50.867  33.344  53.306  0.00  0.00     0.114 A 
ENDBRANCH   7  10
ENDBRANCH   1   7
BRANCH   3  16
ATOM     16  O   UNL d   1      52.518  31.600  53.066  0.00  0.00    -0.327 OA
ATOM     17  C   UNL d   1      52.641  30.793  52.966  0.00  0.00     0.181 C 
ENDBRANCH   3  16
BRANCH   5  18
ATOM     18  O   UNL d   1      54.917  33.469  54.361  0.00  0.00    -0.328 OA
ATOM     19  C   UNL d   1      55.002  33.515  55.178  0.00  0.00     0.181 C 
ENDBRANCH   5  18
TORSDOF 4
ENDMDL
MODEL 2
REMARK VINA RESULT:      -8.1      1.463      2.768
REMARK  4 active torsions:
REMARK  status: ('A' for Active; 'I' for Inactive)
REMARK    1  A    between atoms: N_2  and  S_1 
REMARK    2  A    between atoms: C_3  and  S_1 
REMARK    3  A    between atoms: O_15  and  C_11 
REMARK    4  A    between atoms: O_17  and  C_13 
ROOT
ATOM      1  C   UNL d   1      53.188  32.411  53.643  0.00  0.00     0.128 A 
ATOM      2  C   UNL d   1      53.585  31.704  53.818  0.00  0.00     0.039 A 
ATOM      3  C   UNL d   1      52.584  32.416  53.089  0.00  0.00     0.106 A 
ATOM      4  C   UNL d   1      52.373  31.712  52.706  0.00  0.00     0.027 A 
ATOM      5  C   UNL d   1      53.374  31.009  53.437  0.00  0.00     0.095 A 
ATOM      6  C   UNL d   1      52.767  31.013  52.879  0.00  0.00     0.026 A 
ENDROOT
BRANCH   1   7
ATOM      7  S   UNL d   1      53.396  33.115  54.024  0.00  0.00     0.274 S 
ATOM      8  O   UNL d   1      53.918  33.299  53.415  0.00  0.00    -0.199 OA
ATOM      9  O   UNL d   1      52.873  32.930  54.636  0.00  0.00    -0.199 OA
BRANCH   7  10
ATOM     10  N   UNL d   1      53.596  33.807  54.408  0.00  0.00    -0.213 N 
ATOM     11  C   UNL d   1      54.248  33.907  54.854  0.00  0.00     0.157 A 
ATOM     12  N   UNL d   1      54.251  34.694  55.149  0.00  0.00    -0.224 NA
ATOM     13  C   UNL d   1      54.865  33.392  55.049  0.00  0.00     0.041 C 
ATOM     14  C   UNL d   1      53.572  35.049  54.855  0.00  0.00     0.120 A 
ATOM     15  C   UNL d   1      53.160  34.482  54.386  0.00  0.00     0.114 A 
ENDBRANCH   7  10
ENDBRANCH   1   7
BRANCH   3  16
ATOM     16  O   UNL d   1      52.187  33.122  52.915  0.00  0.00    -0.327 OA
ATOM     17  C   UNL d   1      51.539  33.109  52.409  0.00  0.00     0.181 C 
ENDBRANCH   3  16
BRANCH   5  18
ATOM     18  O   UNL d   1      53.770  30.306  53.611  0.00  0.00    -0.328 OA
ATOM     19  C   UNL d   1      53.337  29.627  53.783  0.00  0.00     0.181 C 
ENDBRANCH   5  18
TORSDOF 4
ENDMDL
MODEL 3
REMARK VINA RESULT:      -8.1      0.744      2.183
REMARK  4 active torsions:
REMARK  status: ('A' for Active; 'I' for Inactive)
REMARK    1  A    between atoms: N_2  and  S_1 
REMARK    2  A    between atoms: C_3  and  S_1 
REMARK    3  A    between atoms: O_15  and  C_11 
REMARK    4  A    between atoms: O_17  and  C_13 
ROOT
ATOM      1  C   UNL d   1      52.937  32.296  53.334  0.00  0.00     0.128 A 
ATOM      2  C   UNL d   1      52.690  31.553  53.060  0.00  0.00     0.039 A 
ATOM      3  C   UNL d   1      53.634  32.365  53.759  0.00  0.00     0.106 A 
ATOM      4  C   UNL d   1      54.088  31.691  53.914  0.00  0.00     0.027 A 
ATOM      5  C   UNL d   1      53.142  30.887  53.215  0.00  0.00     0.095 A 
ATOM      6  C   UNL d   1      53.844  30.955  53.643  0.00  0.00     0.026 A 
ENDROOT
BRANCH   1   7
ATOM      7  S   UNL d   1      52.485  32.971  53.180  0.00  0.00     0.274 S 
ATOM      8  O   UNL d   1      52.263  33.012  53.972  0.00  0.00    -0.199 OA
ATOM      9  O   UNL d   1      52.707  32.931  52.386  0.00  0.00    -0.199 OA
BRANCH   7  10
ATOM     10  N   UNL d   1      52.041  33.637  53.020  0.00  0.00    -0.213 N 
ATOM     11  C   UNL d   1      51.250  33.688  53.106  0.00  0.00     0.157 A 
ATOM     12  N   UNL d   1      51.007  34.461  52.884  0.00  0.00    -0.224 NA
ATOM     13  C   UNL d   1      50.688  33.136  53.358  0.00  0.00     0.041 C 
ATOM     14  C   UNL d   1      51.690  34.860  52.666  0.00  0.00     0.120 A 
ATOM     15  C   UNL d   1      52.343  34.333  52.754  0.00  0.00     0.114 A 
ENDBRANCH   7  10
ENDBRANCH   1   7
BRANCH   3  16
ATOM     16  O   UNL d   1      53.881  33.108  54.032  0.00  0.00    -0.327 OA
ATOM     17  C   UNL d   1      54.570  33.169  54.476  0.00  0.00     0.181 C 
ENDBRANCH   3  16
BRANCH   5  18
ATOM     18  O   UNL d   1      52.896  30.147  52.943  0.00  0.00    -0.328 OA
ATOM     19  C   UNL d   1      52.898  29.503  53.455  0.00  0.00     0.181 C 
ENDBRANCH   5  18
TORSDOF 4
ENDMDL
MODEL 4
REMARK VINA RESULT:      -7.7      1.525      3.225
REMARK  4 active torsions:
REMARK  status: ('A' for Active; 'I' for Inactive)
REMARK    1  A    between atoms: N_2  and  S_1 
REMARK    2  A    between atoms: C_3  and  S_1 
REMARK    3  A    between atoms: O_15  and  C_11 
REMARK    4  A    between atoms: O_17  and  C_13 
ROOT
ATOM      1  C   UNL d   1      52.562  33.422  53.527  0.00  0.00     0.128 A 
ATOM      2  C   UNL d   1      52.040  34.055  53.411  0.00  0.00     0.039 A 
ATOM      3  C   UNL d   1      52.395  32.688  53.203  0.00  0.00     0.106 A 
ATOM      4  C   UNL d   1      51.703  32.584  52.760  0.00  0.00     0.027 A 
ATOM      5  C   UNL d   1      51.356  33.949  52.972  0.00  0.00     0.095 A 
ATOM      6  C   UNL d   1      51.186  33.211  52.645  0.00  0.00     0.026 A 
ENDROOT
BRANCH   1   7
ATOM      7  S   UNL d   1      53.254  33.524  53.969  0.00  0.00     0.274 S 
ATOM      8  O   UNL d   1      52.878  33.231  54.640  0.00  0.00    -0.199 OA
ATOM      9  O   UNL d   1      53.632  33.818  53.296  0.00  0.00    -0.199 OA
BRANCH   7  10
ATOM     10  N   UNL d   1      53.941  33.628  54.397  0.00  0.00    -0.213 N 
ATOM     11  C   UNL d   1      54.046  34.180  54.962  0.00  0.00     0.157 A 
ATOM     12  N   UNL d   1      54.824  34.106  55.268  0.00  0.00    -0.224 NA
ATOM     13  C   UNL d   1      53.540  34.763  55.260  0.00  0.00     0.041 C 
ATOM     14  C   UNL d   1      55.171  33.484  54.857  0.00  0.00     0.120 A 
ATOM     15  C   UNL d   1      54.606  33.185  54.306  0.00  0.00     0.114 A 
ENDBRANCH   7  10
ENDBRANCH   1   7
BRANCH   3  16
ATOM     16  O   UNL d   1      52.918  32.055  53.319  0.00  0.00    -0.327 OA
ATOM     17  C   UNL d   1      52.745  31.321  52.990  0.00  0.00     0.181 C 
ENDBRANCH   3  16
BRANCH   5  18
ATOM     18  O   UNL d   1      50.836  34.580  52.857  0.00  0.00    -0.328 OA
ATOM     19  C   UNL d   1      50.052  34.431  52.653  0.00  0.00     0.181 C 
ENDBRANCH   5  18
TORSDOF 4
ENDMDL
MODEL 5
REMARK VINA RESULT:      -7.6      1.501      2.784
REMARK  4 active torsions:
REMARK  status: ('A' for Active; 'I' for Inactive)
REMARK    1  A    between atoms: N_2  and  S_1 
REMARK    2  A    between atoms: C_3  and  S_1 
REMARK    3  A    between atoms: O_15  and  C_11 
REMARK    4  A    between atoms: O_17  and  C_13 
ROOT
ATOM      1  C   UNL d   1      52.703  33.552  53.471  0.00  0.00     0.128 A 
ATOM      2  C   UNL d   1      53.105  33.963  54.068  0.00  0.00     0.039 A 
ATOM      3  C   UNL d   1      52.181  33.949  52.980  0.00  0.00     0.106 A 
ATOM      4  C   UNL d   1      52.058  34.761  53.083  0.00  0.00     0.027 A 
ATOM      5  C   UNL d   1      52.982  34.768  54.168  0.00  0.00     0.095 A 
ATOM      6  C   UNL d   1      52.457  35.169  53.674  0.00  0.00     0.026 A 
ENDROOT
BRANCH   1   7
ATOM      7  S   UNL d   1      52.823  32.740  53.366  0.00  0.00     0.274 S 
ATOM      8  O   UNL d   1      53.416  32.892  52.816  0.00  0.00    -0.199 OA
ATOM      9  O   UNL d   1      52.228  32.588  53.918  0.00  0.00    -0.199 OA
BRANCH   7  10
ATOM     10  N   UNL d   1      52.935  31.938  53.269  0.00  0.00    -0.213 N 
ATOM     11  C   UNL d   1      53.564  31.530  53.540  0.00  0.00     0.157 A 
ATOM     12  N   UNL d   1      53.472  30.723  53.327  0.00  0.00    -0.224 NA
ATOM     13  C   UNL d   1      54.233  31.770  53.963  0.00  0.00     0.041 C 
ATOM     14  C   UNL d   1      52.761  30.676  52.919  0.00  0.00     0.120 A 
ATOM     15  C   UNL d   1      52.425  31.450  52.885  0.00  0.00     0.114 A 
ENDBRANCH   7  10
ENDBRANCH   1   7
BRANCH   3  16
ATOM     16  O   UNL d   1      51.778  33.538  52.384  0.00  0.00    -0.327 OA
ATOM     17  C   UNL d   1      51.229  33.934  51.917  0.00  0.00     0.181 C 
ENDBRANCH   3  16
BRANCH   5  18
ATOM     18  O   UNL d   1      53.383  35.177  54.762  0.00  0.00    -0.328 OA
ATOM     19  C   UNL d   1      53.284  35.991  54.835  0.00  0.00     0.181 C 
ENDBRANCH   5  18
TORSDOF 4
ENDMDL
MODEL 6
REMARK VINA RESULT:      -7.5      1.423      3.369
REMARK  4 active torsions:
REMARK  status: ('A' for Active; 'I' for Inactive)
REMARK    1  A    between atoms: N_2  and  S_1 
REMARK    2  A    between atoms: C_3  and  S_1 
REMARK    3  A    between atoms: O_15  and  C_11 
REMARK    4  A    between atoms: O_17  and  C_13 
ROOT
ATOM      1  C   UNL d   1      52.619  33.143  53.278  0.00  0.00     0.128 A 
ATOM      2  C   UNL d   1      51.983  33.316  52.775  0.00  0.00     0.039 A 
ATOM      3  C   UNL d   1      52.946  33.732  53.743  0.00  0.00     0.106 A 
ATOM      4  C   UNL d   1      52.638  34.500  53.708  0.00  0.00     0.027 A 
ATOM      5  C   UNL d   1      51.680  34.077  52.742  0.00  0.00     0.095 A 
ATOM      6  C   UNL d   1      52.008  34.672  53.210  0.00  0.00     0.026 A 
ENDROOT
BRANCH   1   7
ATOM      7  S   UNL d   1      52.928  32.376  53.315  0.00  0.00     0.274 S 
ATOM      8  O   UNL d   1      52.545  32.248  54.032  0.00  0.00    -0.199 OA
ATOM      9  O   UNL d   1      53.313  32.504  52.596  0.00  0.00    -0.199 OA
BRANCH   7  10
ATOM     10  N   UNL d   1      53.238  31.622  53.343  0.00  0.00    -0.213 N 
ATOM     11  C   UNL d   1      52.814  30.953  53.255  0.00  0.00     0.157 A 
ATOM     12  N   UNL d   1      53.334  30.296  53.320  0.00  0.00    -0.224 NA
ATOM     13  C   UNL d   1      52.007  30.827  53.120  0.00  0.00     0.041 C 
ATOM     14  C   UNL d   1      54.081  30.611  53.451  0.00  0.00     0.120 A 
ATOM     15  C   UNL d   1      54.014  31.452  53.465  0.00  0.00     0.114 A 
ENDBRANCH   7  10
ENDBRANCH   1   7
BRANCH   3  16
ATOM     16  O   UNL d   1      53.581  33.559  54.246  0.00  0.00    -0.327 OA
ATOM     17  C   UNL d   1      53.883  34.147  54.736  0.00  0.00     0.181 C 
ENDBRANCH   3  16
BRANCH   5  18
ATOM     18  O   UNL d   1      51.047  34.250  52.241  0.00  0.00    -0.328 OA
ATOM     19  C   UNL d   1      50.302  34.393  52.559  0.00  0.00     0.181 C 
ENDBRANCH   5  18
TORSDOF 4
ENDMDL
