MODEL 1
REMARK VINA RESULT:      42.6      0.000      0.000
REMARK  6 active torsions:
REMARK  status: ('A' for Active; 'I' for Inactive)
REMARK    1  A    between atoms: C_21  and  C_3 
REMARK    2  A    between atoms: S_17  and  C_5 
REMARK    3  A    between atoms: C_11  and  C_16 
REMARK       I    between atoms: N_14  and  C_11 
REMARK    4  A    between atoms: C_19  and  N_14 
REMARK    5  A    between atoms: C_16  and  C_20 
REMARK    6  A    between atoms: C_20  and  S_17 
ROOT
ATOM      1  C   UNL d   1      46.450 -19.077  41.717  0.00  0.00     0.092 A 
ATOM      2  C   UNL d   1      46.314 -18.621  43.066  0.00  0.00     0.057 A 
ATOM      3  C   UNL d   1      46.411 -19.236  42.530  0.00  0.00     0.016 A 
ATOM      4  N   UNL d   1      46.293 -17.684  41.993  0.00  0.00    -0.239 NA
ATOM      5  C   UNL d   1      46.391 -18.301  41.449  0.00  0.00     0.120 A 
ATOM      6  C   UNL d   1      46.255 -17.845  42.797  0.00  0.00     0.081 A 
ATOM      7  C   UNL d   1      46.277 -18.782  43.870  0.00  0.00     0.193 A 
ATOM      8  C   UNL d   1      46.548 -19.706  41.182  0.00  0.00     0.103 C 
ATOM      9  N   UNL d   1      46.647 -20.330  40.640  0.00  0.00    -0.191 NA
ATOM     10  C   UNL d   1      46.120 -17.390  44.142  0.00  0.00     0.042 A 
ATOM     11  C   UNL d   1      46.179 -18.166  44.410  0.00  0.00     0.019 A 
ATOM     12  C   UNL d   1      46.158 -17.231  43.334  0.00  0.00    -0.003 A 
ATOM     13  O   UNL d   1      46.336 -19.558  44.139  0.00  0.00    -0.287 OA
ATOM     14  C   UNL d   1      46.038 -16.571  44.156  0.00  0.00     0.009 C 
ATOM     15  C   UNL d   1      46.082 -17.549  44.954  0.00  0.00     0.009 C 
ENDROOT
BRANCH   3  16
ATOM     16  C   UNL d   1      46.471 -20.012  42.798  0.00  0.00     0.001 C 
ATOM     17  C   UNL d   1      46.216 -20.206  43.555  0.00  0.00     0.000 C 
ENDBRANCH   3  16
BRANCH   5  18
ATOM     18  S   UNL d   1      46.429 -18.142  40.640  0.00  0.00    -0.067 SA
BRANCH  18  19
ATOM     19  C   UNL d   1      45.818 -17.721  40.279  0.00  0.00     0.042 C 
BRANCH  19  20
ATOM     20  C   UNL d   1      45.572 -17.926  39.517  0.00  0.00     0.070 C 
BRANCH  20  21
ATOM     21  C   UNL d   1      45.140 -17.384  39.060  0.00  0.00     0.280 C 
ATOM     22  N   UNL d   1      45.468 -17.073  38.369  0.00  0.00    -0.208 NA
ATOM     23  O   UNL d   1      44.382 -17.154  39.296  0.00  0.00    -0.265 OA
BRANCH  22  24
ATOM     24  C   UNL d   1      45.036 -16.531  37.913  0.00  0.00     0.085 A 
ATOM     25  C   UNL d   1      45.411 -15.866  37.594  0.00  0.00     0.019 A 
ATOM     26  C   UNL d   1      44.979 -15.333  37.143  0.00  0.00     0.002 A 
ATOM     27  C   UNL d   1      44.172 -15.451  37.002  0.00  0.00     0.000 A 
ATOM     28  C   UNL d   1      43.799 -16.113  37.320  0.00  0.00     0.002 A 
ATOM     29  C   UNL d   1      43.735 -14.904  36.542  0.00  0.00     0.000 C 
ATOM     30  C   UNL d   1      44.231 -16.655  37.776  0.00  0.00     0.019 A 
ENDBRANCH  22  24
ENDBRANCH  20  21
ENDBRANCH  19  20
ENDBRANCH  18  19
ENDBRANCH   5  18
TORSDOF 6
ENDMDL
