MODEL 1
REMARK VINA RESULT:      40.1      0.000      0.000
REMARK  4 active torsions:
REMARK  status: ('A' for Active; 'I' for Inactive)
REMARK    1  A    between atoms: N_7  and  S_1 
REMARK    2  A    between atoms: C_8  and  S_1 
REMARK    3  A    between atoms: C_17  and  N_2 
REMARK    4  A    between atoms: C_14  and  N_7 
ROOT
ATOM      1  N   UNL d   1      13.002  12.615  -4.891  0.00  0.00    -0.273 N 
ATOM      2  C   UNL d   1      13.177  13.691  -4.963  0.00  0.00     0.265 A 
ATOM      3  C   UNL d   1      13.147  12.457  -4.124  0.00  0.00     0.067 A 
ATOM      4  C   UNL d   1      13.360  13.180  -3.751  0.00  0.00     0.021 A 
ATOM      5  C   UNL d   1      13.384  13.878  -4.191  0.00  0.00     0.058 A 
ATOM      6  C   UNL d   1      13.520  12.484  -2.495  0.00  0.00     0.105 A 
ATOM      7  C   UNL d   1      13.543  13.186  -2.942  0.00  0.00     0.014 A 
ATOM      8  C   UNL d   1      13.132  11.786  -3.666  0.00  0.00     0.018 A 
ATOM      9  C   UNL d   1      13.318  11.781  -2.836  0.00  0.00     0.014 A 
ATOM     10  O   UNL d   1      13.142  14.249  -5.555  0.00  0.00    -0.267 OA
ATOM     11  C   UNL d   1      13.588  14.572  -3.832  0.00  0.00     0.005 A 
ATOM     12  C   UNL d   1      13.747  13.880  -2.584  0.00  0.00     0.001 A 
ATOM     13  C   UNL d   1      13.772  14.580  -3.027  0.00  0.00     0.000 A 
ENDROOT
BRANCH   6  14
ATOM     14  S   UNL d   1      13.694  12.463  -1.706  0.00  0.00     0.287 S 
ATOM     15  O   UNL d   1      14.442  12.709  -1.842  0.00  0.00    -0.198 OA
ATOM     16  O   UNL d   1      12.920  12.207  -1.551  0.00  0.00    -0.198 OA
BRANCH  14  17
ATOM     17  N   UNL d   1      13.841  12.431  -0.884  0.00  0.00    -0.139 NA
BRANCH  17  18
ATOM     18  C   UNL d   1      14.611  12.477  -0.600  0.00  0.00     0.175 A 
ATOM     19  N   UNL d   1      14.917  13.200  -0.312  0.00  0.00    -0.225 NA
ATOM     20  C   UNL d   1      15.701  13.229  -0.027  0.00  0.00     0.101 A 
ATOM     21  C   UNL d   1      16.164  12.547  -0.033  0.00  0.00     0.021 A 
ATOM     22  C   UNL d   1      15.874  11.836  -0.312  0.00  0.00     0.005 A 
ATOM     23  C   UNL d   1      15.089  11.803  -0.599  0.00  0.00     0.040 A 
ENDBRANCH  17  18
ENDBRANCH  14  17
ENDBRANCH   6  14
BRANCH   1  24
ATOM     24  C   UNL d   1      12.781  12.006  -5.395  0.00  0.00     0.083 C 
ATOM     25  C   UNL d   1      13.245  11.849  -6.075  0.00  0.00     0.021 C 
ENDBRANCH   1  24
TORSDOF 4
ENDMDL
