MODEL 1
REMARK VINA RESULT:      55.4      0.000      0.000
REMARK  6 active torsions:
REMARK  status: ('A' for Active; 'I' for Inactive)
REMARK    1  A    between atoms: N_2  and  S_1 
REMARK    2  A    between atoms: C_3  and  S_1 
REMARK    3  A    between atoms: C_4  and  C_9 
REMARK    4  A    between atoms: O_12  and  C_4 
REMARK    5  A    between atoms: C_19  and  O_12 
REMARK    6  A    between atoms: C_18  and  C_19 
ROOT
ATOM      1  C   UNL d   1     -56.040-102.606 -39.294  0.00  0.00     0.104 A 
ATOM      2  C   UNL d   1     -55.452-102.316 -39.808  0.00  0.00     0.018 A 
ATOM      3  C   UNL d   1     -55.602-102.297 -40.621  0.00  0.00     0.064 A 
ATOM      4  C   UNL d   1     -56.764-102.872 -39.585  0.00  0.00     0.013 A 
ATOM      5  C   UNL d   1     -56.330-102.564 -40.917  0.00  0.00     0.005 A 
ATOM      6  C   UNL d   1     -56.914-102.853 -40.398  0.00  0.00     0.001 A 
ENDROOT
BRANCH   3   7
ATOM      7  C   UNL d   1     -55.028-102.012 -41.148  0.00  0.00     0.300 C 
ATOM      8  O   UNL d   1     -54.718-101.252 -41.058  0.00  0.00    -0.259 OA
BRANCH   7   9
ATOM      9  O   UNL d   1     -54.769-102.497 -41.765  0.00  0.00    -0.271 OA
BRANCH   9  10
ATOM     10  C   UNL d   1     -55.193-102.526 -42.469  0.00  0.00     0.126 C 
BRANCH  10  11
ATOM     11  C   UNL d   1     -55.091-101.940 -43.029  0.00  0.00     0.027 A 
ATOM     12  C   UNL d   1     -55.005-101.167 -42.790  0.00  0.00     0.028 A 
ATOM     13  C   UNL d   1     -54.901-100.578 -43.355  0.00  0.00     0.119 A 
ATOM     14  O   UNL d   1     -54.801 -99.757 -43.285  0.00  0.00    -0.300 OA
ATOM     15  C   UNL d   1     -54.884-100.764 -44.153  0.00  0.00     0.119 A 
ATOM     16  C   UNL d   1     -54.723 -99.450 -44.048  0.00  0.00     0.304 A 
ATOM     17  O   UNL d   1     -54.775-100.070 -44.582  0.00  0.00    -0.300 OA
ATOM     18  C   UNL d   1     -54.972-101.548 -44.392  0.00  0.00     0.026 A 
ATOM     19  C   UNL d   1     -55.075-102.137 -43.828  0.00  0.00     0.004 A 
ENDBRANCH  10  11
ENDBRANCH   9  10
ENDBRANCH   7   9
ENDBRANCH   3   7
BRANCH   1  20
ATOM     20  S   UNL d   1     -55.891-102.625 -38.481  0.00  0.00     0.271 S 
ATOM     21  O   UNL d   1     -56.669-102.399 -38.296  0.00  0.00    -0.200 OA
ATOM     22  O   UNL d   1     -55.110-102.851 -38.662  0.00  0.00    -0.200 OA
BRANCH  20  23
ATOM     23  N   UNL d   1     -55.754-102.640 -37.661  0.00  0.00    -0.229 N 
ATOM     24  C   UNL d   1     -56.398-102.715 -37.137  0.00  0.00     0.092 A 
ATOM     25  C   UNL d   1     -56.251-102.729 -36.326  0.00  0.00     0.020 A 
ATOM     26  C   UNL d   1     -55.481-102.671 -36.022  0.00  0.00     0.003 A 
ATOM     27  C   UNL d   1     -54.852-102.598 -36.548  0.00  0.00     0.020 A 
ATOM     28  C   UNL d   1     -54.988-102.583 -37.368  0.00  0.00     0.092 A 
ENDBRANCH  20  23
ENDBRANCH   1  20
TORSDOF 6
ENDMDL
