MODEL 1
REMARK VINA RESULT:      12.3      0.000      0.000
REMARK  5 active torsions:
REMARK  status: ('A' for Active; 'I' for Inactive)
REMARK    1  A    between atoms: C_2  and  C_1 
REMARK    2  A    between atoms: S_3  and  C_4 
REMARK    3  A    between atoms: C_7  and  S_3 
REMARK    4  A    between atoms: C_5  and  C_7 
REMARK    5  A    between atoms: C_6  and  C_5 
ROOT
ATOM      1  S   UNL d   1      46.157 -17.882  44.038  0.00  0.00    -0.083 SA
ENDROOT
BRANCH   1   2
ATOM      2  C   UNL d   1      46.322 -18.282  43.313  0.00  0.00     0.035 A 
ATOM      3  C   UNL d   1      46.356 -19.105  43.266  0.00  0.00     0.070 A 
ATOM      4  C   UNL d   1      46.516 -19.470  42.560  0.00  0.00     0.007 A 
ATOM      5  C   UNL d   1      46.646 -19.033  41.878  0.00  0.00     0.000 A 
ATOM      6  C   UNL d   1      46.614 -18.193  41.914  0.00  0.00     0.001 A 
ATOM      7  C   UNL d   1      46.448 -17.842  42.650  0.00  0.00     0.007 A 
BRANCH   3   8
ATOM      8  C   UNL d   1      46.228 -19.555  43.938  0.00  0.00     0.211 C 
ATOM      9  O   UNL d   1      46.646 -19.360  44.640  0.00  0.00    -0.644 OA
ATOM     10  O   UNL d   1      45.697 -20.190  43.928  0.00  0.00    -0.644 OA
ENDBRANCH   3   8
ENDBRANCH   1   2
BRANCH   1  11
ATOM     11  C   UNL d   1      46.165 -17.077  44.040  0.00  0.00     0.077 C 
BRANCH  11  12
ATOM     12  C   UNL d   1      45.618 -16.654  44.506  0.00  0.00     0.202 C 
ATOM     13  O   UNL d   1      45.069 -17.066  44.955  0.00  0.00    -0.286 OA
BRANCH  12  14
ATOM     14  C   UNL d   1      45.661 -15.834  44.490  0.00  0.00     0.040 A 
ATOM     15  C   UNL d   1      44.961 -15.407  44.663  0.00  0.00     0.003 A 
ATOM     16  C   UNL d   1      44.987 -14.583  44.651  0.00  0.00     0.000 A 
ATOM     17  C   UNL d   1      45.666 -14.211  44.478  0.00  0.00     0.000 A 
ATOM     18  C   UNL d   1      46.364 -14.639  44.305  0.00  0.00     0.000 A 
ATOM     19  C   UNL d   1      45.695 -13.364  44.464  0.00  0.00     0.000 C 
ATOM     20  C   UNL d   1      46.328 -15.474  44.320  0.00  0.00     0.003 A 
ENDBRANCH  12  14
ENDBRANCH  11  12
ENDBRANCH   1  11
TORSDOF 5
ENDMDL
MODEL 2
REMARK VINA RESULT:      14.7      1.929      4.874
REMARK  5 active torsions:
REMARK  status: ('A' for Active; 'I' for Inactive)
REMARK    1  A    between atoms: C_2  and  C_1 
REMARK    2  A    between atoms: S_3  and  C_4 
REMARK    3  A    between atoms: C_7  and  S_3 
REMARK    4  A    between atoms: C_5  and  C_7 
REMARK    5  A    between atoms: C_6  and  C_5 
ROOT
ATOM      1  S   UNL d   1      45.294 -14.347  44.024  0.00  0.00    -0.083 SA
ENDROOT
BRANCH   1   2
ATOM      2  C   UNL d   1      45.641 -13.600  44.205  0.00  0.00     0.035 A 
ATOM      3  C   UNL d   1      45.385 -12.901  43.847  0.00  0.00     0.070 A 
ATOM      4  C   UNL d   1      45.731 -12.193  44.035  0.00  0.00     0.007 A 
ATOM      5  C   UNL d   1      46.341 -12.152  44.583  0.00  0.00     0.000 A 
ATOM      6  C   UNL d   1      46.610 -12.858  44.954  0.00  0.00     0.001 A 
ATOM      7  C   UNL d   1      46.239 -13.572  44.744  0.00  0.00     0.007 A 
BRANCH   3   8
ATOM      8  C   UNL d   1      44.777 -12.925  43.299  0.00  0.00     0.211 C 
ATOM      9  O   UNL d   1      44.004 -13.120  43.563  0.00  0.00    -0.644 OA
ATOM     10  O   UNL d   1      44.920 -12.762  42.500  0.00  0.00    -0.644 OA
ENDBRANCH   3   8
ENDBRANCH   1   2
BRANCH   1  11
ATOM     11  C   UNL d   1      45.692 -15.014  44.235  0.00  0.00     0.077 C 
BRANCH  11  12
ATOM     12  C   UNL d   1      45.278 -15.675  44.530  0.00  0.00     0.202 C 
ATOM     13  O   UNL d   1      44.586 -15.558  44.954  0.00  0.00    -0.286 OA
BRANCH  12  14
ATOM     14  C   UNL d   1      45.591 -16.418  44.377  0.00  0.00     0.040 A 
ATOM     15  C   UNL d   1      45.602 -16.676  43.579  0.00  0.00     0.003 A 
ATOM     16  C   UNL d   1      45.913 -17.420  43.408  0.00  0.00     0.000 A 
ATOM     17  C   UNL d   1      46.194 -17.876  43.994  0.00  0.00     0.000 A 
ATOM     18  C   UNL d   1      46.182 -17.616  44.789  0.00  0.00     0.000 A 
ATOM     19  C   UNL d   1      46.515 -18.641  43.821  0.00  0.00     0.000 C 
ATOM     20  C   UNL d   1      45.865 -16.860  44.953  0.00  0.00     0.003 A 
ENDBRANCH  12  14
ENDBRANCH  11  12
ENDBRANCH   1  11
TORSDOF 5
ENDMDL
