MODEL 1
REMARK VINA RESULT:      24.0      0.000      0.000
REMARK  0 active torsions:
REMARK  status: ('A' for Active; 'I' for Inactive)
ROOT
ATOM      1  C   UNL d   1      46.346 -18.871  43.334  0.00  0.00     0.166 A 
ATOM      2  C   UNL d   1      46.194 -18.155  42.948  0.00  0.00     0.117 A 
ATOM      3  N   UNL d   1      46.315 -18.741  44.154  0.00  0.00    -0.288 N 
ATOM      4  C   UNL d   1      46.067 -17.580  43.530  0.00  0.00     0.037 A 
ATOM      5  N   UNL d   1      46.498 -19.562  42.906  0.00  0.00    -0.225 NA
ATOM      6  C   UNL d   1      46.143 -17.948  44.258  0.00  0.00     0.067 A 
ATOM      7  N   UNL d   1      46.192 -18.132  42.130  0.00  0.00    -0.241 NA
ATOM      8  C   UNL d   1      46.496 -19.539  42.086  0.00  0.00     0.101 A 
ATOM      9  C   UNL d   1      46.342 -18.819  41.698  0.00  0.00     0.099 A 
ATOM     10  C   UNL d   1      46.041 -17.491  44.953  0.00  0.00     0.018 A 
ATOM     11  C   UNL d   1      45.891 -16.764  43.463  0.00  0.00     0.003 A 
ATOM     12  C   UNL d   1      46.363 -18.978  44.949  0.00  0.00     0.101 C 
ATOM     13  C   UNL d   1      45.794 -16.330  44.139  0.00  0.00     0.000 A 
ATOM     14  C   UNL d   1      45.869 -16.688  44.863  0.00  0.00     0.002 A 
ATOM     15  C   UNL d   1      46.346 -18.819  40.904  0.00  0.00     0.021 A 
ATOM     16  C   UNL d   1      46.647 -20.227  41.654  0.00  0.00     0.021 A 
ATOM     17  C   UNL d   1      45.630 -15.568  44.160  0.00  0.00     0.000 C 
ATOM     18  C   UNL d   1      46.492 -19.489  40.454  0.00  0.00     0.002 A 
ATOM     19  C   UNL d   1      46.645 -20.204  40.838  0.00  0.00     0.002 A 
ENDROOT
TORSDOF 0
ENDMDL
MODEL 2
REMARK VINA RESULT:      25.8      7.011      7.834
REMARK  0 active torsions:
REMARK  status: ('A' for Active; 'I' for Inactive)
ROOT
ATOM      1  C   UNL d   1      44.143 -16.049  36.622  0.00  0.00     0.166 A 
ATOM      2  C   UNL d   1      43.748 -15.325  36.679  0.00  0.00     0.117 A 
ATOM      3  N   UNL d   1      43.582 -16.646  36.481  0.00  0.00    -0.288 N 
ATOM      4  C   UNL d   1      42.940 -15.472  36.574  0.00  0.00     0.037 A 
ATOM      5  N   UNL d   1      44.965 -16.095  36.703  0.00  0.00    -0.225 NA
ATOM      6  C   UNL d   1      42.852 -16.278  36.454  0.00  0.00     0.067 A 
ATOM      7  N   UNL d   1      44.178 -14.642  36.819  0.00  0.00    -0.241 NA
ATOM      8  C   UNL d   1      45.396 -15.411  36.842  0.00  0.00     0.101 A 
ATOM      9  C   UNL d   1      44.999 -14.682  36.900  0.00  0.00     0.099 A 
ATOM     10  C   UNL d   1      42.082 -16.585  36.330  0.00  0.00     0.018 A 
ATOM     11  C   UNL d   1      42.284 -14.950  36.576  0.00  0.00     0.003 A 
ATOM     12  C   UNL d   1      43.346 -17.431  36.348  0.00  0.00     0.101 C 
ATOM     13  C   UNL d   1      41.544 -15.255  36.456  0.00  0.00     0.000 A 
ATOM     14  C   UNL d   1      41.451 -16.052  36.336  0.00  0.00     0.002 A 
ATOM     15  C   UNL d   1      45.435 -14.033  37.035  0.00  0.00     0.021 A 
ATOM     16  C   UNL d   1      46.217 -15.452  36.924  0.00  0.00     0.021 A 
ATOM     17  C   UNL d   1      40.887 -14.837  36.444  0.00  0.00     0.000 C 
ATOM     18  C   UNL d   1      46.251 -14.049  37.120  0.00  0.00     0.002 A 
ATOM     19  C   UNL d   1      46.646 -14.771  37.062  0.00  0.00     0.002 A 
ENDROOT
TORSDOF 0
ENDMDL
