MODEL 1
REMARK VINA RESULT:      -7.8      0.000      0.000
REMARK  5 active torsions:
REMARK  status: ('A' for Active; 'I' for Inactive)
REMARK    1  A    between atoms: C_7  and  N_2 
REMARK    2  A    between atoms: C_8  and  C_7 
REMARK    3  A    between atoms: C_13  and  C_8 
REMARK    4  A    between atoms: C_9  and  O_11 
REMARK    5  A    between atoms: O_11  and  C_13 
ROOT
ATOM      1  C   UNL d   1      52.811  34.686  54.052  0.00  0.00     0.296 A 
ATOM      2  N   UNL d   1      52.623  34.078  53.516  0.00  0.00    -0.268 N 
ATOM      3  S   UNL d   1      53.347  34.379  54.601  0.00  0.00    -0.025 SA
ATOM      4  C   UNL d   1      53.044  33.401  53.739  0.00  0.00     0.073 A 
ATOM      5  C   UNL d   1      53.491  33.591  54.411  0.00  0.00     0.050 A 
ATOM      6  O   UNL d   1      52.516  35.455  54.036  0.00  0.00    -0.259 OA
ATOM      7  C   UNL d   1      53.075  32.646  53.419  0.00  0.00     0.018 A 
ATOM      8  C   UNL d   1      53.973  33.006  54.758  0.00  0.00     0.008 A 
ATOM      9  C   UNL d   1      53.554  32.071  53.766  0.00  0.00     0.002 A 
ATOM     10  C   UNL d   1      53.999  32.250  54.431  0.00  0.00     0.001 A 
ENDROOT
BRANCH   2  11
ATOM     11  C   UNL d   1      52.108  34.138  52.877  0.00  0.00     0.086 C 
BRANCH  11  12
ATOM     12  C   UNL d   1      51.303  34.272  53.010  0.00  0.00     0.046 C 
BRANCH  12  13
ATOM     13  C   UNL d   1      50.754  34.111  52.416  0.00  0.00     0.124 C 
BRANCH  13  14
ATOM     14  O   UNL d   1      50.034  34.500  52.406  0.00  0.00    -0.305 OA
BRANCH  14  15
ATOM     15  C   UNL d   1      49.306  34.894  52.396  0.00  0.00     0.100 A 
ATOM     16  C   UNL d   1      48.830  34.834  51.731  0.00  0.00     0.025 A 
ATOM     17  C   UNL d   1      48.102  35.228  51.721  0.00  0.00     0.002 A 
ATOM     18  C   UNL d   1      47.859  35.674  52.369  0.00  0.00     0.000 A 
ATOM     19  C   UNL d   1      48.349  35.728  53.036  0.00  0.00     0.002 A 
ATOM     20  C   UNL d   1      49.069  35.339  53.048  0.00  0.00     0.025 A 
ENDBRANCH  14  15
ENDBRANCH  13  14
ENDBRANCH  12  13
ENDBRANCH  11  12
ENDBRANCH   2  11
TORSDOF 5
ENDMDL
MODEL 2
REMARK VINA RESULT:      -7.7      1.955      4.704
REMARK  5 active torsions:
REMARK  status: ('A' for Active; 'I' for Inactive)
REMARK    1  A    between atoms: C_7  and  N_2 
REMARK    2  A    between atoms: C_8  and  C_7 
REMARK    3  A    between atoms: C_13  and  C_8 
REMARK    4  A    between atoms: C_9  and  O_11 
REMARK    5  A    between atoms: O_11  and  C_13 
ROOT
ATOM      1  C   UNL d   1      53.349  34.470  54.303  0.00  0.00     0.296 A 
ATOM      2  N   UNL d   1      53.256  33.911  53.694  0.00  0.00    -0.268 N 
ATOM      3  S   UNL d   1      52.684  34.958  54.298  0.00  0.00    -0.025 SA
ATOM      4  C   UNL d   1      52.533  34.059  53.320  0.00  0.00     0.073 A 
ATOM      5  C   UNL d   1      52.181  34.708  53.695  0.00  0.00     0.050 A 
ATOM      6  O   UNL d   1      53.991  34.526  54.817  0.00  0.00    -0.259 OA
ATOM      7  C   UNL d   1      52.157  33.689  52.691  0.00  0.00     0.018 A 
ATOM      8  C   UNL d   1      51.440  34.981  53.429  0.00  0.00     0.008 A 
ATOM      9  C   UNL d   1      51.424  33.963  52.430  0.00  0.00     0.002 A 
ATOM     10  C   UNL d   1      51.068  34.604  52.797  0.00  0.00     0.001 A 
ENDROOT
BRANCH   2  11
ATOM     11  C   UNL d   1      53.788  33.314  53.499  0.00  0.00     0.086 C 
BRANCH  11  12
ATOM     12  C   UNL d   1      53.788  32.608  53.929  0.00  0.00     0.046 C 
BRANCH  12  13
ATOM     13  C   UNL d   1      54.193  31.949  53.641  0.00  0.00     0.124 C 
BRANCH  13  14
ATOM     14  O   UNL d   1      53.844  31.209  53.670  0.00  0.00    -0.305 OA
BRANCH  14  15
ATOM     15  C   UNL d   1      53.492  30.460  53.701  0.00  0.00     0.100 A 
ATOM     16  C   UNL d   1      53.665  29.964  54.331  0.00  0.00     0.025 A 
ATOM     17  C   UNL d   1      53.313  29.216  54.360  0.00  0.00     0.002 A 
ATOM     18  C   UNL d   1      52.797  28.972  53.766  0.00  0.00     0.000 A 
ATOM     19  C   UNL d   1      52.630  29.482  53.134  0.00  0.00     0.002 A 
ATOM     20  C   UNL d   1      52.977  30.223  53.102  0.00  0.00     0.025 A 
ENDBRANCH  14  15
ENDBRANCH  13  14
ENDBRANCH  12  13
ENDBRANCH  11  12
ENDBRANCH   2  11
TORSDOF 5
ENDMDL
MODEL 3
REMARK VINA RESULT:      -7.2      2.537      4.916
REMARK  5 active torsions:
REMARK  status: ('A' for Active; 'I' for Inactive)
REMARK    1  A    between atoms: C_7  and  N_2 
REMARK    2  A    between atoms: C_8  and  C_7 
REMARK    3  A    between atoms: C_13  and  C_8 
REMARK    4  A    between atoms: C_9  and  O_11 
REMARK    5  A    between atoms: O_11  and  C_13 
ROOT
ATOM      1  C   UNL d   1      52.284  33.591  53.037  0.00  0.00     0.296 A 
ATOM      2  N   UNL d   1      52.919  33.109  53.272  0.00  0.00    -0.268 N 
ATOM      3  S   UNL d   1      52.308  34.278  53.493  0.00  0.00    -0.025 SA
ATOM      4  C   UNL d   1      53.330  33.503  53.873  0.00  0.00     0.073 A 
ATOM      5  C   UNL d   1      52.949  34.227  54.008  0.00  0.00     0.050 A 
ATOM      6  O   UNL d   1      51.731  33.413  52.452  0.00  0.00    -0.259 OA
ATOM      7  C   UNL d   1      53.995  33.297  54.308  0.00  0.00     0.018 A 
ATOM      8  C   UNL d   1      53.248  34.743  54.590  0.00  0.00     0.008 A 
ATOM      9  C   UNL d   1      54.287  33.811  54.883  0.00  0.00     0.002 A 
ATOM     10  C   UNL d   1      53.916  34.529  55.023  0.00  0.00     0.001 A 
ENDROOT
BRANCH   2  11
ATOM     11  C   UNL d   1      53.108  32.370  52.963  0.00  0.00     0.086 C 
BRANCH  11  12
ATOM     12  C   UNL d   1      52.708  31.698  53.235  0.00  0.00     0.046 C 
BRANCH  12  13
ATOM     13  C   UNL d   1      52.924  30.951  52.963  0.00  0.00     0.124 C 
BRANCH  13  14
ATOM     14  O   UNL d   1      53.053  30.342  53.494  0.00  0.00    -0.305 OA
BRANCH  14  15
ATOM     15  C   UNL d   1      53.184  29.725  54.031  0.00  0.00     0.100 A 
ATOM     16  C   UNL d   1      53.537  29.034  53.766  0.00  0.00     0.025 A 
ATOM     17  C   UNL d   1      53.668  28.418  54.303  0.00  0.00     0.002 A 
ATOM     18  C   UNL d   1      53.447  28.498  55.092  0.00  0.00     0.000 A 
ATOM     19  C   UNL d   1      53.091  29.201  55.349  0.00  0.00     0.002 A 
ATOM     20  C   UNL d   1      52.961  29.812  54.819  0.00  0.00     0.025 A 
ENDBRANCH  14  15
ENDBRANCH  13  14
ENDBRANCH  12  13
ENDBRANCH  11  12
ENDBRANCH   2  11
TORSDOF 5
ENDMDL
MODEL 4
REMARK VINA RESULT:      -6.6      3.137      4.311
REMARK  5 active torsions:
REMARK  status: ('A' for Active; 'I' for Inactive)
REMARK    1  A    between atoms: C_7  and  N_2 
REMARK    2  A    between atoms: C_8  and  C_7 
REMARK    3  A    between atoms: C_13  and  C_8 
REMARK    4  A    between atoms: C_9  and  O_11 
REMARK    5  A    between atoms: O_11  and  C_13 
ROOT
ATOM      1  C   UNL d   1      52.934  30.652  52.807  0.00  0.00     0.296 A 
ATOM      2  N   UNL d   1      53.466  30.734  53.441  0.00  0.00    -0.268 N 
ATOM      3  S   UNL d   1      52.558  29.921  52.889  0.00  0.00    -0.025 SA
ATOM      4  C   UNL d   1      53.414  30.053  53.908  0.00  0.00     0.073 A 
ATOM      5  C   UNL d   1      52.851  29.551  53.565  0.00  0.00     0.050 A 
ATOM      6  O   UNL d   1      52.805  31.201  52.207  0.00  0.00    -0.259 OA
ATOM      7  C   UNL d   1      53.804  29.830  54.595  0.00  0.00     0.018 A 
ATOM      8  C   UNL d   1      52.685  28.818  53.923  0.00  0.00     0.008 A 
ATOM      9  C   UNL d   1      53.636  29.103  54.947  0.00  0.00     0.002 A 
ATOM     10  C   UNL d   1      53.081  28.601  54.613  0.00  0.00     0.001 A 
ENDROOT
BRANCH   2  11
ATOM     11  C   UNL d   1      53.959  31.378  53.579  0.00  0.00     0.086 C 
BRANCH  11  12
ATOM     12  C   UNL d   1      53.628  32.117  53.754  0.00  0.00     0.046 C 
BRANCH  12  13
ATOM     13  C   UNL d   1      54.117  32.750  53.954  0.00  0.00     0.124 C 
BRANCH  13  14
ATOM     14  O   UNL d   1      53.792  33.486  54.106  0.00  0.00    -0.305 OA
BRANCH  14  15
ATOM     15  C   UNL d   1      53.464  34.231  54.258  0.00  0.00     0.100 A 
ATOM     16  C   UNL d   1      53.512  34.540  55.017  0.00  0.00     0.025 A 
ATOM     17  C   UNL d   1      53.183  35.284  55.168  0.00  0.00     0.002 A 
ATOM     18  C   UNL d   1      52.813  35.708  54.568  0.00  0.00     0.000 A 
ATOM     19  C   UNL d   1      52.770  35.386  53.805  0.00  0.00     0.002 A 
ATOM     20  C   UNL d   1      53.095  34.649  53.652  0.00  0.00     0.025 A 
ENDBRANCH  14  15
ENDBRANCH  13  14
ENDBRANCH  12  13
ENDBRANCH  11  12
ENDBRANCH   2  11
TORSDOF 5
ENDMDL
MODEL 5
REMARK VINA RESULT:      -6.3      2.343      5.645
REMARK  5 active torsions:
REMARK  status: ('A' for Active; 'I' for Inactive)
REMARK    1  A    between atoms: C_7  and  N_2 
REMARK    2  A    between atoms: C_8  and  C_7 
REMARK    3  A    between atoms: C_13  and  C_8 
REMARK    4  A    between atoms: C_9  and  O_11 
REMARK    5  A    between atoms: O_11  and  C_13 
ROOT
ATOM      1  C   UNL d   1      47.821  36.433  53.268  0.00  0.00     0.296 A 
ATOM      2  N   UNL d   1      47.794  36.016  52.549  0.00  0.00    -0.268 N 
ATOM      3  S   UNL d   1      47.048  36.650  53.461  0.00  0.00    -0.025 SA
ATOM      4  C   UNL d   1      47.004  35.978  52.305  0.00  0.00     0.073 A 
ATOM      5  C   UNL d   1      46.544  36.372  52.871  0.00  0.00     0.050 A 
ATOM      6  O   UNL d   1      48.498  36.600  53.707  0.00  0.00    -0.259 OA
ATOM      7  C   UNL d   1      46.651  35.639  51.646  0.00  0.00     0.018 A 
ATOM      8  C   UNL d   1      45.719  36.420  52.765  0.00  0.00     0.008 A 
ATOM      9  C   UNL d   1      45.834  35.690  51.545  0.00  0.00     0.002 A 
ATOM     10  C   UNL d   1      45.371  36.077  52.101  0.00  0.00     0.001 A 
ENDROOT
BRANCH   2  11
ATOM     11  C   UNL d   1      48.439  35.695  52.150  0.00  0.00     0.086 C 
BRANCH  11  12
ATOM     12  C   UNL d   1      48.911  35.128  52.524  0.00  0.00     0.046 C 
BRANCH  12  13
ATOM     13  C   UNL d   1      49.426  34.662  52.079  0.00  0.00     0.124 C 
BRANCH  13  14
ATOM     14  O   UNL d   1      50.116  34.378  52.414  0.00  0.00    -0.305 OA
BRANCH  14  15
ATOM     15  C   UNL d   1      50.815  34.092  52.753  0.00  0.00     0.100 A 
ATOM     16  C   UNL d   1      51.515  34.503  52.632  0.00  0.00     0.025 A 
ATOM     17  C   UNL d   1      52.213  34.215  52.971  0.00  0.00     0.002 A 
ATOM     18  C   UNL d   1      52.206  33.527  53.422  0.00  0.00     0.000 A 
ATOM     19  C   UNL d   1      51.493  33.120  53.538  0.00  0.00     0.002 A 
ATOM     20  C   UNL d   1      50.801  33.402  53.204  0.00  0.00     0.025 A 
ENDBRANCH  14  15
ENDBRANCH  13  14
ENDBRANCH  12  13
ENDBRANCH  11  12
ENDBRANCH   2  11
TORSDOF 5
ENDMDL
MODEL 6
REMARK VINA RESULT:      -5.0      9.924     10.815
REMARK  5 active torsions:
REMARK  status: ('A' for Active; 'I' for Inactive)
REMARK    1  A    between atoms: C_7  and  N_2 
REMARK    2  A    between atoms: C_8  and  C_7 
REMARK    3  A    between atoms: C_13  and  C_8 
REMARK    4  A    between atoms: C_9  and  O_11 
REMARK    5  A    between atoms: O_11  and  C_13 
ROOT
ATOM      1  C   UNL d   1      44.941  28.597  58.571  0.00  0.00     0.296 A 
ATOM      2  N   UNL d   1      44.620  29.356  58.463  0.00  0.00    -0.268 N 
ATOM      3  S   UNL d   1      45.177  28.317  57.832  0.00  0.00    -0.025 SA
ATOM      4  C   UNL d   1      44.661  29.539  57.657  0.00  0.00     0.073 A 
ATOM      5  C   UNL d   1      45.007  28.893  57.268  0.00  0.00     0.050 A 
ATOM      6  O   UNL d   1      45.010  28.197  59.288  0.00  0.00    -0.259 OA
ATOM      7  C   UNL d   1      44.431  30.203  57.233  0.00  0.00     0.018 A 
ATOM      8  C   UNL d   1      45.118  28.925  56.443  0.00  0.00     0.008 A 
ATOM      9  C   UNL d   1      44.543  30.230  56.417  0.00  0.00     0.002 A 
ATOM     10  C   UNL d   1      44.884  29.596  56.024  0.00  0.00     0.001 A 
ENDROOT
BRANCH   2  11
ATOM     11  C   UNL d   1      44.315  29.842  59.053  0.00  0.00     0.086 C 
BRANCH  11  12
ATOM     12  C   UNL d   1      44.817  30.140  59.639  0.00  0.00     0.046 C 
BRANCH  12  13
ATOM     13  C   UNL d   1      44.634  30.850  60.017  0.00  0.00     0.124 C 
BRANCH  13  14
ATOM     14  O   UNL d   1      44.563  30.873  60.833  0.00  0.00    -0.305 OA
BRANCH  14  15
ATOM     15  C   UNL d   1      44.491  30.898  61.657  0.00  0.00     0.100 A 
ATOM     16  C   UNL d   1      44.526  31.623  62.038  0.00  0.00     0.025 A 
ATOM     17  C   UNL d   1      44.454  31.647  62.862  0.00  0.00     0.002 A 
ATOM     18  C   UNL d   1      44.348  30.954  63.293  0.00  0.00     0.000 A 
ATOM     19  C   UNL d   1      44.314  30.226  62.897  0.00  0.00     0.002 A 
ATOM     20  C   UNL d   1      44.385  30.200  62.082  0.00  0.00     0.025 A 
ENDBRANCH  14  15
ENDBRANCH  13  14
ENDBRANCH  12  13
ENDBRANCH  11  12
ENDBRANCH   2  11
TORSDOF 5
ENDMDL
MODEL 7
REMARK VINA RESULT:      -4.9     10.726     11.200
REMARK  5 active torsions:
REMARK  status: ('A' for Active; 'I' for Inactive)
REMARK    1  A    between atoms: C_7  and  N_2 
REMARK    2  A    between atoms: C_8  and  C_7 
REMARK    3  A    between atoms: C_13  and  C_8 
REMARK    4  A    between atoms: C_9  and  O_11 
REMARK    5  A    between atoms: O_11  and  C_13 
ROOT
ATOM      1  C   UNL d   1      44.695  30.640  61.444  0.00  0.00     0.296 A 
ATOM      2  N   UNL d   1      44.496  29.932  61.055  0.00  0.00    -0.268 N 
ATOM      3  S   UNL d   1      44.831  30.461  62.238  0.00  0.00    -0.025 SA
ATOM      4  C   UNL d   1      44.509  29.322  61.614  0.00  0.00     0.073 A 
ATOM      5  C   UNL d   1      44.717  29.652  62.346  0.00  0.00     0.050 A 
ATOM      6  O   UNL d   1      44.748  31.386  61.097  0.00  0.00    -0.259 OA
ATOM      7  C   UNL d   1      44.361  28.517  61.549  0.00  0.00     0.018 A 
ATOM      8  C   UNL d   1      44.773  29.158  63.015  0.00  0.00     0.008 A 
ATOM      9  C   UNL d   1      44.418  28.032  62.214  0.00  0.00     0.002 A 
ATOM     10  C   UNL d   1      44.623  28.351  62.941  0.00  0.00     0.001 A 
ENDROOT
BRANCH   2  11
ATOM     11  C   UNL d   1      44.316  29.852  60.256  0.00  0.00     0.086 C 
BRANCH  11  12
ATOM     12  C   UNL d   1      44.922  29.701  59.713  0.00  0.00     0.046 C 
BRANCH  12  13
ATOM     13  C   UNL d   1      44.778  29.771  58.905  0.00  0.00     0.124 C 
BRANCH  13  14
ATOM     14  O   UNL d   1      44.946  29.147  58.402  0.00  0.00    -0.305 OA
BRANCH  14  15
ATOM     15  C   UNL d   1      45.117  28.517  57.894  0.00  0.00     0.100 A 
ATOM     16  C   UNL d   1      44.984  28.606  57.089  0.00  0.00     0.025 A 
ATOM     17  C   UNL d   1      45.155  27.975  56.582  0.00  0.00     0.002 A 
ATOM     18  C   UNL d   1      45.454  27.268  56.879  0.00  0.00     0.000 A 
ATOM     19  C   UNL d   1      45.583  27.189  57.694  0.00  0.00     0.002 A 
ATOM     20  C   UNL d   1      45.415  27.812  58.199  0.00  0.00     0.025 A 
ENDBRANCH  14  15
ENDBRANCH  13  14
ENDBRANCH  12  13
ENDBRANCH  11  12
ENDBRANCH   2  11
TORSDOF 5
ENDMDL
