MODEL 1
REMARK VINA RESULT:      -6.3      0.000      0.000
REMARK  5 active torsions:
REMARK  status: ('A' for Active; 'I' for Inactive)
REMARK    1  A    between atoms: C_5  and  C_1 
REMARK    2  A    between atoms: N_7  and  C_5 
REMARK    3  A    between atoms: C_10  and  C_5 
REMARK    4  A    between atoms: C_16  and  C_19 
REMARK    5  A    between atoms: C_20  and  C_16 
ROOT
ATOM      1  C   UNL d   1     -40.126  15.029  17.794  0.00  0.00     0.085 C 
ENDROOT
BRANCH   1   2
ATOM      2  C   UNL d   1     -39.573  14.495  17.440  0.00  0.00     0.059 A 
ATOM      3  C   UNL d   1     -39.579  13.682  17.642  0.00  0.00     0.214 A 
ATOM      4  C   UNL d   1     -39.030  13.171  17.285  0.00  0.00     0.121 A 
ATOM      5  O   UNL d   1     -40.117  13.388  18.182  0.00  0.00    -0.285 OA
ATOM      6  N   UNL d   1     -39.030  12.375  17.478  0.00  0.00    -0.241 NA
ATOM      7  C   UNL d   1     -38.482  13.471  16.734  0.00  0.00     0.032 A 
ATOM      8  C   UNL d   1     -38.471  11.871  17.110  0.00  0.00     0.099 A 
ATOM      9  C   UNL d   1     -37.944  12.159  16.580  0.00  0.00     0.021 A 
ATOM     10  C   UNL d   1     -37.940  12.971  16.381  0.00  0.00     0.004 A 
ATOM     11  C   UNL d   1     -38.489  14.278  16.545  0.00  0.00     0.059 A 
ATOM     12  C   UNL d   1     -39.046  14.783  16.910  0.00  0.00     0.016 A 
ATOM     13 CL   UNL d   1     -37.949  14.573  16.002  0.00  0.00    -0.082 Cl
ENDBRANCH   1   2
BRANCH   1  14
ATOM     14  N   UNL d   1     -40.039  15.252  18.584  0.00  0.00    -0.302 N 
ATOM     15  C   UNL d   1     -40.637  15.094  19.138  0.00  0.00     0.080 A 
ATOM     16  C   UNL d   1     -40.551  15.316  19.929  0.00  0.00     0.019 A 
ATOM     17  C   UNL d   1     -39.866  15.698  20.172  0.00  0.00     0.003 A 
ATOM     18  C   UNL d   1     -39.267  15.858  19.626  0.00  0.00     0.019 A 
ATOM     19  C   UNL d   1     -39.352  15.638  18.843  0.00  0.00     0.080 A 
BRANCH  17  20
ATOM     20  C   UNL d   1     -39.780  15.918  20.954  0.00  0.00     0.000 C 
BRANCH  20  21
ATOM     21  C   UNL d   1     -39.410  15.423  21.479  0.00  0.00     0.000 A 
ATOM     22  C   UNL d   1     -38.653  15.595  21.746  0.00  0.00     0.000 A 
ATOM     23  C   UNL d   1     -38.277  15.098  22.276  0.00  0.00     0.000 A 
ATOM     24  C   UNL d   1     -38.663  14.419  22.542  0.00  0.00     0.000 A 
ATOM     25  C   UNL d   1     -39.418  14.243  22.279  0.00  0.00     0.000 A 
ATOM     26  C   UNL d   1     -39.799  14.750  21.739  0.00  0.00     0.000 A 
ENDBRANCH  20  21
ENDBRANCH  17  20
ENDBRANCH   1  14
BRANCH   1  27
ATOM     27  C   UNL d   1     -40.767  15.334  17.335  0.00  0.00     0.098 A 
ATOM     28  N   UNL d   1     -41.534  15.336  17.661  0.00  0.00    -0.243 NA
ATOM     29  C   UNL d   1     -42.157  15.631  17.218  0.00  0.00     0.099 A 
ATOM     30  C   UNL d   1     -42.018  15.920  16.462  0.00  0.00     0.021 A 
ATOM     31  C   UNL d   1     -41.258  15.921  16.133  0.00  0.00     0.003 A 
ATOM     32  C   UNL d   1     -40.635  15.627  16.575  0.00  0.00     0.021 A 
ENDBRANCH   1  27
TORSDOF 5
ENDMDL
MODEL 2
REMARK VINA RESULT:      -5.6      8.628     10.233
REMARK  5 active torsions:
REMARK  status: ('A' for Active; 'I' for Inactive)
REMARK    1  A    between atoms: C_5  and  C_1 
REMARK    2  A    between atoms: N_7  and  C_5 
REMARK    3  A    between atoms: C_10  and  C_5 
REMARK    4  A    between atoms: C_16  and  C_19 
REMARK    5  A    between atoms: C_20  and  C_16 
ROOT
ATOM      1  C   UNL d   1     -48.535  12.986  22.573  0.00  0.00     0.085 C 
ENDROOT
BRANCH   1   2
ATOM      2  C   UNL d   1     -49.142  13.572  22.502  0.00  0.00     0.059 A 
ATOM      3  C   UNL d   1     -49.207  14.187  23.068  0.00  0.00     0.214 A 
ATOM      4  C   UNL d   1     -49.809  14.753  22.984  0.00  0.00     0.121 A 
ATOM      5  O   UNL d   1     -48.689  14.234  23.698  0.00  0.00    -0.285 OA
ATOM      6  N   UNL d   1     -49.878  15.357  23.533  0.00  0.00    -0.241 NA
ATOM      7  C   UNL d   1     -50.337  14.705  22.342  0.00  0.00     0.032 A 
ATOM      8  C   UNL d   1     -50.489  15.922  23.436  0.00  0.00     0.099 A 
ATOM      9  C   UNL d   1     -50.998  15.876  22.819  0.00  0.00     0.021 A 
ATOM     10  C   UNL d   1     -50.930  15.262  22.256  0.00  0.00     0.004 A 
ATOM     11  C   UNL d   1     -50.259  14.091  21.791  0.00  0.00     0.059 A 
ATOM     12  C   UNL d   1     -49.651  13.526  21.885  0.00  0.00     0.016 A 
ATOM     13 CL   UNL d   1     -50.780  14.044  21.159  0.00  0.00    -0.082 Cl
ENDBRANCH   1   2
BRANCH   1  14
ATOM     14  N   UNL d   1     -47.744  13.194  22.460  0.00  0.00    -0.302 N 
ATOM     15  C   UNL d   1     -47.247  13.345  23.108  0.00  0.00     0.080 A 
ATOM     16  C   UNL d   1     -46.457  13.552  22.996  0.00  0.00     0.019 A 
ATOM     17  C   UNL d   1     -46.155  13.610  22.234  0.00  0.00     0.003 A 
ATOM     18  C   UNL d   1     -46.644  13.461  21.584  0.00  0.00     0.019 A 
ATOM     19  C   UNL d   1     -47.427  13.256  21.696  0.00  0.00     0.080 A 
BRANCH  17  20
ATOM     20  C   UNL d   1     -45.372  13.816  22.121  0.00  0.00     0.000 C 
BRANCH  20  21
ATOM     21  C   UNL d   1     -44.804  13.240  22.058  0.00  0.00     0.000 A 
ATOM     22  C   UNL d   1     -44.795  12.610  22.584  0.00  0.00     0.000 A 
ATOM     23  C   UNL d   1     -44.224  12.028  22.523  0.00  0.00     0.000 A 
ATOM     24  C   UNL d   1     -43.654  12.076  21.928  0.00  0.00     0.000 A 
ATOM     25  C   UNL d   1     -43.659  12.703  21.401  0.00  0.00     0.000 A 
ATOM     26  C   UNL d   1     -44.241  13.295  21.465  0.00  0.00     0.000 A 
ENDBRANCH  20  21
ENDBRANCH  17  20
ENDBRANCH   1  14
BRANCH   1  27
ATOM     27  C   UNL d   1     -48.742  12.188  22.760  0.00  0.00     0.098 A 
ATOM     28  N   UNL d   1     -49.052  12.016  23.514  0.00  0.00    -0.243 NA
ATOM     29  C   UNL d   1     -49.254  11.243  23.698  0.00  0.00     0.099 A 
ATOM     30  C   UNL d   1     -49.148  10.651  23.138  0.00  0.00     0.021 A 
ATOM     31  C   UNL d   1     -48.840  10.817  22.388  0.00  0.00     0.003 A 
ATOM     32  C   UNL d   1     -48.639  11.588  22.203  0.00  0.00     0.021 A 
ENDBRANCH   1  27
TORSDOF 5
ENDMDL
MODEL 3
REMARK VINA RESULT:      -4.6      8.392     10.001
REMARK  5 active torsions:
REMARK  status: ('A' for Active; 'I' for Inactive)
REMARK    1  A    between atoms: C_5  and  C_1 
REMARK    2  A    between atoms: N_7  and  C_5 
REMARK    3  A    between atoms: C_10  and  C_5 
REMARK    4  A    between atoms: C_16  and  C_19 
REMARK    5  A    between atoms: C_20  and  C_16 
ROOT
ATOM      1  C   UNL d   1     -48.199  12.898  22.765  0.00  0.00     0.085 C 
ENDROOT
BRANCH   1   2
ATOM      2  C   UNL d   1     -48.809  13.473  22.646  0.00  0.00     0.059 A 
ATOM      3  C   UNL d   1     -49.292  13.443  21.962  0.00  0.00     0.214 A 
ATOM      4  C   UNL d   1     -49.887  14.015  21.861  0.00  0.00     0.121 A 
ATOM      5  O   UNL d   1     -49.185  12.863  21.398  0.00  0.00    -0.285 OA
ATOM      6  N   UNL d   1     -50.363  13.992  21.194  0.00  0.00    -0.241 NA
ATOM      7  C   UNL d   1     -49.996  14.607  22.437  0.00  0.00     0.032 A 
ATOM      8  C   UNL d   1     -50.959  14.574  21.105  0.00  0.00     0.099 A 
ATOM      9  C   UNL d   1     -51.064  15.144  21.658  0.00  0.00     0.021 A 
ATOM     10  C   UNL d   1     -50.580  15.170  22.340  0.00  0.00     0.004 A 
ATOM     11  C   UNL d   1     -49.510  14.621  23.107  0.00  0.00     0.059 A 
ATOM     12  C   UNL d   1     -48.915  14.042  23.200  0.00  0.00     0.016 A 
ATOM     13 CL   UNL d   1     -49.618  15.205  23.675  0.00  0.00    -0.082 Cl
ENDBRANCH   1   2
BRANCH   1  14
ATOM     14  N   UNL d   1     -47.410  13.098  22.628  0.00  0.00    -0.302 N 
ATOM     15  C   UNL d   1     -46.880  13.196  23.261  0.00  0.00     0.080 A 
ATOM     16  C   UNL d   1     -46.091  13.396  23.125  0.00  0.00     0.019 A 
ATOM     17  C   UNL d   1     -45.824  13.500  22.355  0.00  0.00     0.003 A 
ATOM     18  C   UNL d   1     -46.346  13.404  21.721  0.00  0.00     0.019 A 
ATOM     19  C   UNL d   1     -47.128  13.206  21.856  0.00  0.00     0.080 A 
BRANCH  17  20
ATOM     20  C   UNL d   1     -45.043  13.698  22.219  0.00  0.00     0.000 C 
BRANCH  20  21
ATOM     21  C   UNL d   1     -44.491  13.117  22.093  0.00  0.00     0.000 A 
ATOM     22  C   UNL d   1     -43.963  13.178  21.469  0.00  0.00     0.000 A 
ATOM     23  C   UNL d   1     -43.404  12.595  21.339  0.00  0.00     0.000 A 
ATOM     24  C   UNL d   1     -43.374  11.941  21.841  0.00  0.00     0.000 A 
ATOM     25  C   UNL d   1     -43.899  11.875  22.466  0.00  0.00     0.000 A 
ATOM     26  C   UNL d   1     -44.467  12.471  22.597  0.00  0.00     0.000 A 
ENDBRANCH  20  21
ENDBRANCH  17  20
ENDBRANCH   1  14
BRANCH   1  27
ATOM     27  C   UNL d   1     -48.400  12.119  23.025  0.00  0.00     0.098 A 
ATOM     28  N   UNL d   1     -47.887  11.487  22.849  0.00  0.00    -0.243 NA
ATOM     29  C   UNL d   1     -48.080  10.732  23.100  0.00  0.00     0.099 A 
ATOM     30  C   UNL d   1     -48.775  10.608  23.520  0.00  0.00     0.021 A 
ATOM     31  C   UNL d   1     -49.289  11.232  23.698  0.00  0.00     0.003 A 
ATOM     32  C   UNL d   1     -49.097  11.987  23.448  0.00  0.00     0.021 A 
ENDBRANCH   1  27
TORSDOF 5
ENDMDL
MODEL 4
REMARK VINA RESULT:      -3.9      2.597      4.214
REMARK  5 active torsions:
REMARK  status: ('A' for Active; 'I' for Inactive)
REMARK    1  A    between atoms: C_5  and  C_1 
REMARK    2  A    between atoms: N_7  and  C_5 
REMARK    3  A    between atoms: C_10  and  C_5 
REMARK    4  A    between atoms: C_16  and  C_19 
REMARK    5  A    between atoms: C_20  and  C_16 
ROOT
ATOM      1  C   UNL d   1     -39.969  14.595  20.844  0.00  0.00     0.085 C 
ENDROOT
BRANCH   1   2
ATOM      2  C   UNL d   1     -39.485  14.629  20.150  0.00  0.00     0.059 A 
ATOM      3  C   UNL d   1     -39.552  15.272  19.617  0.00  0.00     0.214 A 
ATOM      4  C   UNL d   1     -39.069  15.290  18.941  0.00  0.00     0.121 A 
ATOM      5  O   UNL d   1     -40.083  15.877  19.754  0.00  0.00    -0.285 OA
ATOM      6  N   UNL d   1     -39.129  15.916  18.415  0.00  0.00    -0.241 NA
ATOM      7  C   UNL d   1     -38.527  14.673  18.801  0.00  0.00     0.032 A 
ATOM      8  C   UNL d   1     -38.636  15.921  17.738  0.00  0.00     0.099 A 
ATOM      9  C   UNL d   1     -38.115  15.328  17.603  0.00  0.00     0.021 A 
ATOM     10  C   UNL d   1     -38.051  14.688  18.137  0.00  0.00     0.004 A 
ATOM     11  C   UNL d   1     -38.474  14.045  19.338  0.00  0.00     0.059 A 
ATOM     12  C   UNL d   1     -38.964  14.036  20.015  0.00  0.00     0.016 A 
ATOM     13 CL   UNL d   1     -37.940  13.436  19.201  0.00  0.00    -0.082 Cl
ENDBRANCH   1   2
BRANCH   1  14
ATOM     14  N   UNL d   1     -40.738  14.298  20.798  0.00  0.00    -0.302 N 
ATOM     15  C   UNL d   1     -40.876  13.505  20.591  0.00  0.00     0.080 A 
ATOM     16  C   UNL d   1     -41.644  13.208  20.545  0.00  0.00     0.019 A 
ATOM     17  C   UNL d   1     -42.282  13.700  20.704  0.00  0.00     0.003 A 
ATOM     18  C   UNL d   1     -42.152  14.490  20.911  0.00  0.00     0.019 A 
ATOM     19  C   UNL d   1     -41.391  14.784  20.956  0.00  0.00     0.080 A 
BRANCH  17  20
ATOM     20  C   UNL d   1     -43.043  13.406  20.659  0.00  0.00     0.000 C 
BRANCH  20  21
ATOM     21  C   UNL d   1     -43.353  12.978  21.274  0.00  0.00     0.000 A 
ATOM     22  C   UNL d   1     -44.091  13.168  21.579  0.00  0.00     0.000 A 
ATOM     23  C   UNL d   1     -44.406  12.738  22.199  0.00  0.00     0.000 A 
ATOM     24  C   UNL d   1     -43.978  12.110  22.519  0.00  0.00     0.000 A 
ATOM     25  C   UNL d   1     -43.241  11.916  22.219  0.00  0.00     0.000 A 
ATOM     26  C   UNL d   1     -42.921  12.355  21.587  0.00  0.00     0.000 A 
ENDBRANCH  20  21
ENDBRANCH  17  20
ENDBRANCH   1  14
BRANCH   1  27
ATOM     27  C   UNL d   1     -39.662  14.865  21.583  0.00  0.00     0.098 A 
ATOM     28  N   UNL d   1     -39.311  14.316  22.102  0.00  0.00    -0.243 NA
ATOM     29  C   UNL d   1     -39.012  14.576  22.819  0.00  0.00     0.099 A 
ATOM     30  C   UNL d   1     -39.064  15.372  23.017  0.00  0.00     0.021 A 
ATOM     31  C   UNL d   1     -39.412  15.922  22.506  0.00  0.00     0.003 A 
ATOM     32  C   UNL d   1     -39.710  15.663  21.789  0.00  0.00     0.021 A 
ENDBRANCH   1  27
TORSDOF 5
ENDMDL
