MODEL 1
REMARK VINA RESULT:       9.1      0.000      0.000
REMARK  5 active torsions:
REMARK  status: ('A' for Active; 'I' for Inactive)
REMARK    1  A    between atoms: C_2  and  C_1 
REMARK    2  A    between atoms: O_6  and  C_1 
REMARK    3  A    between atoms: C_11  and  O_6 
REMARK    4  A    between atoms: C_12  and  C_11 
REMARK    5  A    between atoms: C_13  and  C_12 
ROOT
ATOM      1  C   UNL d   1     -51.915  24.515  33.341  0.00  0.00     0.064 A 
ATOM      2  C   UNL d   1     -52.616  24.954  33.345  0.00  0.00     0.009 A 
ATOM      3  C   UNL d   1     -51.953  23.690  33.354  0.00  0.00     0.009 A 
ATOM      4  C   UNL d   1     -53.389  23.756  33.375  0.00  0.00     0.196 A 
ATOM      5  C   UNL d   1     -53.351  24.581  33.362  0.00  0.00     0.042 A 
ATOM      6  C   UNL d   1     -52.691  23.321  33.370  0.00  0.00     0.042 A 
ATOM      7  O   UNL d   1     -54.120  23.353  33.392  0.00  0.00    -0.287 OA
ENDROOT
BRANCH   1   8
ATOM      8  C   UNL d   1     -51.182  24.902  33.323  0.00  0.00     0.300 C 
ATOM      9  O   UNL d   1     -50.480  24.468  33.323  0.00  0.00    -0.259 OA
BRANCH   8  10
ATOM     10  O   UNL d   1     -51.166  25.726  33.307  0.00  0.00    -0.271 OA
BRANCH  10  11
ATOM     11  C   UNL d   1     -50.458  26.114  33.483  0.00  0.00     0.126 C 
BRANCH  11  12
ATOM     12  C   UNL d   1     -50.425  26.937  33.413  0.00  0.00     0.027 C 
BRANCH  12  13
ATOM     13  C   UNL d   1     -51.120  27.369  33.357  0.00  0.00     0.002 C 
ATOM     14  C   UNL d   1     -51.096  28.193  33.366  0.00  0.00     0.000 C 
ENDBRANCH  12  13
ENDBRANCH  11  12
ENDBRANCH  10  11
ENDBRANCH   8  10
ENDBRANCH   1   8
TORSDOF 5
ENDMDL
