MODEL 1
REMARK VINA RESULT:      -5.7      0.000      0.000
REMARK  3 active torsions:
REMARK  status: ('A' for Active; 'I' for Inactive)
REMARK    1  A    between atoms: N_5  and  C_2 
REMARK    2  A    between atoms: C_8  and  C_3 
REMARK       I    between atoms: C_7  and  N_5 
REMARK    3  A    between atoms: C_10  and  C_7 
ROOT
ATOM      1  N   UNL d   1     -41.145-122.391 -53.402  0.00  0.00    -0.200 NA
ATOM      2  C   UNL d   1     -41.243-122.681 -54.165  0.00  0.00     0.216 A 
ATOM      3  C   UNL d   1     -41.319-123.011 -52.872  0.00  0.00     0.172 A 
ATOM      4  N   UNL d   1     -41.522-123.675 -53.330  0.00  0.00    -0.187 NA
ATOM      5  S   UNL d   1     -41.472-123.461 -54.127  0.00  0.00     0.054 SA
ENDROOT
BRANCH   2   6
ATOM      6  N   UNL d   1     -41.126-122.246 -54.872  0.00  0.00    -0.181 NA
ATOM      7  C   UNL d   1     -41.763-121.972 -55.311  0.00  0.00     0.281 C 
ATOM      8  O   UNL d   1     -41.631-121.545 -56.004  0.00  0.00    -0.265 OA
BRANCH   7   9
ATOM      9  C   UNL d   1     -42.532-122.124 -55.057  0.00  0.00     0.058 C 
ATOM     10  C   UNL d   1     -42.903-122.833 -55.256  0.00  0.00     0.005 C 
ATOM     11  C   UNL d   1     -42.931-121.564 -54.603  0.00  0.00     0.005 C 
ENDBRANCH   7   9
ENDBRANCH   2   6
BRANCH   3  12
ATOM     12  C   UNL d   1     -41.303-123.003 -52.047  0.00  0.00     0.036 A 
ATOM     13  C   UNL d   1     -41.140-123.700 -51.625  0.00  0.00     0.003 A 
ATOM     14  C   UNL d   1     -41.125-123.692 -50.801  0.00  0.00     0.000 A 
ATOM     15  C   UNL d   1     -41.272-122.986 -50.389  0.00  0.00     0.000 A 
ATOM     16  C   UNL d   1     -41.435-122.289 -50.810  0.00  0.00     0.000 A 
ATOM     17  C   UNL d   1     -41.451-122.297 -51.636  0.00  0.00     0.003 A 
ENDBRANCH   3  12
TORSDOF 3
ENDMDL
MODEL 2
REMARK VINA RESULT:      -4.9      2.061      3.898
REMARK  3 active torsions:
REMARK  status: ('A' for Active; 'I' for Inactive)
REMARK    1  A    between atoms: N_5  and  C_2 
REMARK    2  A    between atoms: C_8  and  C_3 
REMARK       I    between atoms: C_7  and  N_5 
REMARK    3  A    between atoms: C_10  and  C_7 
ROOT
ATOM      1  N   UNL d   1     -41.515-123.158 -52.328  0.00  0.00    -0.200 NA
ATOM      2  C   UNL d   1     -41.287-122.922 -51.574  0.00  0.00     0.216 A 
ATOM      3  C   UNL d   1     -41.492-122.484 -52.820  0.00  0.00     0.172 A 
ATOM      4  N   UNL d   1     -41.246-121.844 -52.348  0.00  0.00    -0.187 NA
ATOM      5  S   UNL d   1     -41.123-122.126 -51.581  0.00  0.00     0.054 SA
ENDROOT
BRANCH   2   6
ATOM      6  N   UNL d   1     -41.231-123.421 -50.903  0.00  0.00    -0.181 NA
ATOM      7  C   UNL d   1     -41.723-123.315 -50.254  0.00  0.00     0.281 C 
ATOM      8  O   UNL d   1     -41.656-123.815 -49.601  0.00  0.00    -0.265 OA
BRANCH   7   9
ATOM      9  C   UNL d   1     -42.282-122.709 -50.257  0.00  0.00     0.058 C 
ATOM     10  C   UNL d   1     -42.063-121.940 -50.057  0.00  0.00     0.005 C 
ATOM     11  C   UNL d   1     -43.063-122.875 -50.462  0.00  0.00     0.005 C 
ENDBRANCH   7   9
ENDBRANCH   2   6
BRANCH   3  12
ATOM     12  C   UNL d   1     -41.670-122.428 -53.623  0.00  0.00     0.036 A 
ATOM     13  C   UNL d   1     -41.251-122.883 -54.178  0.00  0.00     0.003 A 
ATOM     14  C   UNL d   1     -41.430-122.826 -54.982  0.00  0.00     0.000 A 
ATOM     15  C   UNL d   1     -42.031-122.313 -55.238  0.00  0.00     0.000 A 
ATOM     16  C   UNL d   1     -42.450-121.857 -54.684  0.00  0.00     0.000 A 
ATOM     17  C   UNL d   1     -42.271-121.914 -53.880  0.00  0.00     0.003 A 
ENDBRANCH   3  12
TORSDOF 3
ENDMDL
MODEL 3
REMARK VINA RESULT:      -4.3      1.033      1.260
REMARK  3 active torsions:
REMARK  status: ('A' for Active; 'I' for Inactive)
REMARK    1  A    between atoms: N_5  and  C_2 
REMARK    2  A    between atoms: C_8  and  C_3 
REMARK       I    between atoms: C_7  and  N_5 
REMARK    3  A    between atoms: C_10  and  C_7 
ROOT
ATOM      1  N   UNL d   1     -42.388-122.319 -52.847  0.00  0.00    -0.200 NA
ATOM      2  C   UNL d   1     -42.169-121.914 -53.529  0.00  0.00     0.216 A 
ATOM      3  C   UNL d   1     -41.734-122.311 -52.329  0.00  0.00     0.172 A 
ATOM      4  N   UNL d   1     -41.123-121.896 -52.712  0.00  0.00    -0.187 NA
ATOM      5  S   UNL d   1     -41.402-121.656 -53.452  0.00  0.00     0.054 SA
ENDROOT
BRANCH   2   6
ATOM      6  N   UNL d   1     -42.657-121.787 -54.199  0.00  0.00    -0.181 NA
ATOM      7  C   UNL d   1     -42.506-122.165 -54.911  0.00  0.00     0.281 C 
ATOM      8  O   UNL d   1     -42.996-122.028 -55.560  0.00  0.00    -0.265 OA
BRANCH   7   9
ATOM      9  C   UNL d   1     -41.865-122.679 -54.975  0.00  0.00     0.058 C 
ATOM     10  C   UNL d   1     -41.963-123.485 -54.835  0.00  0.00     0.005 C 
ATOM     11  C   UNL d   1     -41.123-122.384 -55.181  0.00  0.00     0.005 C 
ENDBRANCH   7   9
ENDBRANCH   2   6
BRANCH   3  12
ATOM     12  C   UNL d   1     -41.670-122.641 -51.576  0.00  0.00     0.036 A 
ATOM     13  C   UNL d   1     -41.520-123.454 -51.487  0.00  0.00     0.003 A 
ATOM     14  C   UNL d   1     -41.456-123.784 -50.733  0.00  0.00     0.000 A 
ATOM     15  C   UNL d   1     -41.542-123.304 -50.061  0.00  0.00     0.000 A 
ATOM     16  C   UNL d   1     -41.692-122.492 -50.149  0.00  0.00     0.000 A 
ATOM     17  C   UNL d   1     -41.756-122.161 -50.903  0.00  0.00     0.003 A 
ENDBRANCH   3  12
TORSDOF 3
ENDMDL
MODEL 4
REMARK VINA RESULT:      -3.9      1.025      1.511
REMARK  3 active torsions:
REMARK  status: ('A' for Active; 'I' for Inactive)
REMARK    1  A    between atoms: N_5  and  C_2 
REMARK    2  A    between atoms: C_8  and  C_3 
REMARK       I    between atoms: C_7  and  N_5 
REMARK    3  A    between atoms: C_10  and  C_7 
ROOT
ATOM      1  N   UNL d   1     -41.450-123.254 -52.474  0.00  0.00    -0.200 NA
ATOM      2  C   UNL d   1     -41.227-122.885 -53.174  0.00  0.00     0.216 A 
ATOM      3  C   UNL d   1     -41.485-122.669 -51.880  0.00  0.00     0.172 A 
ATOM      4  N   UNL d   1     -41.280-121.946 -52.236  0.00  0.00    -0.187 NA
ATOM      5  S   UNL d   1     -41.123-122.090 -53.035  0.00  0.00     0.054 SA
ENDROOT
BRANCH   2   6
ATOM      6  N   UNL d   1     -41.123-123.263 -53.915  0.00  0.00    -0.181 NA
ATOM      7  C   UNL d   1     -41.516-122.999 -54.585  0.00  0.00     0.281 C 
ATOM      8  O   UNL d   1     -41.402-123.382 -55.306  0.00  0.00    -0.265 OA
BRANCH   7   9
ATOM      9  C   UNL d   1     -42.022-122.350 -54.535  0.00  0.00     0.058 C 
ATOM     10  C   UNL d   1     -41.727-121.585 -54.619  0.00  0.00     0.005 C 
ATOM     11  C   UNL d   1     -42.827-122.470 -54.400  0.00  0.00     0.005 C 
ENDBRANCH   7   9
ENDBRANCH   2   6
BRANCH   3  12
ATOM     12  C   UNL d   1     -41.682-122.756 -51.084  0.00  0.00     0.036 A 
ATOM     13  C   UNL d   1     -42.301-122.309 -50.755  0.00  0.00     0.003 A 
ATOM     14  C   UNL d   1     -42.497-122.395 -49.959  0.00  0.00     0.000 A 
ATOM     15  C   UNL d   1     -42.077-122.930 -49.483  0.00  0.00     0.000 A 
ATOM     16  C   UNL d   1     -41.459-123.378 -49.811  0.00  0.00     0.000 A 
ATOM     17  C   UNL d   1     -41.262-123.291 -50.608  0.00  0.00     0.003 A 
ENDBRANCH   3  12
TORSDOF 3
ENDMDL
MODEL 5
REMARK VINA RESULT:      -2.8      2.744      3.873
REMARK  3 active torsions:
REMARK  status: ('A' for Active; 'I' for Inactive)
REMARK    1  A    between atoms: N_5  and  C_2 
REMARK    2  A    between atoms: C_8  and  C_3 
REMARK       I    between atoms: C_7  and  N_5 
REMARK    3  A    between atoms: C_10  and  C_7 
ROOT
ATOM      1  N   UNL d   1     -41.528-123.540 -49.732  0.00  0.00    -0.200 NA
ATOM      2  C   UNL d   1     -41.925-123.554 -50.452  0.00  0.00     0.216 A 
ATOM      3  C   UNL d   1     -42.099-123.445 -49.131  0.00  0.00     0.172 A 
ATOM      4  N   UNL d   1     -42.842-123.403 -49.503  0.00  0.00    -0.187 NA
ATOM      5  S   UNL d   1     -42.723-123.471 -50.318  0.00  0.00     0.054 SA
ENDROOT
BRANCH   2   6
ATOM      6  N   UNL d   1     -41.568-123.640 -51.205  0.00  0.00    -0.181 NA
ATOM      7  C   UNL d   1     -41.476-122.996 -51.707  0.00  0.00     0.281 C 
ATOM      8  O   UNL d   1     -41.123-123.098 -52.445  0.00  0.00    -0.265 OA
BRANCH   7   9
ATOM      9  C   UNL d   1     -41.738-122.251 -51.471  0.00  0.00     0.058 C 
ATOM     10  C   UNL d   1     -42.545-122.083 -51.445  0.00  0.00     0.005 C 
ATOM     11  C   UNL d   1     -41.189-121.673 -51.260  0.00  0.00     0.005 C 
ENDBRANCH   7   9
ENDBRANCH   2   6
BRANCH   3  12
ATOM     12  C   UNL d   1     -41.984-123.398 -48.316  0.00  0.00     0.036 A 
ATOM     13  C   UNL d   1     -42.604-123.588 -47.795  0.00  0.00     0.003 A 
ATOM     14  C   UNL d   1     -42.489-123.541 -46.979  0.00  0.00     0.000 A 
ATOM     15  C   UNL d   1     -41.753-123.303 -46.676  0.00  0.00     0.000 A 
ATOM     16  C   UNL d   1     -41.134-123.113 -47.196  0.00  0.00     0.000 A 
ATOM     17  C   UNL d   1     -41.248-123.160 -48.012  0.00  0.00     0.003 A 
ENDBRANCH   3  12
TORSDOF 3
ENDMDL
