MODEL 1
REMARK VINA RESULT:      47.3      0.000      0.000
REMARK  3 active torsions:
REMARK  status: ('A' for Active; 'I' for Inactive)
REMARK    1  A    between atoms: C_4  and  C_1 
REMARK       I    between atoms: N_8  and  C_1 
REMARK    2  A    between atoms: S_14  and  C_2 
REMARK    3  A    between atoms: C_10  and  N_8 
ROOT
ATOM      1  C   UNL d   1     -53.003  23.644  33.326  0.00  0.00     0.136 A 
ATOM      2  N   UNL d   1     -52.253  23.303  33.347  0.00  0.00    -0.232 NA
ATOM      3  S   UNL d   1     -52.964  24.445  33.314  0.00  0.00    -0.060 SA
ATOM      4  C   UNL d   1     -52.154  24.632  33.327  0.00  0.00     0.051 A 
ATOM      5  C   UNL d   1     -51.720  23.923  33.348  0.00  0.00     0.089 A 
ATOM      6  C   UNL d   1     -51.760  25.353  33.323  0.00  0.00     0.027 A 
ATOM      7  C   UNL d   1     -50.926  25.375  33.340  0.00  0.00     0.085 A 
ATOM      8  C   UNL d   1     -50.896  23.944  33.365  0.00  0.00     0.021 A 
ATOM      9  C   UNL d   1     -50.502  24.665  33.361  0.00  0.00     0.021 A 
ENDROOT
BRANCH   7  10
ATOM     10  N   UNL d   1     -50.525  26.108  33.336  0.00  0.00    -0.208 NA
ATOM     11  C   UNL d   1     -50.441  26.522  34.044  0.00  0.00     0.283 C 
ATOM     12  O   UNL d   1     -50.739  26.233  34.747  0.00  0.00    -0.265 OA
BRANCH  11  13
ATOM     13  C   UNL d   1     -50.042  27.252  34.040  0.00  0.00     0.113 A 
ATOM     14  C   UNL d   1     -49.299  27.304  34.396  0.00  0.00     0.147 A 
ATOM     15  F   UNL d   1     -48.943  26.633  34.760  0.00  0.00    -0.204 F 
ATOM     16  C   UNL d   1     -48.896  28.042  34.392  0.00  0.00     0.030 A 
ATOM     17  C   UNL d   1     -49.257  28.687  34.033  0.00  0.00     0.005 A 
ATOM     18  C   UNL d   1     -49.989  28.636  33.682  0.00  0.00     0.030 A 
ATOM     19  C   UNL d   1     -50.393  27.898  33.686  0.00  0.00     0.147 A 
ATOM     20  F   UNL d   1     -51.145  27.830  33.330  0.00  0.00    -0.204 F 
ENDBRANCH  11  13
ENDBRANCH   7  10
BRANCH   1  21
ATOM     21  S   UNL d   1     -53.700  23.214  33.319  0.00  0.00    -0.087 SA
ATOM     22  C   UNL d   1     -54.262  23.350  33.890  0.00  0.00     0.076 C 
ENDBRANCH   1  21
TORSDOF 3
ENDMDL
