MODEL 1
REMARK VINA RESULT:     -11.0      0.000      0.000
REMARK  3 active torsions:
REMARK  status: ('A' for Active; 'I' for Inactive)
REMARK    1  A    between atoms: C_7  and  N_1 
REMARK    2  A    between atoms: C_11  and  C_4 
REMARK    3  A    between atoms: C_9  and  C_7 
ROOT
ATOM      1  N   UNL d   1      53.302  31.847  53.441  0.00  0.00    -0.252 N 
ATOM      2  C   UNL d   1      52.682  31.620  52.900  0.00  0.00     0.354 A 
ATOM      3  C   UNL d   1      52.794  33.191  53.378  0.00  0.00     0.035 A 
ATOM      4  C   UNL d   1      53.349  32.636  53.673  0.00  0.00     0.070 A 
ATOM      5  N   UNL d   1      52.148  32.189  52.624  0.00  0.00    -0.192 NA
ATOM      6  C   UNL d   1      52.195  32.978  52.857  0.00  0.00     0.087 A 
ATOM      7  C   UNL d   1      52.872  33.970  53.631  0.00  0.00     0.010 A 
ATOM      8  O   UNL d   1      52.604  30.841  52.647  0.00  0.00    -0.244 OA
ATOM      9  C   UNL d   1      51.674  33.509  52.582  0.00  0.00     0.020 A 
ATOM     10  C   UNL d   1      52.342  34.546  53.360  0.00  0.00     0.035 A 
ATOM     11  C   UNL d   1      51.716  34.300  52.810  0.00  0.00     0.008 A 
ATOM     12 BR   UNL d   1      52.422  35.348  53.622  0.00  0.00    -0.049 Br
ENDROOT
BRANCH   4  13
ATOM     13  C   UNL d   1      53.907  32.880  54.169  0.00  0.00     0.016 A 
ATOM     14  C   UNL d   1      54.631  33.133  53.878  0.00  0.00     0.001 A 
ATOM     15  C   UNL d   1      55.230  33.392  54.390  0.00  0.00     0.000 A 
ATOM     16  C   UNL d   1      55.097  33.398  55.215  0.00  0.00     0.000 A 
ATOM     17  C   UNL d   1      54.372  33.145  55.516  0.00  0.00     0.000 A 
ATOM     18  C   UNL d   1      53.799  32.896  55.018  0.00  0.00     0.001 A 
ENDBRANCH   4  13
BRANCH   1  19
ATOM     19  C   UNL d   1      53.859  31.299  53.740  0.00  0.00     0.155 C 
BRANCH  19  20
ATOM     20  C   UNL d   1      53.713  30.490  53.653  0.00  0.00     0.230 C 
ATOM     21  O   UNL d   1      53.226  30.095  54.220  0.00  0.00    -0.643 OA
ATOM     22  O   UNL d   1      54.048  30.095  53.017  0.00  0.00    -0.643 OA
ENDBRANCH  19  20
ENDBRANCH   1  19
TORSDOF 3
ENDMDL
MODEL 2
REMARK VINA RESULT:     -10.9      2.425      3.779
REMARK  3 active torsions:
REMARK  status: ('A' for Active; 'I' for Inactive)
REMARK    1  A    between atoms: C_7  and  N_1 
REMARK    2  A    between atoms: C_11  and  C_4 
REMARK    3  A    between atoms: C_9  and  C_7 
ROOT
ATOM      1  N   UNL d   1      53.132  34.267  54.137  0.00  0.00    -0.252 N 
ATOM      2  C   UNL d   1      53.835  34.092  54.587  0.00  0.00     0.354 A 
ATOM      3  C   UNL d   1      53.120  32.893  53.716  0.00  0.00     0.035 A 
ATOM      4  C   UNL d   1      52.781  33.660  53.705  0.00  0.00     0.070 A 
ATOM      5  N   UNL d   1      54.148  33.326  54.580  0.00  0.00    -0.192 NA
ATOM      6  C   UNL d   1      53.798  32.718  54.147  0.00  0.00     0.087 A 
ATOM      7  C   UNL d   1      52.744  32.310  53.272  0.00  0.00     0.010 A 
ATOM      8  O   UNL d   1      54.212  34.674  55.031  0.00  0.00    -0.244 OA
ATOM      9  C   UNL d   1      54.112  31.990  54.152  0.00  0.00     0.020 A 
ATOM     10  C   UNL d   1      53.051  31.541  53.260  0.00  0.00     0.035 A 
ATOM     11  C   UNL d   1      53.767  31.377  53.722  0.00  0.00     0.008 A 
ATOM     12 BR   UNL d   1      52.663  30.941  52.803  0.00  0.00    -0.049 Br
ENDROOT
BRANCH   4  13
ATOM     13  C   UNL d   1      52.133  33.786  53.280  0.00  0.00     0.016 A 
ATOM     14  C   UNL d   1      52.197  34.060  52.509  0.00  0.00     0.001 A 
ATOM     15  C   UNL d   1      51.521  34.198  52.049  0.00  0.00     0.000 A 
ATOM     16  C   UNL d   1      50.762  34.057  52.372  0.00  0.00     0.000 A 
ATOM     17  C   UNL d   1      50.690  33.781  53.146  0.00  0.00     0.000 A 
ATOM     18  C   UNL d   1      51.345  33.650  53.585  0.00  0.00     0.001 A 
ENDBRANCH   4  13
BRANCH   1  19
ATOM     19  C   UNL d   1      52.788  35.030  54.122  0.00  0.00     0.155 C 
BRANCH  19  20
ATOM     20  C   UNL d   1      53.081  35.614  54.629  0.00  0.00     0.230 C 
ATOM     21  O   UNL d   1      52.836  35.617  55.438  0.00  0.00    -0.643 OA
ATOM     22  O   UNL d   1      53.601  36.172  54.330  0.00  0.00    -0.643 OA
ENDBRANCH  19  20
ENDBRANCH   1  19
TORSDOF 3
ENDMDL
MODEL 3
REMARK VINA RESULT:     -10.7      0.880      2.530
REMARK  3 active torsions:
REMARK  status: ('A' for Active; 'I' for Inactive)
REMARK    1  A    between atoms: C_7  and  N_1 
REMARK    2  A    between atoms: C_11  and  C_4 
REMARK    3  A    between atoms: C_9  and  C_7 
ROOT
ATOM      1  N   UNL d   1      52.921  32.155  53.389  0.00  0.00    -0.252 N 
ATOM      2  C   UNL d   1      53.600  31.817  53.780  0.00  0.00     0.354 A 
ATOM      3  C   UNL d   1      53.215  33.392  54.062  0.00  0.00     0.035 A 
ATOM      4  C   UNL d   1      52.737  32.944  53.537  0.00  0.00     0.070 A 
ATOM      5  N   UNL d   1      54.054  32.282  54.293  0.00  0.00    -0.192 NA
ATOM      6  C   UNL d   1      53.870  33.071  54.441  0.00  0.00     0.087 A 
ATOM      7  C   UNL d   1      53.001  34.177  54.187  0.00  0.00     0.010 A 
ATOM      8  O   UNL d   1      53.814  31.032  53.655  0.00  0.00    -0.244 OA
ATOM      9  C   UNL d   1      54.317  33.501  54.935  0.00  0.00     0.020 A 
ATOM     10  C   UNL d   1      53.450  34.649  54.698  0.00  0.00     0.035 A 
ATOM     11  C   UNL d   1      54.139  34.291  55.088  0.00  0.00     0.008 A 
ATOM     12 BR   UNL d   1      53.230  35.458  54.826  0.00  0.00    -0.049 Br
ENDROOT
BRANCH   4  13
ATOM     13  C   UNL d   1      52.119  33.288  53.195  0.00  0.00     0.016 A 
ATOM     14  C   UNL d   1      52.215  33.685  52.484  0.00  0.00     0.001 A 
ATOM     15  C   UNL d   1      51.571  34.052  52.111  0.00  0.00     0.000 A 
ATOM     16  C   UNL d   1      50.813  34.019  52.462  0.00  0.00     0.000 A 
ATOM     17  C   UNL d   1      50.709  33.621  53.177  0.00  0.00     0.000 A 
ATOM     18  C   UNL d   1      51.332  33.270  53.532  0.00  0.00     0.001 A 
ENDBRANCH   4  13
BRANCH   1  19
ATOM     19  C   UNL d   1      52.440  31.715  52.865  0.00  0.00     0.155 C 
BRANCH  19  20
ATOM     20  C   UNL d   1      52.574  30.904  52.782  0.00  0.00     0.230 C 
ATOM     21  O   UNL d   1      52.197  30.367  53.316  0.00  0.00    -0.643 OA
ATOM     22  O   UNL d   1      53.069  30.644  52.183  0.00  0.00    -0.643 OA
ENDBRANCH  19  20
ENDBRANCH   1  19
TORSDOF 3
ENDMDL
MODEL 4
REMARK VINA RESULT:     -10.7      1.936      2.854
REMARK  3 active torsions:
REMARK  status: ('A' for Active; 'I' for Inactive)
REMARK    1  A    between atoms: C_7  and  N_1 
REMARK    2  A    between atoms: C_11  and  C_4 
REMARK    3  A    between atoms: C_9  and  C_7 
ROOT
ATOM      1  N   UNL d   1      52.747  33.373  53.314  0.00  0.00    -0.252 N 
ATOM      2  C   UNL d   1      52.118  33.134  52.791  0.00  0.00     0.354 A 
ATOM      3  C   UNL d   1      53.113  31.986  53.424  0.00  0.00     0.035 A 
ATOM      4  C   UNL d   1      53.240  32.791  53.626  0.00  0.00     0.070 A 
ATOM      5  N   UNL d   1      52.015  32.333  52.608  0.00  0.00    -0.192 NA
ATOM      6  C   UNL d   1      52.508  31.751  52.920  0.00  0.00     0.087 A 
ATOM      7  C   UNL d   1      53.624  31.432  53.754  0.00  0.00     0.010 A 
ATOM      8  O   UNL d   1      51.607  33.689  52.461  0.00  0.00    -0.244 OA
ATOM      9  C   UNL d   1      52.394  30.988  52.734  0.00  0.00     0.020 A 
ATOM     10  C   UNL d   1      53.528  30.628  53.577  0.00  0.00     0.035 A 
ATOM     11  C   UNL d   1      52.883  30.400  53.042  0.00  0.00     0.008 A 
ATOM     12 BR   UNL d   1      54.055  30.057  53.916  0.00  0.00    -0.049 Br
ENDROOT
BRANCH   4  13
ATOM     13  C   UNL d   1      53.829  32.975  54.111  0.00  0.00     0.016 A 
ATOM     14  C   UNL d   1      54.572  33.144  53.806  0.00  0.00     0.001 A 
ATOM     15  C   UNL d   1      55.203  33.340  54.307  0.00  0.00     0.000 A 
ATOM     16  C   UNL d   1      55.085  33.367  55.134  0.00  0.00     0.000 A 
ATOM     17  C   UNL d   1      54.341  33.199  55.448  0.00  0.00     0.000 A 
ATOM     18  C   UNL d   1      53.737  33.011  54.961  0.00  0.00     0.001 A 
ENDBRANCH   4  13
BRANCH   1  19
ATOM     19  C   UNL d   1      52.880  34.173  53.520  0.00  0.00     0.155 C 
BRANCH  19  20
ATOM     20  C   UNL d   1      52.434  34.763  53.150  0.00  0.00     0.230 C 
ATOM     21  O   UNL d   1      51.747  35.065  53.540  0.00  0.00    -0.643 OA
ATOM     22  O   UNL d   1      52.673  35.036  52.416  0.00  0.00    -0.643 OA
ENDBRANCH  19  20
ENDBRANCH   1  19
TORSDOF 3
ENDMDL
MODEL 5
REMARK VINA RESULT:      -9.0      2.111      2.768
REMARK  3 active torsions:
REMARK  status: ('A' for Active; 'I' for Inactive)
REMARK    1  A    between atoms: C_7  and  N_1 
REMARK    2  A    between atoms: C_11  and  C_4 
REMARK    3  A    between atoms: C_9  and  C_7 
ROOT
ATOM      1  N   UNL d   1      53.889  33.672  54.521  0.00  0.00    -0.252 N 
ATOM      2  C   UNL d   1      53.741  34.496  54.685  0.00  0.00     0.354 A 
ATOM      3  C   UNL d   1      52.694  33.670  53.720  0.00  0.00     0.035 A 
ATOM      4  C   UNL d   1      53.359  33.268  54.037  0.00  0.00     0.070 A 
ATOM      5  N   UNL d   1      53.078  34.868  54.359  0.00  0.00    -0.192 NA
ATOM      6  C   UNL d   1      52.548  34.464  53.875  0.00  0.00     0.087 A 
ATOM      7  C   UNL d   1      52.186  33.235  53.241  0.00  0.00     0.010 A 
ATOM      8  O   UNL d   1      54.249  34.931  55.164  0.00  0.00    -0.244 OA
ATOM      9  C   UNL d   1      51.917  34.837  53.571  0.00  0.00     0.020 A 
ATOM     10  C   UNL d   1      51.520  33.600  52.911  0.00  0.00     0.035 A 
ATOM     11  C   UNL d   1      51.383  34.439  53.086  0.00  0.00     0.008 A 
ATOM     12 BR   UNL d   1      50.996  33.152  52.417  0.00  0.00    -0.049 Br
ENDROOT
BRANCH   4  13
ATOM     13  C   UNL d   1      53.464  32.508  53.866  0.00  0.00     0.016 A 
ATOM     14  C   UNL d   1      53.877  32.296  53.190  0.00  0.00     0.001 A 
ATOM     15  C   UNL d   1      53.996  31.498  52.997  0.00  0.00     0.000 A 
ATOM     16  C   UNL d   1      53.691  30.900  53.495  0.00  0.00     0.000 A 
ATOM     17  C   UNL d   1      53.274  31.106  54.176  0.00  0.00     0.000 A 
ATOM     18  C   UNL d   1      53.163  31.875  54.358  0.00  0.00     0.001 A 
ENDBRANCH   4  13
BRANCH   1  19
ATOM     19  C   UNL d   1      54.548  33.264  54.834  0.00  0.00     0.155 C 
BRANCH  19  20
ATOM     20  C   UNL d   1      55.123  33.688  55.251  0.00  0.00     0.230 C 
ATOM     21  O   UNL d   1      55.757  34.052  54.825  0.00  0.00    -0.643 OA
ATOM     22  O   UNL d   1      55.060  33.742  56.066  0.00  0.00    -0.643 OA
ENDBRANCH  19  20
ENDBRANCH   1  19
TORSDOF 3
ENDMDL
