MODEL 1
REMARK VINA RESULT:      -9.3      0.000      0.000
REMARK  4 active torsions:
REMARK  status: ('A' for Active; 'I' for Inactive)
REMARK    1  A    between atoms: S_10  and  C_3 
REMARK    2  A    between atoms: C_11  and  C_7 
REMARK    3  A    between atoms: C_13  and  S_10 
REMARK    4  A    between atoms: C_15  and  C_13 
ROOT
ATOM      1  N   UNL d   1      53.021  32.994  53.669  0.00  0.00    -0.186 N 
ATOM      2  N   UNL d   1      52.847  32.203  53.545  0.00  0.00    -0.162 NA
ATOM      3  C   UNL d   1      52.575  33.683  53.552  0.00  0.00     0.217 A 
ATOM      4  C   UNL d   1      53.758  33.223  53.966  0.00  0.00     0.187 A 
ATOM      5  N   UNL d   1      53.038  34.322  53.775  0.00  0.00    -0.120 NA
ATOM      6  N   UNL d   1      53.772  34.039  54.032  0.00  0.00    -0.127 NA
ATOM      7  C   UNL d   1      53.420  31.628  53.719  0.00  0.00     0.102 A 
ATOM      8  C   UNL d   1      54.329  32.644  54.139  0.00  0.00     0.042 A 
ATOM      9  C   UNL d   1      54.160  31.854  54.016  0.00  0.00     0.024 A 
ENDROOT
BRANCH   3  10
ATOM     10  S   UNL d   1      51.801  33.739  53.263  0.00  0.00    -0.046 SA
BRANCH  10  11
ATOM     11  C   UNL d   1      51.533  34.433  52.929  0.00  0.00     0.038 C 
BRANCH  11  12
ATOM     12  C   UNL d   1      50.806  34.455  52.553  0.00  0.00     0.007 A 
ATOM     13  C   UNL d   1      50.731  34.253  51.754  0.00  0.00     0.003 A 
ATOM     14  C   UNL d   1      49.988  34.278  51.380  0.00  0.00     0.030 A 
ATOM     15  C   UNL d   1      49.330  34.505  51.811  0.00  0.00     0.140 A 
ATOM     16  C   UNL d   1      49.383  34.709  52.606  0.00  0.00     0.030 A 
ATOM     17  F   UNL d   1      48.593  34.529  51.437  0.00  0.00    -0.204 F 
ATOM     18  C   UNL d   1      50.126  34.684  52.979  0.00  0.00     0.003 A 
ENDBRANCH  11  12
ENDBRANCH  10  11
ENDBRANCH   3  10
BRANCH   7  19
ATOM     19  C   UNL d   1      53.250  30.828  53.595  0.00  0.00     0.022 A 
ATOM     20  C   UNL d   1      53.381  30.288  54.193  0.00  0.00     0.022 A 
ATOM     21  C   UNL d   1      53.218  29.488  54.087  0.00  0.00     0.099 A 
ATOM     22  N   UNL d   1      52.910  29.237  53.339  0.00  0.00    -0.242 NA
ATOM     23  C   UNL d   1      52.780  29.781  52.741  0.00  0.00     0.099 A 
ATOM     24  C   UNL d   1      52.950  30.577  52.869  0.00  0.00     0.022 A 
ENDBRANCH   7  19
TORSDOF 4
ENDMDL
MODEL 2
REMARK VINA RESULT:      -9.3      1.933      4.394
REMARK  4 active torsions:
REMARK  status: ('A' for Active; 'I' for Inactive)
REMARK    1  A    between atoms: S_10  and  C_3 
REMARK    2  A    between atoms: C_11  and  C_7 
REMARK    3  A    between atoms: C_13  and  S_10 
REMARK    4  A    between atoms: C_15  and  C_13 
ROOT
ATOM      1  N   UNL d   1      53.159  33.639  54.161  0.00  0.00    -0.186 N 
ATOM      2  N   UNL d   1      52.475  33.646  53.711  0.00  0.00    -0.162 NA
ATOM      3  C   UNL d   1      53.595  33.018  54.496  0.00  0.00     0.217 A 
ATOM      4  C   UNL d   1      53.542  34.345  54.358  0.00  0.00     0.187 A 
ATOM      5  N   UNL d   1      54.234  33.346  54.891  0.00  0.00    -0.120 NA
ATOM      6  N   UNL d   1      54.203  34.168  54.807  0.00  0.00    -0.127 NA
ATOM      7  C   UNL d   1      52.165  34.371  53.451  0.00  0.00     0.102 A 
ATOM      8  C   UNL d   1      53.229  35.069  54.096  0.00  0.00     0.042 A 
ATOM      9  C   UNL d   1      52.546  35.080  53.646  0.00  0.00     0.024 A 
ENDROOT
BRANCH   3  10
ATOM     10  S   UNL d   1      53.432  32.208  54.452  0.00  0.00    -0.046 SA
BRANCH  10  11
ATOM     11  C   UNL d   1      53.858  31.727  53.950  0.00  0.00     0.038 C 
BRANCH  11  12
ATOM     12  C   UNL d   1      53.570  30.989  53.744  0.00  0.00     0.007 A 
ATOM     13  C   UNL d   1      53.611  30.351  54.270  0.00  0.00     0.003 A 
ATOM     14  C   UNL d   1      53.315  29.604  54.051  0.00  0.00     0.030 A 
ATOM     15  C   UNL d   1      52.982  29.506  53.310  0.00  0.00     0.140 A 
ATOM     16  C   UNL d   1      52.932  30.127  52.773  0.00  0.00     0.030 A 
ATOM     17  F   UNL d   1      52.689  28.763  53.096  0.00  0.00    -0.204 F 
ATOM     18  C   UNL d   1      53.227  30.873  52.991  0.00  0.00     0.003 A 
ENDBRANCH  11  12
ENDBRANCH  10  11
ENDBRANCH   3  10
BRANCH   7  19
ATOM     19  C   UNL d   1      51.475  34.384  52.996  0.00  0.00     0.022 A 
ATOM     20  C   UNL d   1      51.516  34.254  52.191  0.00  0.00     0.022 A 
ATOM     21  C   UNL d   1      50.839  34.263  51.723  0.00  0.00     0.099 A 
ATOM     22  N   UNL d   1      50.094  34.411  52.098  0.00  0.00    -0.242 NA
ATOM     23  C   UNL d   1      50.056  34.541  52.905  0.00  0.00     0.099 A 
ATOM     24  C   UNL d   1      50.746  34.527  53.355  0.00  0.00     0.022 A 
ENDBRANCH   7  19
TORSDOF 4
ENDMDL
MODEL 3
REMARK VINA RESULT:      -8.6      1.129      2.603
REMARK  4 active torsions:
REMARK  status: ('A' for Active; 'I' for Inactive)
REMARK    1  A    between atoms: S_10  and  C_3 
REMARK    2  A    between atoms: C_11  and  C_7 
REMARK    3  A    between atoms: C_13  and  S_10 
REMARK    4  A    between atoms: C_15  and  C_13 
ROOT
ATOM      1  N   UNL d   1      52.801  32.488  53.307  0.00  0.00    -0.186 N 
ATOM      2  N   UNL d   1      53.258  32.943  53.812  0.00  0.00    -0.162 NA
ATOM      3  C   UNL d   1      52.063  32.625  52.953  0.00  0.00     0.217 A 
ATOM      4  C   UNL d   1      53.058  31.741  53.062  0.00  0.00     0.187 A 
ATOM      5  N   UNL d   1      51.878  31.968  52.499  0.00  0.00    -0.120 NA
ATOM      6  N   UNL d   1      52.493  31.419  52.565  0.00  0.00    -0.127 NA
ATOM      7  C   UNL d   1      53.987  32.649  54.078  0.00  0.00     0.102 A 
ATOM      8  C   UNL d   1      53.789  31.450  53.331  0.00  0.00     0.042 A 
ATOM      9  C   UNL d   1      54.248  31.901  53.835  0.00  0.00     0.024 A 
ENDROOT
BRANCH   3  10
ATOM     10  S   UNL d   1      51.585  33.296  53.031  0.00  0.00    -0.046 SA
BRANCH  10  11
ATOM     11  C   UNL d   1      51.203  33.609  52.382  0.00  0.00     0.038 C 
BRANCH  11  12
ATOM     12  C   UNL d   1      50.554  34.098  52.483  0.00  0.00     0.007 A 
ATOM     13  C   UNL d   1      50.422  34.492  53.200  0.00  0.00     0.003 A 
ATOM     14  C   UNL d   1      49.760  34.987  53.294  0.00  0.00     0.030 A 
ATOM     15  C   UNL d   1      49.238  35.081  52.670  0.00  0.00     0.140 A 
ATOM     16  C   UNL d   1      49.351  34.699  51.950  0.00  0.00     0.030 A 
ATOM     17  F   UNL d   1      48.581  35.573  52.767  0.00  0.00    -0.204 F 
ATOM     18  C   UNL d   1      50.013  34.205  51.857  0.00  0.00     0.003 A 
ENDBRANCH  11  12
ENDBRANCH  10  11
ENDBRANCH   3  10
BRANCH   7  19
ATOM     19  C   UNL d   1      54.452  33.104  54.588  0.00  0.00     0.022 A 
ATOM     20  C   UNL d   1      54.287  33.115  55.388  0.00  0.00     0.022 A 
ATOM     21  C   UNL d   1      54.740  33.562  55.909  0.00  0.00     0.099 A 
ATOM     22  N   UNL d   1      55.385  34.013  55.596  0.00  0.00    -0.242 NA
ATOM     23  C   UNL d   1      55.548  34.000  54.794  0.00  0.00     0.099 A 
ATOM     24  C   UNL d   1      55.082  33.545  54.290  0.00  0.00     0.022 A 
ENDBRANCH   7  19
TORSDOF 4
ENDMDL
MODEL 4
REMARK VINA RESULT:      -7.5      2.646      4.718
REMARK  4 active torsions:
REMARK  status: ('A' for Active; 'I' for Inactive)
REMARK    1  A    between atoms: S_10  and  C_3 
REMARK    2  A    between atoms: C_11  and  C_7 
REMARK    3  A    between atoms: C_13  and  S_10 
REMARK    4  A    between atoms: C_15  and  C_13 
ROOT
ATOM      1  N   UNL d   1      52.974  32.500  53.247  0.00  0.00    -0.186 N 
ATOM      2  N   UNL d   1      53.578  32.670  53.774  0.00  0.00    -0.162 NA
ATOM      3  C   UNL d   1      52.720  31.787  52.908  0.00  0.00     0.217 A 
ATOM      4  C   UNL d   1      52.487  33.101  52.956  0.00  0.00     0.187 A 
ATOM      5  N   UNL d   1      52.085  31.957  52.418  0.00  0.00    -0.120 NA
ATOM      6  N   UNL d   1      51.939  32.771  52.446  0.00  0.00    -0.127 NA
ATOM      7  C   UNL d   1      53.700  33.454  54.016  0.00  0.00     0.102 A 
ATOM      8  C   UNL d   1      52.611  33.886  53.201  0.00  0.00     0.042 A 
ATOM      9  C   UNL d   1      53.213  34.059  53.727  0.00  0.00     0.024 A 
ENDROOT
BRANCH   3  10
ATOM     10  S   UNL d   1      53.035  31.032  53.030  0.00  0.00    -0.046 SA
BRANCH  10  11
ATOM     11  C   UNL d   1      52.563  30.426  53.304  0.00  0.00     0.038 C 
BRANCH  11  12
ATOM     12  C   UNL d   1      52.884  29.832  53.766  0.00  0.00     0.007 A 
ATOM     13  C   UNL d   1      53.480  29.336  53.473  0.00  0.00     0.003 A 
ATOM     14  C   UNL d   1      53.801  28.734  53.949  0.00  0.00     0.030 A 
ATOM     15  C   UNL d   1      53.521  28.636  54.713  0.00  0.00     0.140 A 
ATOM     16  C   UNL d   1      52.931  29.116  55.022  0.00  0.00     0.030 A 
ATOM     17  F   UNL d   1      53.843  28.036  55.183  0.00  0.00    -0.204 F 
ATOM     18  C   UNL d   1      52.610  29.718  54.546  0.00  0.00     0.003 A 
ENDBRANCH  11  12
ENDBRANCH  10  11
ENDBRANCH   3  10
BRANCH   7  19
ATOM     19  C   UNL d   1      54.308  33.631  54.548  0.00  0.00     0.022 A 
ATOM     20  C   UNL d   1      54.166  33.605  55.351  0.00  0.00     0.022 A 
ATOM     21  C   UNL d   1      54.759  33.778  55.894  0.00  0.00     0.099 A 
ATOM     22  N   UNL d   1      55.525  33.985  55.599  0.00  0.00    -0.242 NA
ATOM     23  C   UNL d   1      55.665  34.011  54.793  0.00  0.00     0.099 A 
ATOM     24  C   UNL d   1      55.056  33.834  54.267  0.00  0.00     0.022 A 
ENDBRANCH   7  19
TORSDOF 4
ENDMDL
MODEL 5
REMARK VINA RESULT:      -6.5      9.790     10.474
REMARK  4 active torsions:
REMARK  status: ('A' for Active; 'I' for Inactive)
REMARK    1  A    between atoms: S_10  and  C_3 
REMARK    2  A    between atoms: C_11  and  C_7 
REMARK    3  A    between atoms: C_13  and  S_10 
REMARK    4  A    between atoms: C_15  and  C_13 
ROOT
ATOM      1  N   UNL d   1      44.684  30.183  58.097  0.00  0.00    -0.186 N 
ATOM      2  N   UNL d   1      44.749  29.368  58.053  0.00  0.00    -0.162 NA
ATOM      3  C   UNL d   1      44.607  30.698  58.743  0.00  0.00     0.217 A 
ATOM      4  C   UNL d   1      44.691  30.646  57.412  0.00  0.00     0.187 A 
ATOM      5  N   UNL d   1      44.567  31.462  58.450  0.00  0.00    -0.120 NA
ATOM      6  N   UNL d   1      44.619  31.432  57.625  0.00  0.00    -0.127 NA
ATOM      7  C   UNL d   1      44.821  29.004  57.311  0.00  0.00     0.102 A 
ATOM      8  C   UNL d   1      44.764  30.278  56.669  0.00  0.00     0.042 A 
ATOM      9  C   UNL d   1      44.828  29.464  56.621  0.00  0.00     0.024 A 
ENDROOT
BRANCH   3  10
ATOM     10  S   UNL d   1      44.573  30.497  59.545  0.00  0.00    -0.046 SA
BRANCH  10  11
ATOM     11  C   UNL d   1      44.624  31.074  60.119  0.00  0.00     0.038 C 
BRANCH  11  12
ATOM     12  C   UNL d   1      44.613  30.869  60.911  0.00  0.00     0.007 A 
ATOM     13  C   UNL d   1      44.878  30.127  61.165  0.00  0.00     0.003 A 
ATOM     14  C   UNL d   1      44.863  29.927  61.973  0.00  0.00     0.030 A 
ATOM     15  C   UNL d   1      44.582  30.472  62.516  0.00  0.00     0.140 A 
ATOM     16  C   UNL d   1      44.314  31.214  62.284  0.00  0.00     0.030 A 
ATOM     17  F   UNL d   1      44.569  30.270  63.318  0.00  0.00    -0.204 F 
ATOM     18  C   UNL d   1      44.329  31.414  61.477  0.00  0.00     0.003 A 
ENDBRANCH  11  12
ENDBRANCH  10  11
ENDBRANCH   3  10
BRANCH   7  19
ATOM     19  C   UNL d   1      44.886  28.182  57.260  0.00  0.00     0.022 A 
ATOM     20  C   UNL d   1      44.507  27.781  56.659  0.00  0.00     0.022 A 
ATOM     21  C   UNL d   1      44.561  26.962  56.593  0.00  0.00     0.099 A 
ATOM     22  N   UNL d   1      45.022  26.543  57.166  0.00  0.00    -0.242 NA
ATOM     23  C   UNL d   1      45.401  26.948  57.768  0.00  0.00     0.099 A 
ATOM     24  C   UNL d   1      45.334  27.768  57.815  0.00  0.00     0.022 A 
ENDBRANCH   7  19
TORSDOF 4
ENDMDL
