MODEL 1
REMARK VINA RESULT:      -4.9      0.000      0.000
REMARK  5 active torsions:
REMARK  status: ('A' for Active; 'I' for Inactive)
REMARK    1  A    between atoms: C_2  and  C_1 
REMARK    2  A    between atoms: O_4  and  C_2 
REMARK    3  A    between atoms: C_9  and  O_4 
REMARK    4  A    between atoms: C_5  and  C_9 
REMARK    5  A    between atoms: C_12  and  C_5 
ROOT
ATOM      1  C   UNL d   1      57.323   0.223  31.227  0.00  0.00     0.168 C 
ENDROOT
BRANCH   1   2
ATOM      2  C   UNL d   1      57.299   0.229  32.057  0.00  0.00     0.220 C 
ATOM      3  O   UNL d   1      57.924   0.551  32.484  0.00  0.00    -0.284 OA
BRANCH   2   4
ATOM      4  C   UNL d   1      56.644  -0.090  32.446  0.00  0.00     0.041 A 
ATOM      5  C   UNL d   1      56.094   0.421  32.795  0.00  0.00     0.003 A 
ATOM      6  C   UNL d   1      55.442   0.106  33.182  0.00  0.00     0.000 A 
ATOM      7  C   UNL d   1      55.337  -0.709  33.223  0.00  0.00     0.000 A 
ATOM      8  C   UNL d   1      55.893  -1.214  32.871  0.00  0.00     0.000 A 
ATOM      9  C   UNL d   1      56.546  -0.898  32.483  0.00  0.00     0.003 A 
ENDBRANCH   2   4
ENDBRANCH   1   2
BRANCH   1  10
ATOM     10  O   UNL d   1      58.043   0.286  30.839  0.00  0.00    -0.267 OA
BRANCH  10  11
ATOM     11  C   UNL d   1      58.067   0.322  30.019  0.00  0.00     0.306 C 
ATOM     12  O   UNL d   1      57.404   0.557  29.594  0.00  0.00    -0.258 OA
BRANCH  11  13
ATOM     13  C   UNL d   1      58.763   0.121  29.618  0.00  0.00     0.093 A 
ATOM     14  S   UNL d   1      58.882  -0.556  29.163  0.00  0.00    -0.081 SA
ATOM     15  C   UNL d   1      59.649  -0.537  28.866  0.00  0.00     0.036 A 
ATOM     16  C   UNL d   1      60.011   0.156  29.138  0.00  0.00     0.008 A 
ATOM     17  C   UNL d   1      59.465   0.561  29.601  0.00  0.00     0.012 A 
ENDBRANCH  11  13
ENDBRANCH  10  11
ENDBRANCH   1  10
TORSDOF 5
ENDMDL
MODEL 2
REMARK VINA RESULT:      -4.4      1.279      4.240
REMARK  5 active torsions:
REMARK  status: ('A' for Active; 'I' for Inactive)
REMARK    1  A    between atoms: C_2  and  C_1 
REMARK    2  A    between atoms: O_4  and  C_2 
REMARK    3  A    between atoms: C_9  and  O_4 
REMARK    4  A    between atoms: C_5  and  C_9 
REMARK    5  A    between atoms: C_12  and  C_5 
ROOT
ATOM      1  C   UNL d   1      57.905   0.273  31.024  0.00  0.00     0.168 C 
ENDROOT
BRANCH   1   2
ATOM      2  C   UNL d   1      57.941   0.336  30.197  0.00  0.00     0.220 C 
ATOM      3  O   UNL d   1      57.319   0.682  29.785  0.00  0.00    -0.284 OA
BRANCH   2   4
ATOM      4  C   UNL d   1      58.603   0.048  29.796  0.00  0.00     0.041 A 
ATOM      5  C   UNL d   1      59.277   0.524  29.738  0.00  0.00     0.003 A 
ATOM      6  C   UNL d   1      59.937   0.241  29.340  0.00  0.00     0.000 A 
ATOM      7  C   UNL d   1      59.928  -0.510  29.004  0.00  0.00     0.000 A 
ATOM      8  C   UNL d   1      59.248  -0.981  29.067  0.00  0.00     0.000 A 
ATOM      9  C   UNL d   1      58.588  -0.696  29.465  0.00  0.00     0.003 A 
ENDBRANCH   2   4
ENDBRANCH   1   2
BRANCH   1  10
ATOM     10  O   UNL d   1      57.179   0.192  31.397  0.00  0.00    -0.267 OA
BRANCH  10  11
ATOM     11  C   UNL d   1      57.137   0.170  32.217  0.00  0.00     0.306 C 
ATOM     12  O   UNL d   1      57.743   0.489  32.672  0.00  0.00    -0.258 OA
BRANCH  11  13
ATOM     13  C   UNL d   1      56.481  -0.175  32.586  0.00  0.00     0.093 A 
ATOM     14  S   UNL d   1      55.900   0.223  33.013  0.00  0.00    -0.081 SA
ATOM     15  C   UNL d   1      55.354  -0.330  33.284  0.00  0.00     0.036 A 
ATOM     16  C   UNL d   1      55.596  -1.076  33.025  0.00  0.00     0.008 A 
ATOM     17  C   UNL d   1      56.290  -0.981  32.595  0.00  0.00     0.012 A 
ENDBRANCH  11  13
ENDBRANCH  10  11
ENDBRANCH   1  10
TORSDOF 5
ENDMDL
MODEL 3
REMARK VINA RESULT:      -3.4      1.551      4.263
REMARK  5 active torsions:
REMARK  status: ('A' for Active; 'I' for Inactive)
REMARK    1  A    between atoms: C_2  and  C_1 
REMARK    2  A    between atoms: O_4  and  C_2 
REMARK    3  A    between atoms: C_9  and  O_4 
REMARK    4  A    between atoms: C_5  and  C_9 
REMARK    5  A    between atoms: C_12  and  C_5 
ROOT
ATOM      1  C   UNL d   1      57.440  -0.050  31.050  0.00  0.00     0.168 C 
ENDROOT
BRANCH   1   2
ATOM      2  C   UNL d   1      58.194   0.226  30.838  0.00  0.00     0.220 C 
ATOM      3  O   UNL d   1      58.728   0.451  31.421  0.00  0.00    -0.284 OA
BRANCH   2   4
ATOM      4  C   UNL d   1      58.399   0.273  30.039  0.00  0.00     0.041 A 
ATOM      5  C   UNL d   1      59.116  -0.055  29.788  0.00  0.00     0.003 A 
ATOM      6  C   UNL d   1      59.323  -0.010  28.994  0.00  0.00     0.000 A 
ATOM      7  C   UNL d   1      58.822   0.356  28.455  0.00  0.00     0.000 A 
ATOM      8  C   UNL d   1      58.104   0.682  28.715  0.00  0.00     0.000 A 
ATOM      9  C   UNL d   1      57.898   0.637  29.510  0.00  0.00     0.003 A 
ENDBRANCH   2   4
ENDBRANCH   1   2
BRANCH   1  10
ATOM     10  O   UNL d   1      57.178   0.031  31.823  0.00  0.00    -0.267 OA
BRANCH  10  11
ATOM     11  C   UNL d   1      56.621  -0.491  32.125  0.00  0.00     0.306 C 
ATOM     12  O   UNL d   1      56.595  -1.269  31.862  0.00  0.00    -0.258 OA
BRANCH  11  13
ATOM     13  C   UNL d   1      56.082  -0.232  32.698  0.00  0.00     0.093 A 
ATOM     14  S   UNL d   1      55.811  -0.669  33.342  0.00  0.00    -0.081 SA
ATOM     15  C   UNL d   1      55.284  -0.202  33.769  0.00  0.00     0.036 A 
ATOM     16  C   UNL d   1      55.227   0.530  33.389  0.00  0.00     0.008 A 
ATOM     17  C   UNL d   1      55.718   0.512  32.730  0.00  0.00     0.012 A 
ENDBRANCH  11  13
ENDBRANCH  10  11
ENDBRANCH   1  10
TORSDOF 5
ENDMDL
