MODEL 1
REMARK VINA RESULT:      32.1      0.000      0.000
REMARK  3 active torsions:
REMARK  status: ('A' for Active; 'I' for Inactive)
REMARK    1  A    between atoms: C_7  and  C_1 
REMARK    2  A    between atoms: C_10  and  C_7 
REMARK    3  A    between atoms: N_8  and  C_9 
ROOT
ATOM      1  C   UNL d   1     -58.202 -98.821 -44.819  0.00  0.00     0.129 A 
ATOM      2  C   UNL d   1     -57.572 -98.825 -44.289  0.00  0.00     0.024 A 
ATOM      3  C   UNL d   1     -58.973 -98.801 -44.539  0.00  0.00     0.050 A 
ATOM      4  C   UNL d   1     -59.123 -98.786 -43.726  0.00  0.00     0.121 A 
ATOM      5  C   UNL d   1     -58.497 -98.790 -43.190  0.00  0.00     0.119 A 
ATOM      6  C   UNL d   1     -57.714 -98.809 -43.475  0.00  0.00     0.028 A 
ATOM      7  O   UNL d   1     -59.824 -98.765 -43.290  0.00  0.00    -0.299 OA
ATOM      8  O   UNL d   1     -58.803 -98.772 -42.431  0.00  0.00    -0.300 OA
ATOM      9  C   UNL d   1     -59.626 -98.756 -42.490  0.00  0.00     0.304 A 
ENDROOT
BRANCH   2  10
ATOM     10  C   UNL d   1     -56.804 -98.845 -44.573  0.00  0.00     0.011 C 
BRANCH  10  11
ATOM     11  C   UNL d   1     -56.340 -99.526 -44.456  0.00  0.00     0.116 A 
ATOM     12  C   UNL d   1     -55.516 -99.481 -44.525  0.00  0.00     0.288 A 
ATOM     13  N   UNL d   1     -55.057-100.149 -44.411  0.00  0.00    -0.152 NA
ATOM     14  O   UNL d   1     -55.158 -98.755 -44.712  0.00  0.00    -0.265 OA
ATOM     15  C   UNL d   1     -55.416-100.863 -44.227  0.00  0.00     0.374 A 
ATOM     16  N   UNL d   1     -56.239-100.908 -44.157  0.00  0.00    -0.152 NA
ATOM     17  O   UNL d   1     -54.956-101.544 -44.109  0.00  0.00    -0.242 OA
ATOM     18  C   UNL d   1     -56.699-100.239 -44.272  0.00  0.00     0.288 A 
ATOM     19  O   UNL d   1     -57.518-100.283 -44.203  0.00  0.00    -0.265 OA
ENDBRANCH  10  11
ENDBRANCH   2  10
BRANCH   1  20
ATOM     20  N   UNL d   1     -58.058 -98.836 -45.625  0.00  0.00    -0.114 N 
ATOM     21  O   UNL d   1     -58.684 -98.931 -46.156  0.00  0.00    -0.532 OA
ATOM     22  O   UNL d   1     -57.292 -98.757 -45.908  0.00  0.00    -0.532 OA
ENDBRANCH   1  20
TORSDOF 3
ENDMDL
