MODEL 1
REMARK VINA RESULT:      -7.6      0.000      0.000
REMARK  3 active torsions:
REMARK  status: ('A' for Active; 'I' for Inactive)
REMARK    1  A    between atoms: C_2  and  C_1 
REMARK    2  A    between atoms: C_3  and  C_2 
REMARK    3  A    between atoms: C_8  and  C_2 
ROOT
ATOM      1  C   UNL d   1     -48.720  12.940  22.659  0.00  0.00     0.018 C 
ENDROOT
BRANCH   1   2
ATOM      2  C   UNL d   1     -49.333  13.444  22.412  0.00  0.00     0.078 A 
ATOM      3  C   UNL d   1     -49.685  14.030  23.002  0.00  0.00     0.195 A 
ATOM      4  C   UNL d   1     -50.271  14.481  22.690  0.00  0.00     0.019 A 
ATOM      5  O   UNL d   1     -49.526  14.138  23.657  0.00  0.00    -0.287 OA
ATOM      6  C   UNL d   1     -50.546  14.439  21.915  0.00  0.00     0.043 A 
ATOM      7  C   UNL d   1     -50.218  13.901  21.386  0.00  0.00     0.019 A 
ATOM      8  C   UNL d   1     -51.064  14.711  21.324  0.00  0.00     0.009 C 
ATOM      9  C   UNL d   1     -51.000  15.033  22.277  0.00  0.00     0.009 C 
ATOM     10  C   UNL d   1     -49.611  13.404  21.635  0.00  0.00     0.195 A 
ATOM     11  O   UNL d   1     -49.282  12.861  21.097  0.00  0.00    -0.287 OA
ENDBRANCH   1   2
BRANCH   1  12
ATOM     12  C   UNL d   1     -47.930  13.187  22.599  0.00  0.00     0.078 A 
ATOM     13  C   UNL d   1     -47.506  13.059  21.915  0.00  0.00     0.195 A 
ATOM     14  C   UNL d   1     -46.726  13.302  21.853  0.00  0.00     0.019 A 
ATOM     15  O   UNL d   1     -47.877  12.674  21.272  0.00  0.00    -0.287 OA
ATOM     16  C   UNL d   1     -46.361  13.679  22.482  0.00  0.00     0.043 A 
ATOM     17  C   UNL d   1     -46.781  13.817  23.184  0.00  0.00     0.019 A 
ATOM     18  C   UNL d   1     -45.610  13.996  22.628  0.00  0.00     0.009 C 
ATOM     19  C   UNL d   1     -45.732  13.680  21.944  0.00  0.00     0.009 C 
ATOM     20  C   UNL d   1     -47.571  13.569  23.244  0.00  0.00     0.195 A 
ATOM     21  O   UNL d   1     -47.797  13.667  23.682  0.00  0.00    -0.287 OA
ENDBRANCH   1  12
BRANCH   1  22
ATOM     22  C   UNL d   1     -48.891  12.202  22.960  0.00  0.00     0.030 A 
ATOM     23  S   UNL d   1     -49.175  11.953  23.697  0.00  0.00    -0.086 SA
ATOM     24  C   UNL d   1     -49.241  11.136  23.683  0.00  0.00     0.035 A 
ATOM     25  C   UNL d   1     -49.004  10.868  22.951  0.00  0.00     0.007 A 
ATOM     26  C   UNL d   1     -48.789  11.525  22.505  0.00  0.00     0.007 A 
ENDBRANCH   1  22
TORSDOF 3
ENDMDL
MODEL 2
REMARK VINA RESULT:      -7.2      1.335      3.322
REMARK  3 active torsions:
REMARK  status: ('A' for Active; 'I' for Inactive)
REMARK    1  A    between atoms: C_2  and  C_1 
REMARK    2  A    between atoms: C_3  and  C_2 
REMARK    3  A    between atoms: C_8  and  C_2 
ROOT
ATOM      1  C   UNL d   1     -48.669  13.043  22.409  0.00  0.00     0.018 C 
ENDROOT
BRANCH   1   2
ATOM      2  C   UNL d   1     -47.909  12.828  22.666  0.00  0.00     0.078 A 
ATOM      3  C   UNL d   1     -47.188  13.171  22.244  0.00  0.00     0.195 A 
ATOM      4  C   UNL d   1     -46.491  12.916  22.549  0.00  0.00     0.019 A 
ATOM      5  O   UNL d   1     -47.157  13.604  21.717  0.00  0.00    -0.287 OA
ATOM      6  C   UNL d   1     -46.407  12.396  23.182  0.00  0.00     0.043 A 
ATOM      7  C   UNL d   1     -47.071  12.089  23.559  0.00  0.00     0.019 A 
ATOM      8  C   UNL d   1     -45.912  11.969  23.697  0.00  0.00     0.009 C 
ATOM      9  C   UNL d   1     -45.633  12.583  22.948  0.00  0.00     0.009 C 
ATOM     10  C   UNL d   1     -47.822  12.306  23.301  0.00  0.00     0.195 A 
ATOM     11  O   UNL d   1     -48.491  11.994  23.685  0.00  0.00    -0.287 OA
ENDBRANCH   1   2
BRANCH   1  12
ATOM     12  C   UNL d   1     -49.020  13.741  22.691  0.00  0.00     0.078 A 
ATOM     13  C   UNL d   1     -48.957  14.436  22.270  0.00  0.00     0.195 A 
ATOM     14  C   UNL d   1     -49.302  15.126  22.545  0.00  0.00     0.019 A 
ATOM     15  O   UNL d   1     -48.533  14.439  21.550  0.00  0.00    -0.287 OA
ATOM     16  C   UNL d   1     -49.717  15.125  23.251  0.00  0.00     0.043 A 
ATOM     17  C   UNL d   1     -49.790  14.425  23.690  0.00  0.00     0.019 A 
ATOM     18  C   UNL d   1     -50.129  15.689  23.697  0.00  0.00     0.009 C 
ATOM     19  C   UNL d   1     -49.807  15.922  23.046  0.00  0.00     0.009 C 
ATOM     20  C   UNL d   1     -49.439  13.727  23.409  0.00  0.00     0.195 A 
ATOM     21  O   UNL d   1     -49.500  13.321  23.697  0.00  0.00    -0.287 OA
ENDBRANCH   1  12
BRANCH   1  22
ATOM     22  C   UNL d   1     -49.073  12.572  21.880  0.00  0.00     0.030 A 
ATOM     23  S   UNL d   1     -49.041  12.505  21.056  0.00  0.00    -0.086 SA
ATOM     24  C   UNL d   1     -49.581  11.933  20.824  0.00  0.00     0.035 A 
ATOM     25  C   UNL d   1     -49.951  11.640  21.489  0.00  0.00     0.007 A 
ATOM     26  C   UNL d   1     -49.638  12.034  22.139  0.00  0.00     0.007 A 
ENDBRANCH   1  22
TORSDOF 3
ENDMDL
MODEL 3
REMARK VINA RESULT:      -7.1      0.403      3.190
REMARK  3 active torsions:
REMARK  status: ('A' for Active; 'I' for Inactive)
REMARK    1  A    between atoms: C_2  and  C_1 
REMARK    2  A    between atoms: C_3  and  C_2 
REMARK    3  A    between atoms: C_8  and  C_2 
ROOT
ATOM      1  C   UNL d   1     -48.478  12.833  22.553  0.00  0.00     0.018 C 
ENDROOT
BRANCH   1   2
ATOM      2  C   UNL d   1     -47.725  13.181  22.516  0.00  0.00     0.078 A 
ATOM      3  C   UNL d   1     -47.486  13.781  23.148  0.00  0.00     0.195 A 
ATOM      4  C   UNL d   1     -46.746  14.072  23.045  0.00  0.00     0.019 A 
ATOM      5  O   UNL d   1     -47.839  14.012  23.685  0.00  0.00    -0.287 OA
ATOM      6  C   UNL d   1     -46.231  13.866  22.436  0.00  0.00     0.043 A 
ATOM      7  C   UNL d   1     -46.459  13.319  21.866  0.00  0.00     0.019 A 
ATOM      8  C   UNL d   1     -45.492  13.953  22.064  0.00  0.00     0.009 C 
ATOM      9  C   UNL d   1     -45.817  14.422  22.895  0.00  0.00     0.009 C 
ATOM     10  C   UNL d   1     -47.207  12.977  21.906  0.00  0.00     0.195 A 
ATOM     11  O   UNL d   1     -47.434  12.424  21.328  0.00  0.00    -0.287 OA
ENDBRANCH   1   2
BRANCH   1  12
ATOM     12  C   UNL d   1     -49.135  13.230  22.235  0.00  0.00     0.078 A 
ATOM     13  C   UNL d   1     -49.626  13.669  22.714  0.00  0.00     0.195 A 
ATOM     14  C   UNL d   1     -50.274  14.061  22.404  0.00  0.00     0.019 A 
ATOM     15  O   UNL d   1     -49.461  13.716  23.533  0.00  0.00    -0.287 OA
ATOM     16  C   UNL d   1     -50.437  14.016  21.602  0.00  0.00     0.043 A 
ATOM     17  C   UNL d   1     -49.946  13.573  21.102  0.00  0.00     0.019 A 
ATOM     18  C   UNL d   1     -51.018  14.323  21.098  0.00  0.00     0.009 C 
ATOM     19  C   UNL d   1     -51.064  14.502  21.838  0.00  0.00     0.009 C 
ATOM     20  C   UNL d   1     -49.289  13.176  21.420  0.00  0.00     0.195 A 
ATOM     21  O   UNL d   1     -49.012  12.917  21.092  0.00  0.00    -0.287 OA
ENDBRANCH   1  12
BRANCH   1  22
ATOM     22  C   UNL d   1     -48.577  12.102  22.901  0.00  0.00     0.030 A 
ATOM     23  S   UNL d   1     -48.782  11.874  23.670  0.00  0.00    -0.086 SA
ATOM     24  C   UNL d   1     -48.797  11.054  23.698  0.00  0.00     0.035 A 
ATOM     25  C   UNL d   1     -48.604  10.765  22.960  0.00  0.00     0.007 A 
ATOM     26  C   UNL d   1     -48.469  11.410  22.470  0.00  0.00     0.007 A 
ENDBRANCH   1  22
TORSDOF 3
ENDMDL
MODEL 4
REMARK VINA RESULT:      -6.7      9.401     10.520
REMARK  3 active torsions:
REMARK  status: ('A' for Active; 'I' for Inactive)
REMARK    1  A    between atoms: C_2  and  C_1 
REMARK    2  A    between atoms: C_3  and  C_2 
REMARK    3  A    between atoms: C_8  and  C_2 
ROOT
ATOM      1  C   UNL d   1     -39.045  14.408  18.180  0.00  0.00     0.018 C 
ENDROOT
BRANCH   1   2
ATOM      2  C   UNL d   1     -39.668  14.742  17.744  0.00  0.00     0.078 A 
ATOM      3  C   UNL d   1     -40.517  14.492  17.926  0.00  0.00     0.195 A 
ATOM      4  C   UNL d   1     -41.061  14.857  17.463  0.00  0.00     0.019 A 
ATOM      5  O   UNL d   1     -40.750  14.048  18.389  0.00  0.00    -0.287 OA
ATOM      6  C   UNL d   1     -40.897  15.408  16.874  0.00  0.00     0.043 A 
ATOM      7  C   UNL d   1     -40.120  15.628  16.717  0.00  0.00     0.019 A 
ATOM      8  C   UNL d   1     -41.168  15.921  16.278  0.00  0.00     0.009 C 
ATOM      9  C   UNL d   1     -41.723  15.326  16.873  0.00  0.00     0.009 C 
ATOM     10  C   UNL d   1     -39.506  15.295  17.152  0.00  0.00     0.195 A 
ATOM     11  O   UNL d   1     -38.722  15.521  16.989  0.00  0.00    -0.287 OA
ENDBRANCH   1   2
BRANCH   1  12
ATOM     12  C   UNL d   1     -38.803  14.759  18.892  0.00  0.00     0.078 A 
ATOM     13  C   UNL d   1     -39.153  14.551  19.598  0.00  0.00     0.195 A 
ATOM     14  C   UNL d   1     -38.916  14.895  20.302  0.00  0.00     0.019 A 
ATOM     15  O   UNL d   1     -39.760  13.977  19.597  0.00  0.00    -0.287 OA
ATOM     16  C   UNL d   1     -38.320  15.458  20.305  0.00  0.00     0.043 A 
ATOM     17  C   UNL d   1     -37.955  15.681  19.594  0.00  0.00     0.019 A 
ATOM     18  C   UNL d   1     -37.940  15.916  20.881  0.00  0.00     0.009 C 
ATOM     19  C   UNL d   1     -38.488  15.439  21.115  0.00  0.00     0.009 C 
ATOM     20  C   UNL d   1     -38.198  15.329  18.882  0.00  0.00     0.195 A 
ATOM     21  O   UNL d   1     -37.958  15.485  18.469  0.00  0.00    -0.287 OA
ENDBRANCH   1  12
BRANCH   1  22
ATOM     22  C   UNL d   1     -38.670  13.736  17.913  0.00  0.00     0.030 A 
ATOM     23  S   UNL d   1     -38.134  13.605  17.295  0.00  0.00    -0.086 SA
ATOM     24  C   UNL d   1     -37.942  12.808  17.287  0.00  0.00     0.035 A 
ATOM     25  C   UNL d   1     -38.347  12.436  17.888  0.00  0.00     0.007 A 
ATOM     26  C   UNL d   1     -38.796  13.008  18.274  0.00  0.00     0.007 A 
ENDBRANCH   1  22
TORSDOF 3
ENDMDL
MODEL 5
REMARK VINA RESULT:      -6.1      8.986     10.319
REMARK  3 active torsions:
REMARK  status: ('A' for Active; 'I' for Inactive)
REMARK    1  A    between atoms: C_2  and  C_1 
REMARK    2  A    between atoms: C_3  and  C_2 
REMARK    3  A    between atoms: C_8  and  C_2 
ROOT
ATOM      1  C   UNL d   1     -39.975  14.748  18.046  0.00  0.00     0.018 C 
ENDROOT
BRANCH   1   2
ATOM      2  C   UNL d   1     -39.877  14.987  18.836  0.00  0.00     0.078 A 
ATOM      3  C   UNL d   1     -40.415  14.639  19.472  0.00  0.00     0.195 A 
ATOM      4  C   UNL d   1     -40.259  14.918  20.207  0.00  0.00     0.019 A 
ATOM      5  O   UNL d   1     -40.922  14.185  19.413  0.00  0.00    -0.287 OA
ATOM      6  C   UNL d   1     -39.674  15.466  20.397  0.00  0.00     0.043 A 
ATOM      7  C   UNL d   1     -39.189  15.776  19.810  0.00  0.00     0.019 A 
ATOM      8  C   UNL d   1     -39.280  15.922  20.971  0.00  0.00     0.009 C 
ATOM      9  C   UNL d   1     -40.044  15.282  21.118  0.00  0.00     0.009 C 
ATOM     10  C   UNL d   1     -39.290  15.537  19.029  0.00  0.00     0.195 A 
ATOM     11  O   UNL d   1     -38.798  15.854  18.438  0.00  0.00    -0.287 OA
ENDBRANCH   1   2
BRANCH   1  12
ATOM     12  C   UNL d   1     -39.499  14.144  17.733  0.00  0.00     0.078 A 
ATOM     13  C   UNL d   1     -38.928  14.313  17.177  0.00  0.00     0.195 A 
ATOM     14  C   UNL d   1     -38.457  13.719  16.866  0.00  0.00     0.019 A 
ATOM     15  O   UNL d   1     -38.826  15.103  16.925  0.00  0.00    -0.287 OA
ATOM     16  C   UNL d   1     -38.556  12.944  17.112  0.00  0.00     0.043 A 
ATOM     17  C   UNL d   1     -39.134  12.758  17.678  0.00  0.00     0.019 A 
ATOM     18  C   UNL d   1     -38.202  12.216  16.935  0.00  0.00     0.009 C 
ATOM     19  C   UNL d   1     -37.940  12.833  16.571  0.00  0.00     0.009 C 
ATOM     20  C   UNL d   1     -39.610  13.362  17.991  0.00  0.00     0.195 A 
ATOM     21  O   UNL d   1     -39.950  13.217  18.331  0.00  0.00    -0.287 OA
ENDBRANCH   1  12
BRANCH   1  22
ATOM     22  C   UNL d   1     -40.538  15.105  17.576  0.00  0.00     0.030 A 
ATOM     23  S   UNL d   1     -40.651  15.891  17.341  0.00  0.00    -0.086 SA
ATOM     24  C   UNL d   1     -41.316  15.922  16.862  0.00  0.00     0.035 A 
ATOM     25  C   UNL d   1     -41.622  15.169  16.793  0.00  0.00     0.007 A 
ATOM     26  C   UNL d   1     -41.143  14.666  17.233  0.00  0.00     0.007 A 
ENDBRANCH   1  22
TORSDOF 3
ENDMDL
MODEL 6
REMARK VINA RESULT:      -5.5      8.922     10.438
REMARK  3 active torsions:
REMARK  status: ('A' for Active; 'I' for Inactive)
REMARK    1  A    between atoms: C_2  and  C_1 
REMARK    2  A    between atoms: C_3  and  C_2 
REMARK    3  A    between atoms: C_8  and  C_2 
ROOT
ATOM      1  C   UNL d   1     -40.030  14.856  18.053  0.00  0.00     0.018 C 
ENDROOT
BRANCH   1   2
ATOM      2  C   UNL d   1     -39.543  14.275  17.713  0.00  0.00     0.078 A 
ATOM      3  C   UNL d   1     -38.882  14.527  17.151  0.00  0.00     0.195 A 
ATOM      4  C   UNL d   1     -38.457  13.911  16.865  0.00  0.00     0.019 A 
ATOM      5  O   UNL d   1     -38.702  15.153  16.945  0.00  0.00    -0.287 OA
ATOM      6  C   UNL d   1     -38.584  13.117  17.044  0.00  0.00     0.043 A 
ATOM      7  C   UNL d   1     -39.189  12.899  17.556  0.00  0.00     0.019 A 
ATOM      8  C   UNL d   1     -38.371  12.319  16.947  0.00  0.00     0.009 C 
ATOM      9  C   UNL d   1     -37.940  13.123  16.520  0.00  0.00     0.009 C 
ATOM     10  C   UNL d   1     -39.669  13.478  17.891  0.00  0.00     0.195 A 
ATOM     11  O   UNL d   1     -40.280  13.252  18.409  0.00  0.00    -0.287 OA
ENDBRANCH   1   2
BRANCH   1  12
ATOM     12  C   UNL d   1     -39.909  15.091  18.840  0.00  0.00     0.078 A 
ATOM     13  C   UNL d   1     -40.346  14.761  19.443  0.00  0.00     0.195 A 
ATOM     14  C   UNL d   1     -40.228  14.990  20.220  0.00  0.00     0.019 A 
ATOM     15  O   UNL d   1     -40.920  14.181  19.260  0.00  0.00    -0.287 OA
ATOM     16  C   UNL d   1     -39.666  15.557  20.402  0.00  0.00     0.043 A 
ATOM     17  C   UNL d   1     -39.214  15.902  19.797  0.00  0.00     0.019 A 
ATOM     18  C   UNL d   1     -39.394  15.922  21.094  0.00  0.00     0.009 C 
ATOM     19  C   UNL d   1     -39.947  15.401  21.164  0.00  0.00     0.009 C 
ATOM     20  C   UNL d   1     -39.335  15.668  19.010  0.00  0.00     0.195 A 
ATOM     21  O   UNL d   1     -39.046  15.894  18.669  0.00  0.00    -0.287 OA
ENDBRANCH   1  12
BRANCH   1  22
ATOM     22  C   UNL d   1     -40.628  15.198  17.616  0.00  0.00     0.030 A 
ATOM     23  S   UNL d   1     -41.452  15.195  17.701  0.00  0.00    -0.086 SA
ATOM     24  C   UNL d   1     -41.774  15.639  17.091  0.00  0.00     0.035 A 
ATOM     25  C   UNL d   1     -41.166  15.921  16.626  0.00  0.00     0.007 A 
ATOM     26  C   UNL d   1     -40.461  15.649  16.950  0.00  0.00     0.007 A 
ENDBRANCH   1  22
TORSDOF 3
ENDMDL
MODEL 7
REMARK VINA RESULT:      -5.4      7.973     10.043
REMARK  3 active torsions:
REMARK  status: ('A' for Active; 'I' for Inactive)
REMARK    1  A    between atoms: C_2  and  C_1 
REMARK    2  A    between atoms: C_3  and  C_2 
REMARK    3  A    between atoms: C_8  and  C_2 
ROOT
ATOM      1  C   UNL d   1     -39.640  14.779  20.520  0.00  0.00     0.018 C 
ENDROOT
BRANCH   1   2
ATOM      2  C   UNL d   1     -39.300  14.688  19.768  0.00  0.00     0.078 A 
ATOM      3  C   UNL d   1     -39.515  13.964  19.272  0.00  0.00     0.195 A 
ATOM      4  C   UNL d   1     -39.147  13.947  18.560  0.00  0.00     0.019 A 
ATOM      5  O   UNL d   1     -39.934  13.446  19.418  0.00  0.00    -0.287 OA
ATOM      6  C   UNL d   1     -38.622  14.516  18.279  0.00  0.00     0.043 A 
ATOM      7  C   UNL d   1     -38.434  15.171  18.739  0.00  0.00     0.019 A 
ATOM      8  C   UNL d   1     -38.119  14.789  17.675  0.00  0.00     0.009 C 
ATOM      9  C   UNL d   1     -38.675  13.948  17.674  0.00  0.00     0.009 C 
ATOM     10  C   UNL d   1     -38.773  15.258  19.483  0.00  0.00     0.195 A 
ATOM     11  O   UNL d   1     -38.580  15.922  19.945  0.00  0.00    -0.287 OA
ENDBRANCH   1   2
BRANCH   1  12
ATOM     12  C   UNL d   1     -39.231  14.521  21.195  0.00  0.00     0.078 A 
ATOM     13  C   UNL d   1     -38.808  15.048  21.650  0.00  0.00     0.195 A 
ATOM     14  C   UNL d   1     -38.403  14.797  22.316  0.00  0.00     0.019 A 
ATOM     15  O   UNL d   1     -38.791  15.854  21.430  0.00  0.00    -0.287 OA
ATOM     16  C   UNL d   1     -38.419  14.007  22.533  0.00  0.00     0.043 A 
ATOM     17  C   UNL d   1     -38.845  13.459  22.079  0.00  0.00     0.019 A 
ATOM     18  C   UNL d   1     -38.092  13.554  23.146  0.00  0.00     0.009 C 
ATOM     19  C   UNL d   1     -37.940  14.302  23.141  0.00  0.00     0.009 C 
ATOM     20  C   UNL d   1     -39.255  13.717  21.405  0.00  0.00     0.195 A 
ATOM     21  O   UNL d   1     -39.503  13.362  21.151  0.00  0.00    -0.287 OA
ENDBRANCH   1  12
BRANCH   1  22
ATOM     22  C   UNL d   1     -40.376  15.122  20.600  0.00  0.00     0.030 A 
ATOM     23  S   UNL d   1     -40.627  15.911  20.600  0.00  0.00    -0.086 SA
ATOM     24  C   UNL d   1     -41.440  15.922  20.703  0.00  0.00     0.035 A 
ATOM     25  C   UNL d   1     -41.704  15.153  20.768  0.00  0.00     0.007 A 
ATOM     26  C   UNL d   1     -41.049  14.661  20.705  0.00  0.00     0.007 A 
ENDBRANCH   1  22
TORSDOF 3
ENDMDL
MODEL 8
REMARK VINA RESULT:      -5.0      9.407     10.478
REMARK  3 active torsions:
REMARK  status: ('A' for Active; 'I' for Inactive)
REMARK    1  A    between atoms: C_2  and  C_1 
REMARK    2  A    between atoms: C_3  and  C_2 
REMARK    3  A    between atoms: C_8  and  C_2 
ROOT
ATOM      1  C   UNL d   1     -39.129  14.323  18.190  0.00  0.00     0.018 C 
ENDROOT
BRANCH   1   2
ATOM      2  C   UNL d   1     -39.732  14.680  17.743  0.00  0.00     0.078 A 
ATOM      3  C   UNL d   1     -39.510  15.256  17.084  0.00  0.00     0.195 A 
ATOM      4  C   UNL d   1     -40.145  15.558  16.699  0.00  0.00     0.019 A 
ATOM      5  O   UNL d   1     -38.893  15.463  16.876  0.00  0.00    -0.287 OA
ATOM      6  C   UNL d   1     -40.933  15.382  16.863  0.00  0.00     0.043 A 
ATOM      7  C   UNL d   1     -41.124  14.855  17.466  0.00  0.00     0.019 A 
ATOM      8  C   UNL d   1     -41.740  15.490  16.695  0.00  0.00     0.009 C 
ATOM      9  C   UNL d   1     -40.956  15.922  16.233  0.00  0.00     0.009 C 
ATOM     10  C   UNL d   1     -40.523  14.504  17.906  0.00  0.00     0.195 A 
ATOM     11  O   UNL d   1     -40.721  13.973  18.514  0.00  0.00    -0.287 OA
ENDBRANCH   1   2
BRANCH   1  12
ATOM     12  C   UNL d   1     -38.904  14.651  18.919  0.00  0.00     0.078 A 
ATOM     13  C   UNL d   1     -38.337  15.235  18.953  0.00  0.00     0.195 A 
ATOM     14  C   UNL d   1     -38.113  15.561  19.670  0.00  0.00     0.019 A 
ATOM     15  O   UNL d   1     -37.984  15.502  18.244  0.00  0.00    -0.287 OA
ATOM     16  C   UNL d   1     -38.457  15.300  20.366  0.00  0.00     0.043 A 
ATOM     17  C   UNL d   1     -39.036  14.705  20.346  0.00  0.00     0.019 A 
ATOM     18  C   UNL d   1     -38.382  15.485  21.170  0.00  0.00     0.009 C 
ATOM     19  C   UNL d   1     -37.943  15.868  20.678  0.00  0.00     0.009 C 
ATOM     20  C   UNL d   1     -39.261  14.378  19.618  0.00  0.00     0.195 A 
ATOM     21  O   UNL d   1     -39.613  14.020  19.639  0.00  0.00    -0.287 OA
ENDBRANCH   1  12
BRANCH   1  22
ATOM     22  C   UNL d   1     -38.757  13.651  17.916  0.00  0.00     0.030 A 
ATOM     23  S   UNL d   1     -38.014  13.527  17.571  0.00  0.00    -0.086 SA
ATOM     24  C   UNL d   1     -37.940  12.727  17.406  0.00  0.00     0.035 A 
ATOM     25  C   UNL d   1     -38.622  12.348  17.641  0.00  0.00     0.007 A 
ATOM     26  C   UNL d   1     -39.125  12.918  17.955  0.00  0.00     0.007 A 
ENDBRANCH   1  22
TORSDOF 3
ENDMDL
