MODEL 1
REMARK VINA RESULT:      -3.1      0.000      0.000
REMARK  5 active torsions:
REMARK  status: ('A' for Active; 'I' for Inactive)
REMARK    1  A    between atoms: O_8  and  C_7 
REMARK    2  A    between atoms: C_10  and  O_8 
REMARK    3  A    between atoms: C_9  and  C_10 
REMARK    4  A    between atoms: O_17  and  C_9 
REMARK    5  A    between atoms: C_21  and  O_17 
ROOT
ATOM      1  C   UNL d   1      30.292  16.976 -24.396  0.00  0.00     0.009 A 
ATOM      2  C   UNL d   1      30.937  16.594 -24.067  0.00  0.00     0.046 A 
ATOM      3  C   UNL d   1      29.549  16.612 -24.389  0.00  0.00     0.064 A 
ATOM      4  C   UNL d   1      29.462  15.872 -24.054  0.00  0.00     0.300 A 
ATOM      5  C   UNL d   1      30.850  15.853 -23.732  0.00  0.00     0.105 A 
ATOM      6  O   UNL d   1      30.116  15.489 -23.723  0.00  0.00    -0.273 OA
ATOM      7  C   UNL d   1      31.676  16.965 -24.078  0.00  0.00     0.102 A 
ATOM      8  C   UNL d   1      31.512  15.471 -23.400  0.00  0.00     0.025 A 
ATOM      9  C   UNL d   1      32.329  16.575 -23.744  0.00  0.00     0.025 A 
ATOM     10  O   UNL d   1      28.711  15.499 -24.045  0.00  0.00    -0.259 OA
ATOM     11  C   UNL d   1      32.242  15.835 -23.409  0.00  0.00     0.004 A 
ATOM     12  C   UNL d   1      30.380  17.723 -24.734  0.00  0.00     0.000 A 
ATOM     13  C   UNL d   1      28.899  16.994 -24.718  0.00  0.00     0.005 A 
ATOM     14  C   UNL d   1      32.900  15.453 -23.078  0.00  0.00     0.000 C 
ATOM     15  C   UNL d   1      29.731  18.117 -25.069  0.00  0.00     0.000 A 
ATOM     16  C   UNL d   1      28.987  17.741 -25.056  0.00  0.00     0.000 A 
ENDROOT
BRANCH   7  17
ATOM     17  O   UNL d   1      31.763  17.705 -24.413  0.00  0.00    -0.302 OA
BRANCH  17  18
ATOM     18  C   UNL d   1      32.514  17.973 -24.634  0.00  0.00     0.163 C 
ATOM     19  C   UNL d   1      33.019  17.473 -25.069  0.00  0.00     0.032 C 
BRANCH  18  20
ATOM     20  C   UNL d   1      32.760  18.730 -24.422  0.00  0.00     0.323 C 
ATOM     21  O   UNL d   1      32.813  19.316 -24.989  0.00  0.00    -0.257 OA
BRANCH  20  22
ATOM     22  O   UNL d   1      32.950  18.883 -23.633  0.00  0.00    -0.270 OA
BRANCH  22  23
ATOM     23  C   UNL d   1      33.211  19.645 -23.415  0.00  0.00     0.126 C 
ATOM     24  C   UNL d   1      33.225  19.859 -22.632  0.00  0.00     0.029 C 
ENDBRANCH  22  23
ENDBRANCH  20  22
ENDBRANCH  18  20
ENDBRANCH  17  18
ENDBRANCH   7  17
TORSDOF 5
ENDMDL
MODEL 2
REMARK VINA RESULT:      -1.1      3.498      5.595
REMARK  5 active torsions:
REMARK  status: ('A' for Active; 'I' for Inactive)
REMARK    1  A    between atoms: O_8  and  C_7 
REMARK    2  A    between atoms: C_10  and  O_8 
REMARK    3  A    between atoms: C_9  and  C_10 
REMARK    4  A    between atoms: O_17  and  C_9 
REMARK    5  A    between atoms: C_21  and  O_17 
ROOT
ATOM      1  C   UNL d   1      33.166  20.541 -23.183  0.00  0.00     0.009 A 
ATOM      2  C   UNL d   1      33.185  21.237 -23.615  0.00  0.00     0.046 A 
ATOM      3  C   UNL d   1      33.173  19.813 -23.574  0.00  0.00     0.064 A 
ATOM      4  C   UNL d   1      33.198  19.789 -24.390  0.00  0.00     0.300 A 
ATOM      5  C   UNL d   1      33.210  21.213 -24.431  0.00  0.00     0.105 A 
ATOM      6  O   UNL d   1      33.217  20.493 -24.822  0.00  0.00    -0.273 OA
ATOM      7  C   UNL d   1      33.178  21.961 -23.216  0.00  0.00     0.102 A 
ATOM      8  C   UNL d   1      33.229  21.925 -24.864  0.00  0.00     0.025 A 
ATOM      9  C   UNL d   1      33.197  22.665 -23.657  0.00  0.00     0.025 A 
ATOM     10  O   UNL d   1      33.205  19.052 -24.789  0.00  0.00    -0.259 OA
ATOM     11  C   UNL d   1      33.222  22.641 -24.473  0.00  0.00     0.004 A 
ATOM     12  C   UNL d   1      33.141  20.566 -22.359  0.00  0.00     0.000 A 
ATOM     13  C   UNL d   1      33.154  19.112 -23.141  0.00  0.00     0.005 A 
ATOM     14  C   UNL d   1      33.241  23.350 -24.906  0.00  0.00     0.000 C 
ATOM     15  C   UNL d   1      33.122  19.865 -21.913  0.00  0.00     0.000 A 
ATOM     16  C   UNL d   1      33.128  19.136 -22.317  0.00  0.00     0.000 A 
ENDROOT
BRANCH   7  17
ATOM     17  O   UNL d   1      33.153  21.985 -22.400  0.00  0.00    -0.302 OA
BRANCH  17  18
ATOM     18  C   UNL d   1      32.972  22.694 -22.013  0.00  0.00     0.163 C 
ATOM     19  C   UNL d   1      33.241  23.416 -22.330  0.00  0.00     0.032 C 
BRANCH  18  20
ATOM     20  C   UNL d   1      32.530  22.682 -21.318  0.00  0.00     0.323 C 
ATOM     21  O   UNL d   1      31.777  22.365 -21.318  0.00  0.00    -0.257 OA
BRANCH  20  22
ATOM     22  O   UNL d   1      32.859  22.996 -20.629  0.00  0.00    -0.270 OA
BRANCH  22  23
ATOM     23  C   UNL d   1      32.393  23.049 -19.940  0.00  0.00     0.126 C 
ATOM     24  C   UNL d   1      32.674  23.448 -19.290  0.00  0.00     0.029 C 
ENDBRANCH  22  23
ENDBRANCH  20  22
ENDBRANCH  18  20
ENDBRANCH  17  18
ENDBRANCH   7  17
TORSDOF 5
ENDMDL
MODEL 3
REMARK VINA RESULT:      -0.3      2.092      5.185
REMARK  5 active torsions:
REMARK  status: ('A' for Active; 'I' for Inactive)
REMARK    1  A    between atoms: O_8  and  C_7 
REMARK    2  A    between atoms: C_10  and  O_8 
REMARK    3  A    between atoms: C_9  and  C_10 
REMARK    4  A    between atoms: O_17  and  C_9 
REMARK    5  A    between atoms: C_21  and  O_17 
ROOT
ATOM      1  C   UNL d   1      33.146  21.504 -23.409  0.00  0.00     0.009 A 
ATOM      2  C   UNL d   1      33.124  21.111 -22.691  0.00  0.00     0.046 A 
ATOM      3  C   UNL d   1      33.138  22.331 -23.428  0.00  0.00     0.064 A 
ATOM      4  C   UNL d   1      33.109  22.753 -22.729  0.00  0.00     0.300 A 
ATOM      5  C   UNL d   1      33.095  21.534 -21.992  0.00  0.00     0.105 A 
ATOM      6  O   UNL d   1      33.088  22.353 -22.006  0.00  0.00    -0.273 OA
ATOM      7  C   UNL d   1      33.132  20.285 -22.682  0.00  0.00     0.102 A 
ATOM      8  C   UNL d   1      33.074  21.126 -21.265  0.00  0.00     0.025 A 
ATOM      9  C   UNL d   1      33.110  19.888 -21.952  0.00  0.00     0.025 A 
ATOM     10  O   UNL d   1      33.102  23.591 -22.744  0.00  0.00    -0.259 OA
ATOM     11  C   UNL d   1      33.081  20.310 -21.254  0.00  0.00     0.004 A 
ATOM     12  C   UNL d   1      33.175  21.078 -24.115  0.00  0.00     0.000 A 
ATOM     13  C   UNL d   1      33.160  22.728 -24.149  0.00  0.00     0.005 A 
ATOM     14  C   UNL d   1      33.060  19.906 -20.528  0.00  0.00     0.000 C 
ATOM     15  C   UNL d   1      33.197  21.468 -24.847  0.00  0.00     0.000 A 
ATOM     16  C   UNL d   1      33.189  22.302 -24.854  0.00  0.00     0.000 A 
ENDROOT
BRANCH   7  17
ATOM     17  O   UNL d   1      33.161  19.862 -23.381  0.00  0.00    -0.302 OA
BRANCH  17  18
ATOM     18  C   UNL d   1      32.941  19.065 -23.391  0.00  0.00     0.163 C 
ATOM     19  C   UNL d   1      33.066  18.594 -22.715  0.00  0.00     0.032 C 
BRANCH  18  20
ATOM     20  C   UNL d   1      32.600  18.740 -24.067  0.00  0.00     0.323 C 
ATOM     21  O   UNL d   1      33.066  18.550 -24.710  0.00  0.00    -0.257 OA
BRANCH  20  22
ATOM     22  O   UNL d   1      31.784  18.611 -24.081  0.00  0.00    -0.270 OA
BRANCH  22  23
ATOM     23  C   UNL d   1      31.476  17.990 -24.543  0.00  0.00     0.126 C 
ATOM     24  C   UNL d   1      30.752  17.669 -24.360  0.00  0.00     0.029 C 
ENDBRANCH  22  23
ENDBRANCH  20  22
ENDBRANCH  18  20
ENDBRANCH  17  18
ENDBRANCH   7  17
TORSDOF 5
ENDMDL
