MODEL 1
REMARK VINA RESULT:      86.2      0.000      0.000
REMARK  5 active torsions:
REMARK  status: ('A' for Active; 'I' for Inactive)
REMARK    1  A    between atoms: C_12  and  C_3 
REMARK    2  A    between atoms: C_14  and  N_5 
REMARK    3  A    between atoms: C_11  and  C_6 
REMARK    4  A    between atoms: O_25  and  C_12 
REMARK    5  A    between atoms: C_24  and  C_14 
ROOT
ATOM      1  C   UNL d   1     -58.511 -99.033 -44.877  0.00  0.00     0.080 A 
ATOM      2  C   UNL d   1     -58.189 -99.124 -45.635  0.00  0.00     0.267 A 
ATOM      3  C   UNL d   1     -58.360 -99.032 -43.450  0.00  0.00     0.106 A 
ATOM      4  C   UNL d   1     -59.317 -98.850 -44.785  0.00  0.00     0.108 A 
ATOM      5  N   UNL d   1     -58.674 -99.032 -46.304  0.00  0.00    -0.271 N 
ATOM      6  C   UNL d   1     -58.039 -99.123 -44.208  0.00  0.00     0.015 A 
ATOM      7  C   UNL d   1     -59.158 -98.851 -43.363  0.00  0.00     0.208 A 
ATOM      8  O   UNL d   1     -59.648 -98.757 -44.031  0.00  0.00    -0.288 OA
ATOM      9  C   UNL d   1     -59.798 -98.759 -45.450  0.00  0.00     0.043 A 
ATOM     10  C   UNL d   1     -59.481 -98.849 -46.211  0.00  0.00     0.069 A 
ATOM     11  O   UNL d   1     -57.391 -99.306 -45.727  0.00  0.00    -0.267 OA
ATOM     12  N   UNL d   1     -59.485 -98.759 -42.605  0.00  0.00    -0.121 N 
ATOM     13  C   UNL d   1     -59.961 -98.757 -46.872  0.00  0.00     0.019 C 
ENDROOT
BRANCH   6  14
ATOM     14  C   UNL d   1     -57.240 -99.305 -44.294  0.00  0.00     0.001 A 
ATOM     15  C   UNL d   1     -56.960-100.041 -44.047  0.00  0.00     0.012 A 
ATOM     16  C   UNL d   1     -56.161-100.224 -44.134  0.00  0.00     0.068 A 
ATOM     17 CL   UNL d   1     -55.880-100.956 -43.889  0.00  0.00    -0.082 Cl
ATOM     18  C   UNL d   1     -55.643 -99.677 -44.464  0.00  0.00     0.068 A 
ATOM     19  C   UNL d   1     -55.935 -98.934 -44.711  0.00  0.00     0.012 A 
ATOM     20 CL   UNL d   1     -54.844 -99.855 -44.551  0.00  0.00    -0.082 Cl
ATOM     21  C   UNL d   1     -56.734 -98.755 -44.623  0.00  0.00     0.001 A 
ENDBRANCH   6  14
BRANCH   3  22
ATOM     22  C   UNL d   1     -57.888 -99.122 -42.789  0.00  0.00     0.299 C 
ATOM     23  O   UNL d   1     -57.092 -98.911 -42.816  0.00  0.00    -0.259 OA
BRANCH  22  24
ATOM     24  O   UNL d   1     -58.203 -99.423 -42.091  0.00  0.00    -0.296 OA
ATOM     25  C   UNL d   1     -58.951 -99.184 -41.832  0.00  0.00     0.185 C 
ENDBRANCH  22  24
ENDBRANCH   3  22
BRANCH   5  26
ATOM     26  C   UNL d   1     -58.365 -99.120 -47.055  0.00  0.00     0.108 C 
BRANCH  26  27
ATOM     27  C   UNL d   1     -58.856 -99.298 -47.689  0.00  0.00     0.118 A 
ATOM     28  O   UNL d   1     -59.211 -98.761 -48.191  0.00  0.00    -0.304 OA
ATOM     29  C   UNL d   1     -59.654 -99.176 -48.744  0.00  0.00     0.123 A 
ATOM     30  C   UNL d   1     -59.576 -99.983 -48.587  0.00  0.00     0.029 A 
ATOM     31  C   UNL d   1     -59.078-100.055 -47.930  0.00  0.00     0.028 A 
ENDBRANCH  26  27
ENDBRANCH   5  26
TORSDOF 5
ENDMDL
