MODEL 1
REMARK VINA RESULT:      72.9      0.000      0.000
REMARK  4 active torsions:
REMARK  status: ('A' for Active; 'I' for Inactive)
REMARK    1  A    between atoms: N_5  and  C_1 
REMARK    2  A    between atoms: S_2  and  N_5 
REMARK    3  A    between atoms: C_7  and  S_2 
REMARK    4  A    between atoms: N_10  and  C_3 
ROOT
ATOM      1  C   UNL d   1      58.183  49.521  51.817  0.00  0.00     0.146 A 
ATOM      2  C   UNL d   1      57.474  49.458  51.400  0.00  0.00     0.105 A 
ATOM      3  C   UNL d   1      56.762  49.473  51.812  0.00  0.00     0.208 A 
ATOM      4  C   UNL d   1      58.183  49.598  52.640  0.00  0.00     0.215 A 
ATOM      5  C   UNL d   1      56.754  49.549  52.626  0.00  0.00     0.043 A 
ATOM      6  C   UNL d   1      57.463  49.611  53.043  0.00  0.00     0.044 A 
ATOM      7  O   UNL d   1      56.052  49.411  51.395  0.00  0.00    -0.285 OA
ATOM      8  O   UNL d   1      58.900  49.659  53.043  0.00  0.00    -0.285 OA
ATOM      9  C   UNL d   1      56.042  49.564  53.039  0.00  0.00     0.003 A 
ATOM     10  C   UNL d   1      57.455  49.687  53.857  0.00  0.00     0.003 A 
ATOM     11  C   UNL d   1      56.039  49.640  53.860  0.00  0.00     0.000 A 
ATOM     12  C   UNL d   1      56.743  49.702  54.270  0.00  0.00     0.000 A 
ENDROOT
BRANCH   1  13
ATOM     13  N   UNL d   1      58.906  49.507  51.410  0.00  0.00    -0.154 NA
BRANCH  13  14
ATOM     14  S   UNL d   1      59.490  48.961  51.612  0.00  0.00     0.291 S 
ATOM     15  O   UNL d   1      59.090  48.791  52.313  0.00  0.00    -0.198 OA
ATOM     16  O   UNL d   1      60.072  48.413  51.817  0.00  0.00    -0.198 OA
BRANCH  14  17
ATOM     17  C   UNL d   1      59.887  49.132  50.909  0.00  0.00     0.135 A 
ATOM     18  S   UNL d   1      59.774  48.940  50.118  0.00  0.00    -0.073 SA
ATOM     19  C   UNL d   1      60.382  49.295  49.682  0.00  0.00     0.036 A 
ATOM     20  C   UNL d   1      60.867  49.704  50.203  0.00  0.00     0.008 A 
ATOM     21  C   UNL d   1      60.563  49.606  50.967  0.00  0.00     0.020 A 
ENDBRANCH  14  17
ENDBRANCH  13  14
ENDBRANCH   1  13
BRANCH   2  22
ATOM     22  N   UNL d   1      57.486  49.382  50.579  0.00  0.00    -0.201 NA
ATOM     23  C   UNL d   1      57.023  49.503  50.128  0.00  0.00     0.082 A 
ATOM     24  C   UNL d   1      57.019  49.415  49.105  0.00  0.00     0.136 A 
ATOM     25  O   UNL d   1      56.179  49.699  49.012  0.00  0.00    -0.301 OA
ATOM     26  C   UNL d   1      56.682  49.561  49.435  0.00  0.00     0.136 A 
ATOM     27  C   UNL d   1      56.716  49.646  50.533  0.00  0.00     0.082 A 
ENDBRANCH   2  22
TORSDOF 4
ENDMDL
