MODEL 1
REMARK VINA RESULT:      36.9      0.000      0.000
REMARK  2 active torsions:
REMARK  status: ('A' for Active; 'I' for Inactive)
REMARK       I    between atoms: C_2  and  N_1 
REMARK       I    between atoms: N_8  and  C_2 
REMARK    1  A    between atoms: C_15  and  N_8 
REMARK    2  A    between atoms: C_9  and  C_15 
ROOT
ATOM      1  N   UNL d   1     -51.899  24.852  33.313  0.00  0.00    -0.258 N 
ATOM      2  C   UNL d   1     -51.881  25.678  33.312  0.00  0.00     0.354 C 
ATOM      3  S   UNL d   1     -51.899  23.195  33.314  0.00  0.00    -0.084 SA
ATOM      4  C   UNL d   1     -51.180  24.431  33.310  0.00  0.00     0.074 A 
ATOM      5  C   UNL d   1     -52.612  24.456  33.315  0.00  0.00     0.074 A 
ATOM      6  C   UNL d   1     -51.179  23.598  33.311  0.00  0.00     0.046 A 
ATOM      7  C   UNL d   1     -52.611  23.622  33.316  0.00  0.00     0.046 A 
ATOM      8  N   UNL d   1     -51.081  26.115  33.309  0.00  0.00    -0.189 NA
ATOM      9  O   UNL d   1     -52.665  26.131  33.314  0.00  0.00    -0.244 OA
ATOM     10  C   UNL d   1     -53.317  24.870  33.317  0.00  0.00     0.018 A 
ATOM     11  C   UNL d   1     -50.468  24.832  33.308  0.00  0.00     0.018 A 
ATOM     12  C   UNL d   1     -50.474  23.188  33.309  0.00  0.00     0.008 A 
ATOM     13  C   UNL d   1     -53.327  23.218  33.319  0.00  0.00     0.008 A 
ATOM     14  C   UNL d   1     -49.760  24.417  33.306  0.00  0.00     0.002 A 
ATOM     15  C   UNL d   1     -54.035  24.466  33.320  0.00  0.00     0.002 A 
ATOM     16  C   UNL d   1     -54.043  23.632  33.321  0.00  0.00     0.001 A 
ATOM     17  C   UNL d   1     -49.760  23.580  33.306  0.00  0.00     0.001 A 
ENDROOT
BRANCH   8  18
ATOM     18  C   UNL d   1     -51.068  26.940  33.308  0.00  0.00     0.128 C 
BRANCH  18  19
ATOM     19  C   UNL d   1     -50.423  27.345  33.632  0.00  0.00     0.119 A 
ATOM     20  O   UNL d   1     -50.035  27.160  34.337  0.00  0.00    -0.304 OA
ATOM     21  C   UNL d   1     -49.426  27.707  34.447  0.00  0.00     0.123 A 
ATOM     22  C   UNL d   1     -49.437  28.231  33.810  0.00  0.00     0.029 A 
ATOM     23  C   UNL d   1     -50.052  28.007  33.308  0.00  0.00     0.028 A 
ENDBRANCH  18  19
ENDBRANCH   8  18
TORSDOF 2
ENDMDL
