MODEL 1
REMARK VINA RESULT:      39.3      0.000      0.000
REMARK  4 active torsions:
REMARK  status: ('A' for Active; 'I' for Inactive)
REMARK    1  A    between atoms: C_6  and  C_1 
REMARK    2  A    between atoms: C_7  and  N_2 
REMARK    3  A    between atoms: C_10  and  C_7 
REMARK    4  A    between atoms: C_11  and  C_10 
ROOT
ATOM      1  C   UNL d   1      44.825 -13.976  37.696  0.00  0.00     0.148 A 
ATOM      2  N   UNL d   1      44.525 -14.613  37.249  0.00  0.00    -0.289 N 
ATOM      3  N   UNL d   1      45.664 -14.040  37.704  0.00  0.00    -0.227 NA
ATOM      4  C   UNL d   1      45.169 -15.068  36.982  0.00  0.00     0.083 A 
ATOM      5  C   UNL d   1      45.865 -14.718  37.259  0.00  0.00     0.099 A 
ATOM      6  C   UNL d   1      45.219 -15.759  36.519  0.00  0.00     0.019 A 
ATOM      7  C   UNL d   1      46.611 -15.042  37.086  0.00  0.00     0.021 A 
ATOM      8  C   UNL d   1      45.954 -16.088  36.342  0.00  0.00     0.002 A 
ATOM      9  C   UNL d   1      46.645 -15.732  36.624  0.00  0.00     0.002 A 
ENDROOT
BRANCH   2  10
ATOM     10  C   UNL d   1      43.722 -14.767  37.097  0.00  0.00     0.082 C 
BRANCH  10  11
ATOM     11  C   UNL d   1      43.513 -15.389  36.599  0.00  0.00     0.019 C 
BRANCH  11  12
ATOM     12  C   UNL d   1      42.722 -15.586  36.512  0.00  0.00     0.002 A 
ATOM     13  C   UNL d   1      42.503 -16.368  36.421  0.00  0.00     0.000 A 
ATOM     14  C   UNL d   1      41.713 -16.566  36.335  0.00  0.00     0.000 A 
ATOM     15  C   UNL d   1      41.140 -15.981  36.340  0.00  0.00     0.000 A 
ATOM     16  C   UNL d   1      41.357 -15.190  36.432  0.00  0.00     0.000 A 
ATOM     17  C   UNL d   1      42.152 -15.000  36.518  0.00  0.00     0.000 A 
ENDBRANCH  11  12
ENDBRANCH  10  11
ENDBRANCH   2  10
BRANCH   1  18
ATOM     18  C   UNL d   1      44.383 -13.384  38.068  0.00  0.00     0.035 A 
ATOM     19  C   UNL d   1      43.742 -13.148  38.532  0.00  0.00     0.003 A 
ATOM     20  C   UNL d   1      44.273 -12.584  38.239  0.00  0.00     0.003 A 
ENDBRANCH   1  18
TORSDOF 4
ENDMDL
MODEL 2
REMARK VINA RESULT:      42.0      0.890      3.640
REMARK  4 active torsions:
REMARK  status: ('A' for Active; 'I' for Inactive)
REMARK    1  A    between atoms: C_6  and  C_1 
REMARK    2  A    between atoms: C_7  and  N_2 
REMARK    3  A    between atoms: C_10  and  C_7 
REMARK    4  A    between atoms: C_11  and  C_10 
ROOT
ATOM      1  C   UNL d   1      45.053 -15.346  36.681  0.00  0.00     0.148 A 
ATOM      2  N   UNL d   1      44.448 -14.901  37.044  0.00  0.00    -0.289 N 
ATOM      3  N   UNL d   1      44.701 -16.037  36.354  0.00  0.00    -0.227 NA
ATOM      4  C   UNL d   1      43.729 -15.308  36.944  0.00  0.00     0.083 A 
ATOM      5  C   UNL d   1      43.883 -16.003  36.522  0.00  0.00     0.099 A 
ATOM      6  C   UNL d   1      42.948 -15.142  37.180  0.00  0.00     0.019 A 
ATOM      7  C   UNL d   1      43.276 -16.537  36.331  0.00  0.00     0.021 A 
ATOM      8  C   UNL d   1      42.338 -15.665  36.995  0.00  0.00     0.002 A 
ATOM      9  C   UNL d   1      42.501 -16.358  36.573  0.00  0.00     0.002 A 
ENDROOT
BRANCH   2  10
ATOM     10  C   UNL d   1      44.547 -14.174  37.437  0.00  0.00     0.082 C 
BRANCH  10  11
ATOM     11  C   UNL d   1      44.218 -14.068  38.185  0.00  0.00     0.019 C 
BRANCH  11  12
ATOM     12  C   UNL d   1      44.437 -13.415  38.631  0.00  0.00     0.002 A 
ATOM     13  C   UNL d   1      43.989 -12.732  38.603  0.00  0.00     0.000 A 
ATOM     14  C   UNL d   1      44.207 -12.080  39.048  0.00  0.00     0.000 A 
ATOM     15  C   UNL d   1      44.874 -12.110  39.522  0.00  0.00     0.000 A 
ATOM     16  C   UNL d   1      45.328 -12.798  39.553  0.00  0.00     0.000 A 
ATOM     17  C   UNL d   1      45.103 -13.448  39.104  0.00  0.00     0.000 A 
ENDBRANCH  11  12
ENDBRANCH  10  11
ENDBRANCH   2  10
BRANCH   1  18
ATOM     18  C   UNL d   1      45.856 -15.150  36.646  0.00  0.00     0.035 A 
ATOM     19  C   UNL d   1      46.647 -15.324  36.805  0.00  0.00     0.003 A 
ATOM     20  C   UNL d   1      46.446 -14.622  36.415  0.00  0.00     0.003 A 
ENDBRANCH   1  18
TORSDOF 4
ENDMDL
