MODEL 1
REMARK VINA RESULT:      -4.2      0.000      0.000
REMARK  7 active torsions:
REMARK  status: ('A' for Active; 'I' for Inactive)
REMARK    1  A    between atoms: S_3  and  C_1 
REMARK    2  A    between atoms: C_10  and  S_3 
REMARK    3  A    between atoms: N_11  and  C_4 
REMARK    4  A    between atoms: C_9  and  C_5 
REMARK    5  A    between atoms: C_20  and  N_11 
REMARK    6  A    between atoms: C_22  and  C_20 
REMARK    7  A    between atoms: C_23  and  C_22 
ROOT
ATOM      1  C   UNL d   1      56.616  -0.282  32.064  0.00  0.00     0.042 A 
ATOM      2  C   UNL d   1      56.344   0.486  32.163  0.00  0.00     0.006 A 
ATOM      3  C   UNL d   1      56.346  -0.893  32.555  0.00  0.00     0.006 A 
ATOM      4  C   UNL d   1      55.514   0.049  33.258  0.00  0.00     0.094 A 
ATOM      5  C   UNL d   1      55.798  -0.738  33.152  0.00  0.00     0.024 A 
ATOM      6  C   UNL d   1      55.792   0.654  32.760  0.00  0.00     0.024 A 
ATOM      7  O   UNL d   1      54.963   0.213  33.856  0.00  0.00    -0.328 OA
ATOM      8  C   UNL d   1      54.400   0.389  34.464  0.00  0.00     0.181 C 
ENDROOT
BRANCH   1   9
ATOM      9  C   UNL d   1      57.166  -0.456  31.471  0.00  0.00     0.185 A 
ATOM     10  N   UNL d   1      57.734   0.085  31.224  0.00  0.00    -0.207 NA
ATOM     11  C   UNL d   1      58.185  -0.270  30.629  0.00  0.00     0.212 A 
ATOM     12  C   UNL d   1      57.888  -1.024  30.519  0.00  0.00     0.213 A 
ATOM     13  O   UNL d   1      57.266  -1.148  31.027  0.00  0.00    -0.269 OA
BRANCH  11  14
ATOM     14  S   UNL d   1      58.834  -0.027  30.157  0.00  0.00     0.230 S 
ATOM     15  O   UNL d   1      58.069   0.173  29.706  0.00  0.00    -0.215 OA
ATOM     16  O   UNL d   1      59.574  -0.208  30.566  0.00  0.00    -0.215 OA
BRANCH  14  17
ATOM     17  C   UNL d   1      59.470   0.211  29.695  0.00  0.00     0.090 A 
ATOM     18  C   UNL d   1      60.222   0.217  30.013  0.00  0.00     0.011 A 
ATOM     19  C   UNL d   1      60.858   0.453  29.557  0.00  0.00     0.001 A 
ATOM     20  C   UNL d   1      60.740   0.682  28.781  0.00  0.00     0.000 A 
ATOM     21  C   UNL d   1      59.983   0.676  28.456  0.00  0.00     0.001 A 
ATOM     22  C   UNL d   1      59.349   0.441  28.912  0.00  0.00     0.011 A 
ENDBRANCH  14  17
ENDBRANCH  11  14
BRANCH  12  23
ATOM     23  N   UNL d   1      58.205  -1.551  29.959  0.00  0.00    -0.219 NA
BRANCH  23  24
ATOM     24  C   UNL d   1      57.953  -2.242  29.603  0.00  0.00     0.101 C 
BRANCH  24  25
ATOM     25  C   UNL d   1      58.640  -2.630  29.373  0.00  0.00     0.021 C 
BRANCH  25  26
ATOM     26  C   UNL d   1      58.675  -3.015  28.633  0.00  0.00     0.002 C 
ATOM     27  C   UNL d   1      58.483  -3.820  28.565  0.00  0.00     0.000 C 
ENDBRANCH  25  26
ENDBRANCH  24  25
ENDBRANCH  23  24
ENDBRANCH  12  23
ENDBRANCH   1   9
TORSDOF 7
ENDMDL
MODEL 2
REMARK VINA RESULT:      -2.3      0.884      2.473
REMARK  7 active torsions:
REMARK  status: ('A' for Active; 'I' for Inactive)
REMARK    1  A    between atoms: S_3  and  C_1 
REMARK    2  A    between atoms: C_10  and  S_3 
REMARK    3  A    between atoms: N_11  and  C_4 
REMARK    4  A    between atoms: C_9  and  C_5 
REMARK    5  A    between atoms: C_20  and  N_11 
REMARK    6  A    between atoms: C_22  and  C_20 
REMARK    7  A    between atoms: C_23  and  C_22 
ROOT
ATOM      1  C   UNL d   1      56.745  -0.426  31.893  0.00  0.00     0.042 A 
ATOM      2  C   UNL d   1      56.446   0.335  31.972  0.00  0.00     0.006 A 
ATOM      3  C   UNL d   1      56.509  -1.029  32.411  0.00  0.00     0.006 A 
ATOM      4  C   UNL d   1      55.658  -0.093  33.100  0.00  0.00     0.094 A 
ATOM      5  C   UNL d   1      55.968  -0.872  33.015  0.00  0.00     0.024 A 
ATOM      6  C   UNL d   1      55.902   0.503  32.575  0.00  0.00     0.024 A 
ATOM      7  O   UNL d   1      55.114   0.071  33.705  0.00  0.00    -0.328 OA
ATOM      8  C   UNL d   1      54.558   0.248  34.319  0.00  0.00     0.181 C 
ENDROOT
BRANCH   1   9
ATOM      9  C   UNL d   1      57.288  -0.600  31.294  0.00  0.00     0.185 A 
ATOM     10  N   UNL d   1      57.403  -1.364  31.012  0.00  0.00    -0.207 NA
ATOM     11  C   UNL d   1      57.980  -1.335  30.422  0.00  0.00     0.212 A 
ATOM     12  C   UNL d   1      58.211  -0.553  30.347  0.00  0.00     0.213 A 
ATOM     13  O   UNL d   1      57.795  -0.097  30.875  0.00  0.00    -0.269 OA
BRANCH  11  14
ATOM     14  S   UNL d   1      58.344  -1.904  29.924  0.00  0.00     0.230 S 
ATOM     15  O   UNL d   1      57.552  -1.665  29.544  0.00  0.00    -0.215 OA
ATOM     16  O   UNL d   1      59.100  -2.147  30.266  0.00  0.00    -0.215 OA
BRANCH  14  17
ATOM     17  C   UNL d   1      58.701  -2.461  29.438  0.00  0.00     0.090 A 
ATOM     18  C   UNL d   1      59.512  -2.551  29.452  0.00  0.00     0.011 A 
ATOM     19  C   UNL d   1      59.871  -3.105  28.969  0.00  0.00     0.001 A 
ATOM     20  C   UNL d   1      59.417  -3.568  28.473  0.00  0.00     0.000 A 
ATOM     21  C   UNL d   1      58.598  -3.481  28.455  0.00  0.00     0.001 A 
ATOM     22  C   UNL d   1      58.240  -2.928  28.937  0.00  0.00     0.011 A 
ENDBRANCH  14  17
ENDBRANCH  11  14
BRANCH  12  23
ATOM     23  N   UNL d   1      58.788  -0.309  29.801  0.00  0.00    -0.219 NA
BRANCH  23  24
ATOM     24  C   UNL d   1      58.978   0.396  29.432  0.00  0.00     0.101 C 
BRANCH  24  25
ATOM     25  C   UNL d   1      59.697   0.623  29.759  0.00  0.00     0.021 C 
BRANCH  25  26
ATOM     26  C   UNL d   1      60.377   0.677  29.277  0.00  0.00     0.002 C 
ATOM     27  C   UNL d   1      61.131   0.538  29.594  0.00  0.00     0.000 C 
ENDBRANCH  25  26
ENDBRANCH  24  25
ENDBRANCH  23  24
ENDBRANCH  12  23
ENDBRANCH   1   9
TORSDOF 7
ENDMDL
