MODEL 1
REMARK VINA RESULT:      -2.3      0.000      0.000
REMARK  9 active torsions:
REMARK  status: ('A' for Active; 'I' for Inactive)
REMARK    1  A    between atoms: C_2  and  S_1 
REMARK    2  A    between atoms: N_3  and  S_1 
REMARK    3  A    between atoms: C_14  and  N_3 
REMARK    4  A    between atoms: C_15  and  N_3 
REMARK    5  A    between atoms: C_6  and  C_7 
REMARK    6  A    between atoms: C_7  and  C_8 
REMARK    7  A    between atoms: C_8  and  C_12 
REMARK    8  A    between atoms: C_21  and  C_14 
REMARK    9  A    between atoms: C_20  and  C_15 
ROOT
ATOM      1  C   UNL d   1      31.686  16.943 -23.902  0.00  0.00     0.104 A 
ATOM      2  C   UNL d   1      32.247  16.369 -24.104  0.00  0.00     0.012 A 
ATOM      3  C   UNL d   1      31.905  17.596 -23.423  0.00  0.00     0.013 A 
ATOM      4  C   UNL d   1      32.672  17.662 -23.158  0.00  0.00     0.001 A 
ATOM      5  C   UNL d   1      33.013  16.435 -23.838  0.00  0.00     0.001 A 
ATOM      6  C   UNL d   1      33.240  17.078 -23.364  0.00  0.00     0.000 A 
ATOM      7  C   UNL d   1      32.024  15.729 -24.575  0.00  0.00     0.001 C 
ENDROOT
BRANCH   1   8
ATOM      8  S   UNL d   1      30.898  16.875 -24.174  0.00  0.00     0.272 S 
ATOM      9  O   UNL d   1      30.728  16.354 -23.552  0.00  0.00    -0.200 OA
ATOM     10  O   UNL d   1      31.067  17.391 -24.790  0.00  0.00    -0.200 OA
BRANCH   8  11
ATOM     11  N   UNL d   1      30.130  16.808 -24.440  0.00  0.00    -0.223 N 
BRANCH  11  12
ATOM     12  C   UNL d   1      29.672  16.134 -24.235  0.00  0.00     0.137 C 
BRANCH  12  13
ATOM     13  C   UNL d   1      29.003  15.952 -24.662  0.00  0.00     0.254 C 
ATOM     14  O   UNL d   1      28.432  15.453 -24.346  0.00  0.00    -0.281 OA
ENDBRANCH  12  13
ENDBRANCH  11  12
BRANCH  11  15
ATOM     15  C   UNL d   1      29.797  17.403 -24.913  0.00  0.00     0.137 C 
BRANCH  15  16
ATOM     16  C   UNL d   1      29.183  17.866 -24.605  0.00  0.00     0.254 C 
ATOM     17  O   UNL d   1      28.817  18.418 -25.096  0.00  0.00    -0.281 OA
ENDBRANCH  15  16
ENDBRANCH  11  15
ENDBRANCH   8  11
ENDBRANCH   1   8
BRANCH   4  18
ATOM     18  C   UNL d   1      32.900  18.299 -22.687  0.00  0.00     0.006 C 
BRANCH  18  19
ATOM     19  C   UNL d   1      32.827  19.063 -22.970  0.00  0.00     0.070 C 
BRANCH  19  20
ATOM     20  C   UNL d   1      33.093  19.708 -22.535  0.00  0.00     0.211 C 
ATOM     21  O   UNL d   1      33.213  19.623 -21.711  0.00  0.00    -0.644 OA
ATOM     22  O   UNL d   1      33.241  20.418 -22.891  0.00  0.00    -0.644 OA
ENDBRANCH  19  20
ENDBRANCH  18  19
ENDBRANCH   4  18
TORSDOF 9
ENDMDL
MODEL 2
REMARK VINA RESULT:      -1.7      1.677      2.954
REMARK  9 active torsions:
REMARK  status: ('A' for Active; 'I' for Inactive)
REMARK    1  A    between atoms: C_2  and  S_1 
REMARK    2  A    between atoms: N_3  and  S_1 
REMARK    3  A    between atoms: C_14  and  N_3 
REMARK    4  A    between atoms: C_15  and  N_3 
REMARK    5  A    between atoms: C_6  and  C_7 
REMARK    6  A    between atoms: C_7  and  C_8 
REMARK    7  A    between atoms: C_8  and  C_12 
REMARK    8  A    between atoms: C_21  and  C_14 
REMARK    9  A    between atoms: C_20  and  C_15 
ROOT
ATOM      1  C   UNL d   1      32.725  19.018 -23.195  0.00  0.00     0.104 A 
ATOM      2  C   UNL d   1      32.987  19.455 -23.847  0.00  0.00     0.012 A 
ATOM      3  C   UNL d   1      32.713  19.367 -22.432  0.00  0.00     0.013 A 
ATOM      4  C   UNL d   1      32.961  20.136 -22.336  0.00  0.00     0.001 A 
ATOM      5  C   UNL d   1      33.235  20.224 -23.751  0.00  0.00     0.001 A 
ATOM      6  C   UNL d   1      33.227  20.577 -23.000  0.00  0.00     0.000 A 
ATOM      7  C   UNL d   1      32.996  19.105 -24.595  0.00  0.00     0.001 C 
ENDROOT
BRANCH   1   8
ATOM      8  S   UNL d   1      32.470  18.228 -23.293  0.00  0.00     0.272 S 
ATOM      9  O   UNL d   1      33.241  17.961 -23.145  0.00  0.00    -0.200 OA
ATOM     10  O   UNL d   1      31.707  18.492 -23.440  0.00  0.00    -0.200 OA
BRANCH   8  11
ATOM     11  N   UNL d   1      32.222  17.457 -23.389  0.00  0.00    -0.223 N 
BRANCH  11  12
ATOM     12  C   UNL d   1      32.662  16.829 -23.046  0.00  0.00     0.137 C 
BRANCH  12  13
ATOM     13  C   UNL d   1      32.660  16.093 -23.395  0.00  0.00     0.254 C 
ATOM     14  O   UNL d   1      33.208  15.524 -23.168  0.00  0.00    -0.281 OA
ENDBRANCH  12  13
ENDBRANCH  11  12
BRANCH  11  15
ATOM     15  C   UNL d   1      31.536  17.288 -23.825  0.00  0.00     0.137 C 
BRANCH  15  16
ATOM     16  C   UNL d   1      31.030  16.688 -23.563  0.00  0.00     0.254 C 
ATOM     17  O   UNL d   1      30.345  16.528 -23.992  0.00  0.00    -0.281 OA
ENDBRANCH  15  16
ENDBRANCH  11  15
ENDBRANCH   8  11
ENDBRANCH   1   8
BRANCH   4  18
ATOM     18  C   UNL d   1      32.954  20.490 -21.592  0.00  0.00     0.006 C 
BRANCH  18  19
ATOM     19  C   UNL d   1      32.646  21.242 -21.499  0.00  0.00     0.070 C 
BRANCH  19  20
ATOM     20  C   UNL d   1      32.621  21.607 -20.764  0.00  0.00     0.211 C 
ATOM     21  O   UNL d   1      32.472  21.144 -20.083  0.00  0.00    -0.644 OA
ATOM     22  O   UNL d   1      32.739  22.403 -20.690  0.00  0.00    -0.644 OA
ENDBRANCH  19  20
ENDBRANCH  18  19
ENDBRANCH   4  18
TORSDOF 9
ENDMDL
MODEL 3
REMARK VINA RESULT:       0.6      2.909      5.437
REMARK  9 active torsions:
REMARK  status: ('A' for Active; 'I' for Inactive)
REMARK    1  A    between atoms: C_2  and  S_1 
REMARK    2  A    between atoms: N_3  and  S_1 
REMARK    3  A    between atoms: C_14  and  N_3 
REMARK    4  A    between atoms: C_15  and  N_3 
REMARK    5  A    between atoms: C_6  and  C_7 
REMARK    6  A    between atoms: C_7  and  C_8 
REMARK    7  A    between atoms: C_8  and  C_12 
REMARK    8  A    between atoms: C_21  and  C_14 
REMARK    9  A    between atoms: C_20  and  C_15 
ROOT
ATOM      1  C   UNL d   1      33.125  20.527 -22.210  0.00  0.00     0.104 A 
ATOM      2  C   UNL d   1      33.196  20.045 -21.541  0.00  0.00     0.012 A 
ATOM      3  C   UNL d   1      33.079  20.183 -22.974  0.00  0.00     0.013 A 
ATOM      4  C   UNL d   1      33.104  19.374 -23.054  0.00  0.00     0.001 A 
ATOM      5  C   UNL d   1      33.221  19.235 -21.622  0.00  0.00     0.001 A 
ATOM      6  C   UNL d   1      33.176  18.886 -22.373  0.00  0.00     0.000 A 
ATOM      7  C   UNL d   1      33.241  20.390 -20.793  0.00  0.00     0.001 C 
ENDROOT
BRANCH   1   8
ATOM      8  S   UNL d   1      33.100  21.359 -22.128  0.00  0.00     0.272 S 
ATOM      9  O   UNL d   1      33.146  21.442 -22.951  0.00  0.00    -0.200 OA
ATOM     10  O   UNL d   1      33.054  21.276 -21.312  0.00  0.00    -0.200 OA
BRANCH   8  11
ATOM     11  N   UNL d   1      33.075  22.169 -22.047  0.00  0.00    -0.223 N 
BRANCH  11  12
ATOM     12  C   UNL d   1      32.881  22.512 -21.305  0.00  0.00     0.137 C 
BRANCH  12  13
ATOM     13  C   UNL d   1      33.060  23.292 -21.158  0.00  0.00     0.254 C 
ATOM     14  O   UNL d   1      32.975  23.603 -20.401  0.00  0.00    -0.281 OA
ENDBRANCH  12  13
ENDBRANCH  11  12
BRANCH  11  15
ATOM     15  C   UNL d   1      33.241  22.661 -22.695  0.00  0.00     0.137 C 
BRANCH  15  16
ATOM     16  C   UNL d   1      32.614  23.013 -23.104  0.00  0.00     0.254 C 
ATOM     17  O   UNL d   1      32.749  23.312 -23.861  0.00  0.00    -0.281 OA
ENDBRANCH  15  16
ENDBRANCH  11  15
ENDBRANCH   8  11
ENDBRANCH   1   8
BRANCH   4  18
ATOM     18  C   UNL d   1      33.059  19.024 -23.799  0.00  0.00     0.006 C 
BRANCH  18  19
ATOM     19  C   UNL d   1      32.837  18.240 -23.870  0.00  0.00     0.070 C 
BRANCH  19  20
ATOM     20  C   UNL d   1      32.621  17.920 -24.596  0.00  0.00     0.211 C 
ATOM     21  O   UNL d   1      32.101  18.348 -25.093  0.00  0.00    -0.644 OA
ATOM     22  O   UNL d   1      32.903  17.201 -24.834  0.00  0.00    -0.644 OA
ENDBRANCH  19  20
ENDBRANCH  18  19
ENDBRANCH   4  18
TORSDOF 9
ENDMDL
