MODEL 1
REMARK VINA RESULT:      93.9      0.000      0.000
REMARK  4 active torsions:
REMARK  status: ('A' for Active; 'I' for Inactive)
REMARK    1  A    between atoms: C_8  and  S_1 
REMARK    2  A    between atoms: C_2  and  C_10 
REMARK    3  A    between atoms: C_6  and  C_14 
REMARK       I    between atoms: N_9  and  C_6 
REMARK    4  A    between atoms: C_23  and  N_9 
ROOT
ATOM      1  C   UNL d   1      43.529 -15.394  37.103  0.00  0.00     0.024 A 
ATOM      2  C   UNL d   1      42.923 -15.247  36.576  0.00  0.00     0.004 A 
ATOM      3  C   UNL d   1      43.455 -15.983  37.672  0.00  0.00     0.004 A 
ATOM      4  C   UNL d   1      42.149 -16.286  37.185  0.00  0.00     0.085 A 
ATOM      5  C   UNL d   1      42.765 -16.433  37.717  0.00  0.00     0.019 A 
ATOM      6  C   UNL d   1      42.229 -15.693  36.614  0.00  0.00     0.019 A 
ENDROOT
BRANCH   4   7
ATOM      7  N   UNL d   1      41.452 -16.734  37.223  0.00  0.00    -0.208 NA
ATOM      8  C   UNL d   1      40.737 -16.391  37.003  0.00  0.00     0.279 C 
ATOM      9  O   UNL d   1      40.705 -15.611  36.745  0.00  0.00    -0.265 OA
BRANCH   8  10
ATOM     10  C   UNL d   1      40.047 -16.834  37.040  0.00  0.00     0.058 A 
ATOM     11  C   UNL d   1      39.528 -16.739  37.676  0.00  0.00     0.005 A 
ATOM     12  C   UNL d   1      38.842 -17.180  37.714  0.00  0.00     0.013 A 
ATOM     13  C   UNL d   1      38.660 -17.731  37.109  0.00  0.00     0.107 A 
ATOM     14  C   UNL d   1      39.175 -17.828  36.473  0.00  0.00     0.013 A 
ATOM     15  C   UNL d   1      39.872 -17.381  36.435  0.00  0.00     0.005 A 
BRANCH  13  16
ATOM     16  S   UNL d   1      37.963 -18.178  37.147  0.00  0.00     0.302 S 
ATOM     17  O   UNL d   1      38.056 -18.254  37.958  0.00  0.00    -0.197 OA
ATOM     18  O   UNL d   1      37.880 -18.096  36.330  0.00  0.00    -0.197 OA
ATOM     19  N   UNL d   1      37.272 -18.621  37.176  0.00  0.00    -0.043 N 
ENDBRANCH  13  16
ENDBRANCH   8  10
ENDBRANCH   4   7
BRANCH   1  20
ATOM     20  C   UNL d   1      44.223 -14.944  37.061  0.00  0.00     0.112 A 
ATOM     21  S   UNL d   1      44.870 -15.097  36.554  0.00  0.00    -0.047 SA
ATOM     22  C   UNL d   1      45.445 -14.511  36.694  0.00  0.00     0.130 A 
ATOM     23  N   UNL d   1      46.189 -14.377  36.364  0.00  0.00    -0.236 NA
ATOM     24  C   UNL d   1      45.155 -13.999  37.284  0.00  0.00     0.106 A 
ATOM     25  C   UNL d   1      46.647 -13.736  36.618  0.00  0.00     0.100 A 
ATOM     26  C   UNL d   1      46.352 -13.224  37.211  0.00  0.00     0.022 A 
ATOM     27  C   UNL d   1      45.609 -13.361  37.538  0.00  0.00     0.023 A 
ATOM     28  N   UNL d   1      44.393 -14.278  37.506  0.00  0.00    -0.237 NA
ENDBRANCH   1  20
TORSDOF 4
ENDMDL
