MODEL 1
REMARK VINA RESULT:      -4.4      0.000      0.000
REMARK  6 active torsions:
REMARK  status: ('A' for Active; 'I' for Inactive)
REMARK    1  A    between atoms: N_8  and  C_1 
REMARK    2  A    between atoms: C_6  and  N_2 
REMARK       I    between atoms: C_12  and  N_8 
REMARK    3  A    between atoms: C_20  and  C_12 
REMARK    4  A    between atoms: O_24  and  C_13 
REMARK    5  A    between atoms: O_25  and  C_15 
REMARK    6  A    between atoms: C_19  and  C_20 
ROOT
ATOM      1  C   UNL d   1     -46.642  12.290  23.431  0.00  0.00     0.169 A 
ATOM      2  N   UNL d   1     -46.277  12.949  23.088  0.00  0.00    -0.212 N 
ATOM      3  C   UNL d   1     -46.088  11.670  23.467  0.00  0.00     0.065 A 
ATOM      4  N   UNL d   1     -45.495  12.737  22.911  0.00  0.00    -0.163 NA
ATOM      5  C   UNL d   1     -45.381  11.949  23.145  0.00  0.00     0.114 A 
ATOM      6  S   UNL d   1     -45.186  10.681  23.519  0.00  0.00     0.091 S 
ATOM      7  C   UNL d   1     -44.820  11.340  23.176  0.00  0.00     0.090 A 
ATOM      8  C   UNL d   1     -45.970  10.889  23.698  0.00  0.00     0.073 A 
ATOM      9  O   UNL d   1     -44.834   9.944  23.659  0.00  0.00    -0.247 OA
ENDROOT
BRANCH   1  10
ATOM     10  N   UNL d   1     -47.427  12.248  23.696  0.00  0.00    -0.189 NA
ATOM     11  C   UNL d   1     -47.923  11.651  23.436  0.00  0.00     0.281 C 
ATOM     12  O   UNL d   1     -47.641  11.075  22.899  0.00  0.00    -0.265 OA
BRANCH  11  13
ATOM     13  C   UNL d   1     -48.704  11.608  23.698  0.00  0.00     0.063 C 
BRANCH  13  14
ATOM     14  C   UNL d   1     -49.288  11.938  23.245  0.00  0.00     0.007 A 
ATOM     15  C   UNL d   1     -49.834  12.471  23.575  0.00  0.00     0.026 A 
ATOM     16  C   UNL d   1     -50.427  12.804  23.107  0.00  0.00     0.116 A 
ATOM     17  C   UNL d   1     -50.473  12.603  22.308  0.00  0.00     0.116 A 
ATOM     18  C   UNL d   1     -49.940  12.079  21.972  0.00  0.00     0.026 A 
ATOM     19  C   UNL d   1     -49.346  11.746  22.444  0.00  0.00     0.002 A 
BRANCH  16  20
ATOM     20  O   UNL d   1     -50.963  13.329  23.435  0.00  0.00    -0.326 OA
ATOM     21  C   UNL d   1     -50.713  14.074  23.684  0.00  0.00     0.181 C 
ENDBRANCH  16  20
BRANCH  17  22
ATOM     22  O   UNL d   1     -51.064  12.935  21.840  0.00  0.00    -0.326 OA
ATOM     23  C   UNL d   1     -50.881  13.277  21.112  0.00  0.00     0.181 C 
ENDBRANCH  17  22
ENDBRANCH  13  14
ENDBRANCH  11  13
ENDBRANCH   1  10
BRANCH   2  24
ATOM     24  C   UNL d   1     -46.624  13.683  22.947  0.00  0.00     0.085 A 
ATOM     25  C   UNL d   1     -46.849  13.886  22.184  0.00  0.00     0.018 A 
ATOM     26  C   UNL d   1     -47.197  14.621  22.043  0.00  0.00     0.002 A 
ATOM     27  C   UNL d   1     -46.728  13.361  21.566  0.00  0.00     0.002 C 
ATOM     28  C   UNL d   1     -47.422  14.826  21.286  0.00  0.00     0.000 C 
ATOM     29  C   UNL d   1     -47.314  15.141  22.673  0.00  0.00     0.000 A 
ATOM     30  C   UNL d   1     -47.085  14.924  23.429  0.00  0.00     0.002 A 
ATOM     31  C   UNL d   1     -46.742  14.204  23.577  0.00  0.00     0.019 A 
ENDBRANCH   2  24
TORSDOF 6
ENDMDL
MODEL 2
REMARK VINA RESULT:      -2.6      1.846      4.410
REMARK  6 active torsions:
REMARK  status: ('A' for Active; 'I' for Inactive)
REMARK    1  A    between atoms: N_8  and  C_1 
REMARK    2  A    between atoms: C_6  and  N_2 
REMARK       I    between atoms: C_12  and  N_8 
REMARK    3  A    between atoms: C_20  and  C_12 
REMARK    4  A    between atoms: O_24  and  C_13 
REMARK    5  A    between atoms: O_25  and  C_15 
REMARK    6  A    between atoms: C_19  and  C_20 
ROOT
ATOM      1  C   UNL d   1     -48.041  12.855  22.622  0.00  0.00     0.169 A 
ATOM      2  N   UNL d   1     -48.765  13.258  22.642  0.00  0.00    -0.212 N 
ATOM      3  C   UNL d   1     -48.156  12.092  22.935  0.00  0.00     0.065 A 
ATOM      4  N   UNL d   1     -49.328  12.744  22.967  0.00  0.00    -0.163 NA
ATOM      5  C   UNL d   1     -48.951  12.027  23.147  0.00  0.00     0.114 A 
ATOM      6  S   UNL d   1     -48.354  10.867  23.440  0.00  0.00     0.091 S 
ATOM      7  C   UNL d   1     -49.077  11.270  23.459  0.00  0.00     0.090 A 
ATOM      8  C   UNL d   1     -47.786  11.379  23.115  0.00  0.00     0.073 A 
ATOM      9  O   UNL d   1     -48.218  10.092  23.698  0.00  0.00    -0.247 OA
ENDROOT
BRANCH   1  10
ATOM     10  N   UNL d   1     -47.322  13.156  22.341  0.00  0.00    -0.189 NA
ATOM     11  C   UNL d   1     -46.646  13.119  22.801  0.00  0.00     0.281 C 
ATOM     12  O   UNL d   1     -46.676  12.775  23.563  0.00  0.00    -0.265 OA
BRANCH  11  13
ATOM     13  C   UNL d   1     -45.929  13.417  22.523  0.00  0.00     0.063 C 
BRANCH  13  14
ATOM     14  C   UNL d   1     -45.287  12.926  22.489  0.00  0.00     0.007 A 
ATOM     15  C   UNL d   1     -44.646  13.095  21.987  0.00  0.00     0.026 A 
ATOM     16  C   UNL d   1     -43.995  12.590  21.957  0.00  0.00     0.116 A 
ATOM     17  C   UNL d   1     -43.984  11.914  22.431  0.00  0.00     0.116 A 
ATOM     18  C   UNL d   1     -44.610  11.737  22.929  0.00  0.00     0.026 A 
ATOM     19  C   UNL d   1     -45.264  12.247  22.957  0.00  0.00     0.002 A 
BRANCH  16  20
ATOM     20  O   UNL d   1     -43.365  12.759  21.462  0.00  0.00    -0.326 OA
ATOM     21  C   UNL d   1     -43.273  13.518  21.154  0.00  0.00     0.181 C 
ENDBRANCH  16  20
BRANCH  17  22
ATOM     22  O   UNL d   1     -43.334  11.408  22.402  0.00  0.00    -0.326 OA
ATOM     23  C   UNL d   1     -43.137  10.942  23.053  0.00  0.00     0.181 C 
ENDBRANCH  17  22
ENDBRANCH  13  14
ENDBRANCH  11  13
ENDBRANCH   1  10
BRANCH   2  24
ATOM     24  C   UNL d   1     -48.902  14.029  22.386  0.00  0.00     0.085 A 
ATOM     25  C   UNL d   1     -49.181  14.590  22.917  0.00  0.00     0.018 A 
ATOM     26  C   UNL d   1     -49.319  15.362  22.660  0.00  0.00     0.002 A 
ATOM     27  C   UNL d   1     -49.321  14.383  23.697  0.00  0.00     0.002 C 
ATOM     28  C   UNL d   1     -49.596  15.922  23.185  0.00  0.00     0.000 C 
ATOM     29  C   UNL d   1     -49.174  15.558  21.872  0.00  0.00     0.000 A 
ATOM     30  C   UNL d   1     -48.896  14.988  21.354  0.00  0.00     0.002 A 
ATOM     31  C   UNL d   1     -48.757  14.226  21.597  0.00  0.00     0.019 A 
ENDBRANCH   2  24
TORSDOF 6
ENDMDL
MODEL 3
REMARK VINA RESULT:      -1.8      3.191      5.587
REMARK  6 active torsions:
REMARK  status: ('A' for Active; 'I' for Inactive)
REMARK    1  A    between atoms: N_8  and  C_1 
REMARK    2  A    between atoms: C_6  and  N_2 
REMARK       I    between atoms: C_12  and  N_8 
REMARK    3  A    between atoms: C_20  and  C_12 
REMARK    4  A    between atoms: O_24  and  C_13 
REMARK    5  A    between atoms: O_25  and  C_15 
REMARK    6  A    between atoms: C_19  and  C_20 
ROOT
ATOM      1  C   UNL d   1     -44.879  12.220  22.429  0.00  0.00     0.169 A 
ATOM      2  N   UNL d   1     -45.537  12.433  22.884  0.00  0.00    -0.212 N 
ATOM      3  C   UNL d   1     -44.564  11.513  22.737  0.00  0.00     0.065 A 
ATOM      4  N   UNL d   1     -45.630  11.859  23.474  0.00  0.00    -0.163 NA
ATOM      5  C   UNL d   1     -45.030  11.293  23.382  0.00  0.00     0.114 A 
ATOM      6  S   UNL d   1     -44.067  10.377  23.243  0.00  0.00     0.091 S 
ATOM      7  C   UNL d   1     -44.725  10.590  23.698  0.00  0.00     0.090 A 
ATOM      8  C   UNL d   1     -43.970  10.950  22.650  0.00  0.00     0.073 A 
ATOM      9  O   UNL d   1     -43.589   9.710  23.358  0.00  0.00    -0.247 OA
ENDROOT
BRANCH   1  10
ATOM     10  N   UNL d   1     -44.580  12.634  21.777  0.00  0.00    -0.189 NA
ATOM     11  C   UNL d   1     -43.783  12.819  21.730  0.00  0.00     0.281 C 
ATOM     12  O   UNL d   1     -43.263  12.589  22.343  0.00  0.00    -0.265 OA
BRANCH  11  13
ATOM     13  C   UNL d   1     -43.483  13.232  21.082  0.00  0.00     0.063 C 
BRANCH  13  14
ATOM     14  C   UNL d   1     -42.727  13.519  21.116  0.00  0.00     0.007 A 
ATOM     15  C   UNL d   1     -42.583  14.338  21.143  0.00  0.00     0.026 A 
ATOM     16  C   UNL d   1     -41.811  14.624  21.178  0.00  0.00     0.116 A 
ATOM     17  C   UNL d   1     -41.181  14.090  21.187  0.00  0.00     0.116 A 
ATOM     18  C   UNL d   1     -41.311  13.282  21.161  0.00  0.00     0.026 A 
ATOM     19  C   UNL d   1     -42.089  12.997  21.126  0.00  0.00     0.002 A 
BRANCH  16  20
ATOM     20  O   UNL d   1     -41.671  15.431  21.205  0.00  0.00    -0.326 OA
ATOM     21  C   UNL d   1     -41.666  15.872  20.508  0.00  0.00     0.181 C 
ENDBRANCH  16  20
BRANCH  17  22
ATOM     22  O   UNL d   1     -40.408  14.376  21.222  0.00  0.00    -0.326 OA
ATOM     23  C   UNL d   1     -39.783  13.869  21.401  0.00  0.00     0.181 C 
ENDBRANCH  17  22
ENDBRANCH  13  14
ENDBRANCH  11  13
ENDBRANCH   1  10
BRANCH   2  24
ATOM     24  C   UNL d   1     -46.015  13.096  22.772  0.00  0.00     0.085 A 
ATOM     25  C   UNL d   1     -46.791  13.000  22.523  0.00  0.00     0.018 A 
ATOM     26  C   UNL d   1     -47.269  13.663  22.411  0.00  0.00     0.002 A 
ATOM     27  C   UNL d   1     -47.089  12.249  22.386  0.00  0.00     0.002 C 
ATOM     28  C   UNL d   1     -48.041  13.571  22.163  0.00  0.00     0.000 C 
ATOM     29  C   UNL d   1     -46.958  14.414  22.551  0.00  0.00     0.000 A 
ATOM     30  C   UNL d   1     -46.181  14.495  22.800  0.00  0.00     0.002 A 
ATOM     31  C   UNL d   1     -45.704  13.848  22.912  0.00  0.00     0.019 A 
ENDBRANCH   2  24
TORSDOF 6
ENDMDL
