MODEL 1
REMARK VINA RESULT:      -5.7      0.000      0.000
REMARK  6 active torsions:
REMARK  status: ('A' for Active; 'I' for Inactive)
REMARK    1  A    between atoms: C_3  and  N_1 
REMARK    2  A    between atoms: C_2  and  N_5 
REMARK    3  A    between atoms: N_6  and  C_2 
REMARK    4  A    between atoms: N_5  and  N_9 
REMARK    5  A    between atoms: C_13  and  N_6 
REMARK    6  A    between atoms: N_9  and  C_12 
ROOT
ATOM      1  N   UNL d   1     -41.582-122.692 -51.868  0.00  0.00    -0.276 N 
ATOM      2  H   UNL d   1     -42.282-122.257 -51.907  0.00  0.00     0.189 HD
ENDROOT
BRANCH   1   3
ATOM      3  C   UNL d   1     -41.350-123.020 -51.134  0.00  0.00     0.191 C 
ATOM      4  S   UNL d   1     -41.123-123.817 -51.105  0.00  0.00    -0.039 SA
BRANCH   3   5
ATOM      5  N   UNL d   1     -41.343-122.572 -50.442  0.00  0.00    -0.331 N 
ATOM      6  H   UNL d   1     -40.879-121.890 -50.425  0.00  0.00     0.168 HD
BRANCH   5   7
ATOM      7  C   UNL d   1     -41.785-122.794 -49.781  0.00  0.00     0.058 A 
ATOM      8  C   UNL d   1     -41.405-123.169 -49.146  0.00  0.00     0.017 A 
ATOM      9  C   UNL d   1     -41.837-123.391 -48.491  0.00  0.00     0.002 A 
ATOM     10  C   UNL d   1     -42.649-123.249 -48.449  0.00  0.00     0.000 A 
ATOM     11  C   UNL d   1     -43.029-122.874 -49.084  0.00  0.00     0.002 A 
ATOM     12  C   UNL d   1     -42.587-122.651 -49.745  0.00  0.00     0.017 A 
ENDBRANCH   5   7
ENDBRANCH   3   5
ENDBRANCH   1   3
BRANCH   1  13
ATOM     13  N   UNL d   1     -41.132-122.795 -52.540  0.00  0.00    -0.297 N 
ATOM     14  H   UNL d   1     -40.372-123.153 -52.482  0.00  0.00     0.187 HD
BRANCH  13  15
ATOM     15  C   UNL d   1     -41.408-122.552 -53.296  0.00  0.00     0.072 A 
ATOM     16  C   UNL d   1     -41.207-123.005 -53.956  0.00  0.00     0.020 A 
ATOM     17  C   UNL d   1     -41.461-122.793 -54.704  0.00  0.00     0.025 A 
ATOM     18  C   UNL d   1     -41.926-122.112 -54.787  0.00  0.00     0.127 A 
ATOM     19  C   UNL d   1     -42.127-121.659 -54.127  0.00  0.00     0.025 A 
ATOM     20  C   UNL d   1     -41.863-121.888 -53.385  0.00  0.00     0.020 A 
BRANCH  18  21
ATOM     21  N   UNL d   1     -42.197-121.884 -55.574  0.00  0.00    -0.114 N 
ATOM     22  O   UNL d   1     -41.779-121.310 -55.994  0.00  0.00    -0.532 OA
ATOM     23  O   UNL d   1     -42.863-122.249 -55.878  0.00  0.00    -0.532 OA
ENDBRANCH  18  21
ENDBRANCH  13  15
ENDBRANCH   1  13
TORSDOF 6
ENDMDL
MODEL 2
REMARK VINA RESULT:      -5.5      2.679      5.083
REMARK  6 active torsions:
REMARK  status: ('A' for Active; 'I' for Inactive)
REMARK    1  A    between atoms: C_3  and  N_1 
REMARK    2  A    between atoms: C_2  and  N_5 
REMARK    3  A    between atoms: N_6  and  C_2 
REMARK    4  A    between atoms: N_5  and  N_9 
REMARK    5  A    between atoms: C_13  and  N_6 
REMARK    6  A    between atoms: N_9  and  C_12 
ROOT
ATOM      1  N   UNL d   1     -41.597-122.837 -52.279  0.00  0.00    -0.276 N 
ATOM      2  H   UNL d   1     -42.383-122.603 -52.195  0.00  0.00     0.189 HD
ENDROOT
BRANCH   1   3
ATOM      3  C   UNL d   1     -41.283-122.930 -53.049  0.00  0.00     0.191 C 
ATOM      4  S   UNL d   1     -41.122-123.695 -53.327  0.00  0.00    -0.039 SA
BRANCH   3   5
ATOM      5  N   UNL d   1     -41.131-122.282 -53.537  0.00  0.00    -0.331 N 
ATOM      6  H   UNL d   1     -40.539-121.755 -53.310  0.00  0.00     0.168 HD
BRANCH   5   7
ATOM      7  C   UNL d   1     -41.556-122.160 -54.234  0.00  0.00     0.058 A 
ATOM      8  C   UNL d   1     -41.286-122.502 -54.940  0.00  0.00     0.017 A 
ATOM      9  C   UNL d   1     -41.702-122.385 -55.631  0.00  0.00     0.002 A 
ATOM     10  C   UNL d   1     -42.390-121.929 -55.641  0.00  0.00     0.000 A 
ATOM     11  C   UNL d   1     -42.660-121.586 -54.935  0.00  0.00     0.002 A 
ATOM     12  C   UNL d   1     -42.235-121.708 -54.238  0.00  0.00     0.017 A 
ENDBRANCH   5   7
ENDBRANCH   3   5
ENDBRANCH   1   3
BRANCH   1  13
ATOM     13  N   UNL d   1     -41.142-122.972 -51.617  0.00  0.00    -0.297 N 
ATOM     14  H   UNL d   1     -40.312-123.092 -51.697  0.00  0.00     0.187 HD
BRANCH  13  15
ATOM     15  C   UNL d   1     -41.481-122.997 -50.848  0.00  0.00     0.072 A 
ATOM     16  C   UNL d   1     -41.184-123.538 -50.301  0.00  0.00     0.020 A 
ATOM     17  C   UNL d   1     -41.494-123.585 -49.545  0.00  0.00     0.025 A 
ATOM     18  C   UNL d   1     -42.114-123.076 -49.339  0.00  0.00     0.127 A 
ATOM     19  C   UNL d   1     -42.411-122.534 -49.886  0.00  0.00     0.025 A 
ATOM     20  C   UNL d   1     -42.087-122.502 -50.639  0.00  0.00     0.020 A 
BRANCH  18  21
ATOM     21  N   UNL d   1     -42.444-123.121 -48.543  0.00  0.00    -0.114 N 
ATOM     22  O   UNL d   1     -42.386-122.467 -48.043  0.00  0.00    -0.532 OA
ATOM     23  O   UNL d   1     -42.806-123.817 -48.309  0.00  0.00    -0.532 OA
ENDBRANCH  18  21
ENDBRANCH  13  15
ENDBRANCH   1  13
TORSDOF 6
ENDMDL
