MODEL 1
REMARK VINA RESULT:      -1.6      0.000      0.000
REMARK  4 active torsions:
REMARK  status: ('A' for Active; 'I' for Inactive)
REMARK    1  A    between atoms: N_2  and  C_1 
REMARK       I    between atoms: C_6  and  N_2 
REMARK    2  A    between atoms: C_21  and  N_3 
REMARK    3  A    between atoms: C_8  and  C_6 
REMARK       I    between atoms: C_17  and  N_18 
REMARK    4  A    between atoms: N_18  and  C_19 
ROOT
ATOM      1  C   UNL d   1      32.664  22.432 -23.848  0.00  0.00    -0.031 C 
ATOM      2  C   UNL d   1      32.091  22.985 -24.061  0.00  0.00    -0.008 C 
ATOM      3  C   UNL d   1      33.238  21.879 -23.635  0.00  0.00     0.133 C 
ENDROOT
BRANCH   3   4
ATOM      4  N   UNL d   1      33.235  21.540 -22.880  0.00  0.00    -0.278 N 
ATOM      5  C   UNL d   1      33.230  20.737 -22.707  0.00  0.00     0.183 A 
ATOM      6  S   UNL d   1      33.229  20.653 -21.887  0.00  0.00    -0.048 SA
ATOM      7  C   UNL d   1      33.232  21.411 -21.551  0.00  0.00     0.050 A 
ATOM      8  C   UNL d   1      33.232  21.669 -20.767  0.00  0.00     0.027 A 
ATOM      9  C   UNL d   1      33.236  21.962 -22.168  0.00  0.00     0.073 A 
ATOM     10  C   UNL d   1      33.236  22.476 -20.600  0.00  0.00     0.085 A 
ATOM     11  C   UNL d   1      33.240  23.027 -21.217  0.00  0.00     0.021 A 
ATOM     12  C   UNL d   1      33.240  22.770 -22.000  0.00  0.00     0.020 A 
BRANCH   5  13
ATOM     13  N   UNL d   1      33.228  20.125 -23.264  0.00  0.00    -0.183 NA
ATOM     14  C   UNL d   1      32.913  19.391 -23.059  0.00  0.00     0.287 C 
ATOM     15  O   UNL d   1      32.605  19.272 -22.303  0.00  0.00    -0.265 OA
BRANCH  14  16
ATOM     16  C   UNL d   1      32.908  18.775 -23.610  0.00  0.00     0.088 A 
ATOM     17  S   UNL d   1      33.165  17.983 -23.480  0.00  0.00    -0.075 SA
ATOM     18  C   UNL d   1      33.060  17.561 -24.178  0.00  0.00     0.064 A 
ATOM     19 BR   UNL d   1      33.238  16.754 -24.311  0.00  0.00    -0.042 Br
ATOM     20  C   UNL d   1      32.741  18.075 -24.742  0.00  0.00     0.014 A 
ATOM     21  C   UNL d   1      32.650  18.814 -24.392  0.00  0.00     0.012 A 
ENDBRANCH  14  16
ENDBRANCH   5  13
BRANCH  10  22
ATOM     22  N   UNL d   1      33.236  22.741 -19.805  0.00  0.00    -0.208 NA
ATOM     23  C   UNL d   1      32.722  23.332 -19.573  0.00  0.00     0.279 C 
ATOM     24  O   UNL d   1      32.724  23.591 -18.790  0.00  0.00    -0.265 OA
ATOM     25  C   UNL d   1      32.198  23.676 -20.113  0.00  0.00     0.068 C 
ENDBRANCH  10  22
ENDBRANCH   3   4
TORSDOF 4
ENDMDL
MODEL 2
REMARK VINA RESULT:      -0.8      3.264      4.956
REMARK  4 active torsions:
REMARK  status: ('A' for Active; 'I' for Inactive)
REMARK    1  A    between atoms: N_2  and  C_1 
REMARK       I    between atoms: C_6  and  N_2 
REMARK    2  A    between atoms: C_21  and  N_3 
REMARK    3  A    between atoms: C_8  and  C_6 
REMARK       I    between atoms: C_17  and  N_18 
REMARK    4  A    between atoms: N_18  and  C_19 
ROOT
ATOM      1  C   UNL d   1      32.248  16.417 -23.593  0.00  0.00    -0.031 C 
ATOM      2  C   UNL d   1      32.428  15.646 -23.822  0.00  0.00    -0.008 C 
ATOM      3  C   UNL d   1      32.068  17.188 -23.362  0.00  0.00     0.133 C 
ENDROOT
BRANCH   3   4
ATOM      4  N   UNL d   1      31.823  17.746 -23.922  0.00  0.00    -0.278 N 
ATOM      5  C   UNL d   1      31.130  17.722 -24.363  0.00  0.00     0.183 A 
ATOM      6  S   UNL d   1      31.113  18.389 -24.848  0.00  0.00    -0.048 SA
ATOM      7  C   UNL d   1      31.801  18.829 -24.705  0.00  0.00     0.050 A 
ATOM      8  C   UNL d   1      32.081  19.537 -25.022  0.00  0.00     0.027 A 
ATOM      9  C   UNL d   1      32.241  18.430 -24.129  0.00  0.00     0.073 A 
ATOM     10  C   UNL d   1      32.800  19.847 -24.764  0.00  0.00     0.085 A 
ATOM     11  C   UNL d   1      33.241  19.448 -24.189  0.00  0.00     0.021 A 
ATOM     12  C   UNL d   1      32.961  18.740 -23.872  0.00  0.00     0.020 A 
BRANCH   5  13
ATOM     13  N   UNL d   1      30.556  17.128 -24.323  0.00  0.00    -0.183 NA
ATOM     14  C   UNL d   1      29.760  17.326 -24.417  0.00  0.00     0.287 C 
ATOM     15  O   UNL d   1      29.545  18.111 -24.550  0.00  0.00    -0.265 OA
BRANCH  14  16
ATOM     16  C   UNL d   1      29.180  16.738 -24.378  0.00  0.00     0.088 A 
ATOM     17  S   UNL d   1      28.597  16.649 -23.777  0.00  0.00    -0.075 SA
ATOM     18  C   UNL d   1      28.137  15.991 -23.961  0.00  0.00     0.064 A 
ATOM     19 BR   UNL d   1      27.491  15.689 -23.523  0.00  0.00    -0.042 Br
ATOM     20  C   UNL d   1      28.424  15.669 -24.667  0.00  0.00     0.014 A 
ATOM     21  C   UNL d   1      29.060  16.127 -24.918  0.00  0.00     0.012 A 
ENDBRANCH  14  16
ENDBRANCH   5  13
BRANCH  10  22
ATOM     22  N   UNL d   1      33.087  20.566 -25.085  0.00  0.00    -0.208 NA
ATOM     23  C   UNL d   1      32.954  21.269 -24.690  0.00  0.00     0.279 C 
ATOM     24  O   UNL d   1      33.237  21.975 -25.007  0.00  0.00    -0.265 OA
ATOM     25  C   UNL d   1      32.538  21.282 -23.975  0.00  0.00     0.068 C 
ENDBRANCH  10  22
ENDBRANCH   3   4
TORSDOF 4
ENDMDL
MODEL 3
REMARK VINA RESULT:      -0.5      2.728      5.327
REMARK  4 active torsions:
REMARK  status: ('A' for Active; 'I' for Inactive)
REMARK    1  A    between atoms: N_2  and  C_1 
REMARK       I    between atoms: C_6  and  N_2 
REMARK    2  A    between atoms: C_21  and  N_3 
REMARK    3  A    between atoms: C_8  and  C_6 
REMARK       I    between atoms: C_17  and  N_18 
REMARK    4  A    between atoms: N_18  and  C_19 
ROOT
ATOM      1  C   UNL d   1      32.398  23.160 -20.988  0.00  0.00    -0.031 C 
ATOM      2  C   UNL d   1      31.710  23.610 -20.921  0.00  0.00    -0.008 C 
ATOM      3  C   UNL d   1      33.086  22.710 -21.055  0.00  0.00     0.133 C 
ENDROOT
BRANCH   3   4
ATOM      4  N   UNL d   1      33.106  21.930 -20.780  0.00  0.00    -0.278 N 
ATOM      5  C   UNL d   1      33.095  21.691 -19.994  0.00  0.00     0.183 A 
ATOM      6  S   UNL d   1      33.123  20.867 -19.978  0.00  0.00    -0.048 SA
ATOM      7  C   UNL d   1      33.150  20.595 -20.760  0.00  0.00     0.050 A 
ATOM      8  C   UNL d   1      33.183  19.836 -21.081  0.00  0.00     0.027 A 
ATOM      9  C   UNL d   1      33.139  21.255 -21.258  0.00  0.00     0.073 A 
ATOM     10  C   UNL d   1      33.205  19.736 -21.900  0.00  0.00     0.085 A 
ATOM     11  C   UNL d   1      33.195  20.396 -22.398  0.00  0.00     0.021 A 
ATOM     12  C   UNL d   1      33.162  21.155 -22.077  0.00  0.00     0.020 A 
BRANCH   5  13
ATOM     13  N   UNL d   1      33.063  22.195 -19.338  0.00  0.00    -0.183 NA
ATOM     14  C   UNL d   1      33.107  21.876 -18.579  0.00  0.00     0.287 C 
ATOM     15  O   UNL d   1      33.183  21.061 -18.478  0.00  0.00    -0.265 OA
BRANCH  14  16
ATOM     16  C   UNL d   1      33.076  22.374 -17.919  0.00  0.00     0.088 A 
ATOM     17  S   UNL d   1      33.238  22.158 -17.121  0.00  0.00    -0.075 SA
ATOM     18  C   UNL d   1      33.139  22.826 -16.650  0.00  0.00     0.064 A 
ATOM     19 BR   UNL d   1      33.241  22.877 -15.820  0.00  0.00    -0.042 Br
ATOM     20  C   UNL d   1      32.918  23.454 -17.140  0.00  0.00     0.014 A 
ATOM     21  C   UNL d   1      32.880  23.174 -17.914  0.00  0.00     0.012 A 
ENDBRANCH  14  16
ENDBRANCH   5  13
BRANCH  10  22
ATOM     22  N   UNL d   1      33.239  18.966 -22.229  0.00  0.00    -0.208 NA
ATOM     23  C   UNL d   1      32.810  18.793 -22.902  0.00  0.00     0.279 C 
ATOM     24  O   UNL d   1      32.845  18.034 -23.224  0.00  0.00    -0.265 OA
ATOM     25  C   UNL d   1      32.341  19.368 -23.267  0.00  0.00     0.068 C 
ENDBRANCH  10  22
ENDBRANCH   3   4
TORSDOF 4
ENDMDL
MODEL 4
REMARK VINA RESULT:       0.9      2.258      4.824
REMARK  4 active torsions:
REMARK  status: ('A' for Active; 'I' for Inactive)
REMARK    1  A    between atoms: N_2  and  C_1 
REMARK       I    between atoms: C_6  and  N_2 
REMARK    2  A    between atoms: C_21  and  N_3 
REMARK    3  A    between atoms: C_8  and  C_6 
REMARK       I    between atoms: C_17  and  N_18 
REMARK    4  A    between atoms: N_18  and  C_19 
ROOT
ATOM      1  C   UNL d   1      32.255  23.018 -22.759  0.00  0.00    -0.031 C 
ATOM      2  C   UNL d   1      31.519  23.390 -22.788  0.00  0.00    -0.008 C 
ATOM      3  C   UNL d   1      32.990  22.648 -22.730  0.00  0.00     0.133 C 
ENDROOT
BRANCH   3   4
ATOM      4  N   UNL d   1      33.062  21.880 -22.429  0.00  0.00    -0.278 N 
ATOM      5  C   UNL d   1      33.163  21.674 -21.640  0.00  0.00     0.183 A 
ATOM      6  S   UNL d   1      33.207  20.852 -21.595  0.00  0.00    -0.048 SA
ATOM      7  C   UNL d   1      33.133  20.548 -22.362  0.00  0.00     0.050 A 
ATOM      8  C   UNL d   1      33.137  19.776 -22.654  0.00  0.00     0.027 A 
ATOM      9  C   UNL d   1      33.043  21.186 -22.880  0.00  0.00     0.073 A 
ATOM     10  C   UNL d   1      33.049  19.643 -23.463  0.00  0.00     0.085 A 
ATOM     11  C   UNL d   1      32.959  20.281 -23.981  0.00  0.00     0.021 A 
ATOM     12  C   UNL d   1      32.956  21.052 -23.689  0.00  0.00     0.020 A 
BRANCH   5  13
ATOM     13  N   UNL d   1      33.211  22.205 -21.007  0.00  0.00    -0.183 NA
ATOM     14  C   UNL d   1      32.815  22.034 -20.303  0.00  0.00     0.287 C 
ATOM     15  O   UNL d   1      32.377  21.338 -20.236  0.00  0.00    -0.265 OA
BRANCH  14  16
ATOM     16  C   UNL d   1      32.858  22.559 -19.666  0.00  0.00     0.088 A 
ATOM     17  S   UNL d   1      33.096  22.375 -18.879  0.00  0.00    -0.075 SA
ATOM     18  C   UNL d   1      33.055  23.063 -18.431  0.00  0.00     0.064 A 
ATOM     19 BR   UNL d   1      33.240  23.147 -17.618  0.00  0.00    -0.042 Br
ATOM     20  C   UNL d   1      32.797  23.675 -18.924  0.00  0.00     0.014 A 
ATOM     21  C   UNL d   1      32.678  23.363 -19.677  0.00  0.00     0.012 A 
ENDBRANCH  14  16
ENDBRANCH   5  13
BRANCH  10  22
ATOM     22  N   UNL d   1      33.052  18.860 -23.763  0.00  0.00    -0.208 NA
ATOM     23  C   UNL d   1      32.532  18.307 -23.460  0.00  0.00     0.279 C 
ATOM     24  O   UNL d   1      32.537  17.538 -23.757  0.00  0.00    -0.265 OA
ATOM     25  C   UNL d   1      32.000  18.508 -22.860  0.00  0.00     0.068 C 
ENDBRANCH  10  22
ENDBRANCH   3   4
TORSDOF 4
ENDMDL
