MODEL 1
REMARK VINA RESULT:      66.6      0.000      0.000
REMARK  2 active torsions:
REMARK  status: ('A' for Active; 'I' for Inactive)
REMARK    1  A    between atoms: N_2  and  S_1 
REMARK    2  A    between atoms: C_3  and  S_1 
ROOT
ATOM      1  S   UNL d   1     -47.256  31.583  35.078  0.00  0.00     0.274 S 
ATOM      2  O   UNL d   1     -46.932  32.113  35.634  0.00  0.00    -0.200 OA
ATOM      3  O   UNL d   1     -47.578  31.058  34.519  0.00  0.00    -0.200 OA
ENDROOT
BRANCH   1   4
ATOM      4  N   UNL d   1     -47.330  31.005  35.675  0.00  0.00    -0.212 N 
ATOM      5  C   UNL d   1     -47.234  31.036  36.487  0.00  0.00     0.193 A 
ATOM      6  N   UNL d   1     -47.384  30.278  36.796  0.00  0.00    -0.223 NA
ATOM      7  C   UNL d   1     -47.574  29.780  36.158  0.00  0.00     0.100 A 
ATOM      8  C   UNL d   1     -47.538  30.236  35.478  0.00  0.00     0.094 A 
ATOM      9  C   UNL d   1     -47.771  28.981  36.127  0.00  0.00     0.021 A 
ATOM     10  C   UNL d   1     -47.705  29.878  34.737  0.00  0.00     0.020 A 
ATOM     11  C   UNL d   1     -47.906  29.069  34.697  0.00  0.00     0.002 A 
ATOM     12  C   UNL d   1     -47.934  28.633  35.403  0.00  0.00     0.002 A 
ENDBRANCH   1   4
BRANCH   1  13
ATOM     13  C   UNL d   1     -47.178  32.164  34.489  0.00  0.00     0.122 A 
ATOM     14  C   UNL d   1     -47.824  32.604  34.257  0.00  0.00     0.093 A 
ATOM     15  N   UNL d   1     -48.561  32.476  34.606  0.00  0.00    -0.243 NA
ATOM     16  C   UNL d   1     -47.746  33.185  33.667  0.00  0.00     0.018 A 
ATOM     17  C   UNL d   1     -49.204  32.915  34.375  0.00  0.00     0.099 A 
ATOM     18  C   UNL d   1     -49.147  33.505  33.783  0.00  0.00     0.021 A 
ATOM     19  C   UNL d   1     -48.412  33.628  33.438  0.00  0.00     0.003 A 
ATOM     20  C   UNL d   1     -47.032  33.318  33.319  0.00  0.00     0.002 A 
ATOM     21  C   UNL d   1     -46.385  32.882  33.547  0.00  0.00     0.001 A 
ATOM     22  C   UNL d   1     -46.444  32.294  34.138  0.00  0.00     0.014 A 
ENDBRANCH   1  13
TORSDOF 2
ENDMDL
