MODEL 1
REMARK VINA RESULT:      -2.9      0.000      0.000
REMARK  3 active torsions:
REMARK  status: ('A' for Active; 'I' for Inactive)
REMARK    1  A    between atoms: N_2  and  S_1 
REMARK    2  A    between atoms: C_5  and  S_1 
REMARK    3  A    between atoms: C_4  and  C_3 
ROOT
ATOM      1  N   UNL d   1      31.920  16.093 -24.577  0.00  0.00    -0.223 N 
ATOM      2  C   UNL d   1      32.558  16.593 -24.397  0.00  0.00     0.127 A 
ATOM      3  S   UNL d   1      33.241  16.259 -24.718  0.00  0.00    -0.065 SA
ATOM      4  C   UNL d   1      32.211  15.453 -25.009  0.00  0.00     0.099 A 
ATOM      5  C   UNL d   1      33.025  15.553 -25.097  0.00  0.00     0.057 A 
ENDROOT
BRANCH   1   6
ATOM      6  S   UNL d   1      31.127  16.216 -24.362  0.00  0.00     0.272 S 
ATOM      7  O   UNL d   1      30.658  16.725 -24.796  0.00  0.00    -0.200 OA
ATOM      8  O   UNL d   1      30.823  15.820 -23.706  0.00  0.00    -0.200 OA
BRANCH   6   9
ATOM      9  C   UNL d   1      30.347  16.311 -24.115  0.00  0.00     0.104 A 
ATOM     10  C   UNL d   1      29.829  16.785 -24.542  0.00  0.00     0.014 A 
ATOM     11  C   UNL d   1      29.052  16.877 -24.294  0.00  0.00     0.012 A 
ATOM     12  C   UNL d   1      28.788  16.491 -23.610  0.00  0.00     0.058 A 
ATOM     13  C   UNL d   1      29.314  16.011 -23.179  0.00  0.00     0.012 A 
ATOM     14 CL   UNL d   1      28.010  16.581 -23.359  0.00  0.00    -0.082 Cl
ATOM     15  C   UNL d   1      30.092  15.924 -23.434  0.00  0.00     0.014 A 
ENDBRANCH   6   9
ENDBRANCH   1   6
BRANCH   2  16
ATOM     16  C   UNL d   1      32.517  17.294 -23.974  0.00  0.00     0.123 A 
ATOM     17  O   UNL d   1      32.530  17.369 -23.152  0.00  0.00    -0.303 OA
ATOM     18  C   UNL d   1      32.477  18.169 -22.966  0.00  0.00     0.123 A 
ATOM     19  C   UNL d   1      32.431  18.595 -23.673  0.00  0.00     0.029 A 
ATOM     20  C   UNL d   1      32.456  18.052 -24.296  0.00  0.00     0.029 A 
ENDBRANCH   2  16
TORSDOF 3
ENDMDL
MODEL 2
REMARK VINA RESULT:      -2.3      1.092      1.205
REMARK  3 active torsions:
REMARK  status: ('A' for Active; 'I' for Inactive)
REMARK    1  A    between atoms: N_2  and  S_1 
REMARK    2  A    between atoms: C_5  and  S_1 
REMARK    3  A    between atoms: C_4  and  C_3 
ROOT
ATOM      1  N   UNL d   1      31.968  16.011 -23.501  0.00  0.00    -0.223 N 
ATOM      2  C   UNL d   1      32.441  16.656 -23.723  0.00  0.00     0.127 A 
ATOM      3  S   UNL d   1      33.216  16.494 -23.493  0.00  0.00    -0.065 SA
ATOM      4  C   UNL d   1      32.453  15.453 -23.135  0.00  0.00     0.099 A 
ATOM      5  C   UNL d   1      33.223  15.748 -23.128  0.00  0.00     0.057 A 
ENDROOT
BRANCH   1   6
ATOM      6  S   UNL d   1      31.150  15.939 -23.626  0.00  0.00     0.272 S 
ATOM      7  O   UNL d   1      30.624  16.311 -23.123  0.00  0.00    -0.200 OA
ATOM      8  O   UNL d   1      30.878  15.491 -24.261  0.00  0.00    -0.200 OA
BRANCH   6   9
ATOM      9  C   UNL d   1      30.348  15.844 -23.784  0.00  0.00     0.104 A 
ATOM     10  C   UNL d   1      30.098  15.547 -24.510  0.00  0.00     0.014 A 
ATOM     11  C   UNL d   1      29.297  15.453 -24.665  0.00  0.00     0.012 A 
ATOM     12  C   UNL d   1      28.738  15.656 -24.089  0.00  0.00     0.058 A 
ATOM     13  C   UNL d   1      28.993  15.956 -23.355  0.00  0.00     0.012 A 
ATOM     14 CL   UNL d   1      27.935  15.563 -24.241  0.00  0.00    -0.082 Cl
ATOM     15  C   UNL d   1      29.797  16.048 -23.207  0.00  0.00     0.014 A 
ENDBRANCH   6   9
ENDBRANCH   1   6
BRANCH   2  16
ATOM     16  C   UNL d   1      32.183  17.335 -24.104  0.00  0.00     0.123 A 
ATOM     17  O   UNL d   1      31.822  17.986 -23.747  0.00  0.00    -0.303 OA
ATOM     18  C   UNL d   1      31.655  18.540 -24.333  0.00  0.00     0.123 A 
ATOM     19  C   UNL d   1      31.913  18.235 -25.057  0.00  0.00     0.029 A 
ATOM     20  C   UNL d   1      32.239  17.489 -24.913  0.00  0.00     0.029 A 
ENDBRANCH   2  16
TORSDOF 3
ENDMDL
MODEL 3
REMARK VINA RESULT:      -2.1      1.751      3.225
REMARK  3 active torsions:
REMARK  status: ('A' for Active; 'I' for Inactive)
REMARK    1  A    between atoms: N_2  and  S_1 
REMARK    2  A    between atoms: C_5  and  S_1 
REMARK    3  A    between atoms: C_4  and  C_3 
ROOT
ATOM      1  N   UNL d   1      32.630  16.666 -24.398  0.00  0.00    -0.223 N 
ATOM      2  C   UNL d   1      31.896  16.381 -24.663  0.00  0.00     0.127 A 
ATOM      3  S   UNL d   1      32.020  15.638 -24.999  0.00  0.00    -0.065 SA
ATOM      4  C   UNL d   1      33.203  16.098 -24.571  0.00  0.00     0.099 A 
ATOM      5  C   UNL d   1      32.829  15.463 -24.942  0.00  0.00     0.057 A 
ENDROOT
BRANCH   1   6
ATOM      6  S   UNL d   1      32.764  17.395 -24.023  0.00  0.00     0.272 S 
ATOM      7  O   UNL d   1      33.060  18.027 -24.448  0.00  0.00    -0.200 OA
ATOM      8  O   UNL d   1      32.594  17.472 -23.220  0.00  0.00    -0.200 OA
BRANCH   6   9
ATOM      9  C   UNL d   1      32.882  18.100 -23.614  0.00  0.00     0.104 A 
ATOM     10  C   UNL d   1      32.816  18.823 -24.002  0.00  0.00     0.014 A 
ATOM     11  C   UNL d   1      32.934  19.524 -23.592  0.00  0.00     0.012 A 
ATOM     12  C   UNL d   1      33.121  19.506 -22.786  0.00  0.00     0.058 A 
ATOM     13  C   UNL d   1      33.188  18.773 -22.395  0.00  0.00     0.012 A 
ATOM     14 CL   UNL d   1      33.241  20.207 -22.373  0.00  0.00    -0.082 Cl
ATOM     15  C   UNL d   1      33.068  18.074 -22.812  0.00  0.00     0.014 A 
ENDBRANCH   6   9
ENDBRANCH   1   6
BRANCH   2  16
ATOM     16  C   UNL d   1      31.177  16.769 -24.601  0.00  0.00     0.123 A 
ATOM     17  O   UNL d   1      30.904  17.370 -25.097  0.00  0.00    -0.303 OA
ATOM     18  C   UNL d   1      30.158  17.600 -24.835  0.00  0.00     0.123 A 
ATOM     19  C   UNL d   1      29.964  17.141 -24.175  0.00  0.00     0.029 A 
ATOM     20  C   UNL d   1      30.597  16.628 -24.032  0.00  0.00     0.029 A 
ENDBRANCH   2  16
TORSDOF 3
ENDMDL
