MODEL 1
REMARK VINA RESULT:      27.7      0.000      0.000
REMARK  7 active torsions:
REMARK  status: ('A' for Active; 'I' for Inactive)
REMARK    1  A    between atoms: C_3  and  S_1 
REMARK    2  A    between atoms: N_4  and  S_1 
REMARK    3  A    between atoms: C_6  and  C_2 
REMARK       I    between atoms: N_13  and  C_6 
REMARK    4  A    between atoms: C_17  and  N_13 
REMARK    5  A    between atoms: C_18  and  C_17 
REMARK    6  A    between atoms: C_20  and  C_18 
REMARK    7  A    between atoms: C_19  and  C_20 
ROOT
ATOM      1  C   UNL d   1      13.300  13.331  -4.175  0.00  0.00     0.086 A 
ATOM      2  C   UNL d   1      13.555  12.411  -3.106  0.00  0.00     0.104 A 
ATOM      3  C   UNL d   1      13.562  13.180  -3.402  0.00  0.00     0.020 A 
ATOM      4  C   UNL d   1      13.033  12.711  -4.647  0.00  0.00     0.145 A 
ATOM      5  C   UNL d   1      13.286  11.785  -3.581  0.00  0.00     0.015 A 
ATOM      6  C   UNL d   1      13.027  11.934  -4.344  0.00  0.00     0.030 A 
ATOM      7  F   UNL d   1      12.772  12.850  -5.412  0.00  0.00    -0.204 F 
ENDROOT
BRANCH   2   8
ATOM      8  S   UNL d   1      13.818  12.259  -2.330  0.00  0.00     0.271 S 
ATOM      9  O   UNL d   1      14.595  12.207  -2.617  0.00  0.00    -0.200 OA
ATOM     10  O   UNL d   1      13.042  12.314  -2.056  0.00  0.00    -0.200 OA
BRANCH   8  11
ATOM     11  N   UNL d   1      14.087  12.109  -1.567  0.00  0.00    -0.229 N 
ATOM     12  C   UNL d   1      13.547  11.929  -0.973  0.00  0.00     0.092 A 
ATOM     13  C   UNL d   1      13.821  11.779  -0.210  0.00  0.00     0.020 A 
ATOM     14  C   UNL d   1      14.622  11.809  -0.041  0.00  0.00     0.003 A 
ATOM     15  C   UNL d   1      15.161  11.991  -0.640  0.00  0.00     0.020 A 
ATOM     16  C   UNL d   1      14.891  12.142  -1.407  0.00  0.00     0.092 A 
ENDBRANCH   8  11
ENDBRANCH   2   8
BRANCH   1  17
ATOM     17  C   UNL d   1      13.309  14.104  -4.469  0.00  0.00     0.281 C 
ATOM     18  O   UNL d   1      12.959  14.262  -5.202  0.00  0.00    -0.265 OA
ATOM     19  N   UNL d   1      13.661  14.711  -4.040  0.00  0.00    -0.206 NA
BRANCH  19  20
ATOM     20  C   UNL d   1      13.670  15.484  -4.331  0.00  0.00     0.102 C 
BRANCH  20  21
ATOM     21  C   UNL d   1      14.229  16.023  -4.063  0.00  0.00     0.021 C 
BRANCH  21  22
ATOM     22  C   UNL d   1      14.461  16.010  -3.276  0.00  0.00     0.002 C 
BRANCH  22  23
ATOM     23  C   UNL d   1      14.871  16.653  -2.954  0.00  0.00     0.000 C 
ATOM     24  C   UNL d   1      15.178  16.609  -2.193  0.00  0.00     0.000 C 
ENDBRANCH  22  23
ENDBRANCH  21  22
ENDBRANCH  20  21
ENDBRANCH  19  20
ENDBRANCH   1  17
TORSDOF 7
ENDMDL
