MODEL 1
REMARK VINA RESULT:      49.0      0.000      0.000
REMARK  3 active torsions:
REMARK  status: ('A' for Active; 'I' for Inactive)
REMARK    1  A    between atoms: C_7  and  C_1 
REMARK    2  A    between atoms: O_20  and  C_12 
REMARK    3  A    between atoms: O_22  and  C_16 
ROOT
ATOM      1  C   UNL d   1     -51.334  25.945  33.516  0.00  0.00     0.062 A 
ATOM      2  C   UNL d   1     -51.252  25.116  33.462  0.00  0.00     0.202 A 
ATOM      3  C   UNL d   1     -51.921  24.631  33.423  0.00  0.00     0.101 A 
ATOM      4  C   UNL d   1     -52.098  26.285  33.531  0.00  0.00     0.103 A 
ATOM      5  C   UNL d   1     -52.684  24.975  33.438  0.00  0.00     0.109 A 
ATOM      6  O   UNL d   1     -52.775  25.794  33.492  0.00  0.00    -0.307 OA
ATOM      7  C   UNL d   1     -51.838  23.815  33.370  0.00  0.00     0.204 A 
ATOM      8  C   UNL d   1     -53.353  24.490  33.400  0.00  0.00     0.067 A 
ATOM      9  C   UNL d   1     -52.505  23.334  33.331  0.00  0.00     0.084 A 
ATOM     10  O   UNL d   1     -50.499  24.781  33.447  0.00  0.00    -0.286 OA
ATOM     11  C   UNL d   1     -53.259  23.670  33.346  0.00  0.00     0.201 A 
ATOM     12  O   UNL d   1     -51.084  23.479  33.355  0.00  0.00    -0.286 OA
ATOM     13  C   UNL d   1     -52.178  27.099  33.585  0.00  0.00     0.027 C 
ATOM     14  O   UNL d   1     -53.926  23.189  33.307  0.00  0.00    -0.286 OA
ENDROOT
BRANCH   1  15
ATOM     15  C   UNL d   1     -50.669  26.422  33.555  0.00  0.00     0.007 A 
ATOM     16  C   UNL d   1     -50.751  27.240  33.513  0.00  0.00     0.026 A 
ATOM     17  C   UNL d   1     -50.084  27.721  33.551  0.00  0.00     0.116 A 
ATOM     18  C   UNL d   1     -49.328  27.381  33.632  0.00  0.00     0.116 A 
ATOM     19  C   UNL d   1     -49.257  26.559  33.673  0.00  0.00     0.026 A 
ATOM     20  C   UNL d   1     -49.923  26.078  33.635  0.00  0.00     0.002 A 
BRANCH  17  21
ATOM     21  O   UNL d   1     -50.164  28.544  33.509  0.00  0.00    -0.326 OA
ATOM     22  C   UNL d   1     -50.893  28.873  33.306  0.00  0.00     0.181 C 
ENDBRANCH  17  21
BRANCH  18  23
ATOM     23  O   UNL d   1     -48.661  27.863  33.670  0.00  0.00    -0.326 OA
ATOM     24  C   UNL d   1     -48.016  27.641  34.136  0.00  0.00     0.181 C 
ENDBRANCH  18  23
ENDBRANCH   1  15
TORSDOF 3
ENDMDL
