MODEL 1
REMARK VINA RESULT:      10.5      0.000      0.000
REMARK  3 active torsions:
REMARK  status: ('A' for Active; 'I' for Inactive)
REMARK    1  A    between atoms: C_6  and  C_1 
REMARK    2  A    between atoms: C_7  and  C_5 
REMARK    3  A    between atoms: O_11  and  C_6 
ROOT
ATOM      1  C   UNL d   1      45.663 -15.887  44.358  0.00  0.00     0.167 A 
ATOM      2  C   UNL d   1      45.697 -16.142  43.618  0.00  0.00     0.047 A 
ATOM      3  N   UNL d   1      45.972 -17.129  44.800  0.00  0.00    -0.148 NA
ATOM      4  N   UNL d   1      45.801 -16.384  44.955  0.00  0.00    -0.143 NA
ATOM      5  C   UNL d   1      46.007 -17.386  44.052  0.00  0.00     0.105 A 
ENDROOT
BRANCH   5   6
ATOM      6  C   UNL d   1      46.167 -18.114  43.697  0.00  0.00     0.019 A 
ATOM      7  C   UNL d   1      46.184 -18.159  42.866  0.00  0.00     0.002 A 
ATOM      8  C   UNL d   1      46.344 -18.885  42.502  0.00  0.00     0.011 A 
ATOM      9  C   UNL d   1      46.485 -19.560  42.970  0.00  0.00     0.058 A 
ATOM     10  C   UNL d   1      46.464 -19.499  43.794  0.00  0.00     0.011 A 
ATOM     11 CL   UNL d   1      46.647 -20.298  42.596  0.00  0.00    -0.082 Cl
ATOM     12  C   UNL d   1      46.306 -18.780  44.152  0.00  0.00     0.002 A 
ENDBRANCH   5   6
BRANCH   1  13
ATOM     13  C   UNL d   1      45.489 -15.130  44.509  0.00  0.00     0.316 C 
ATOM     14  O   UNL d   1      44.737 -14.883  44.482  0.00  0.00    -0.257 OA
BRANCH  13  15
ATOM     15  O   UNL d   1      46.098 -14.607  44.693  0.00  0.00    -0.294 OA
ATOM     16  C   UNL d   1      45.912 -13.820  44.946  0.00  0.00     0.185 C 
ENDBRANCH  13  15
ENDBRANCH   1  13
TORSDOF 3
ENDMDL
MODEL 2
REMARK VINA RESULT:      10.9      2.546      4.191
REMARK  3 active torsions:
REMARK  status: ('A' for Active; 'I' for Inactive)
REMARK    1  A    between atoms: C_6  and  C_1 
REMARK    2  A    between atoms: C_7  and  C_5 
REMARK    3  A    between atoms: O_11  and  C_6 
ROOT
ATOM      1  C   UNL d   1      46.257 -17.833  43.944  0.00  0.00     0.167 A 
ATOM      2  C   UNL d   1      46.279 -17.220  43.456  0.00  0.00     0.047 A 
ATOM      3  N   UNL d   1      45.880 -17.015  44.955  0.00  0.00    -0.148 NA
ATOM      4  N   UNL d   1      46.057 -17.731  44.700  0.00  0.00    -0.143 NA
ATOM      5  C   UNL d   1      45.902 -16.396  44.462  0.00  0.00     0.105 A 
ENDROOT
BRANCH   5   6
ATOM      6  C   UNL d   1      45.754 -15.588  44.541  0.00  0.00     0.019 A 
ATOM      7  C   UNL d   1      46.338 -15.048  44.297  0.00  0.00     0.002 A 
ATOM      8  C   UNL d   1      46.197 -14.235  44.372  0.00  0.00     0.011 A 
ATOM      9  C   UNL d   1      45.476 -13.969  44.691  0.00  0.00     0.058 A 
ATOM     10  C   UNL d   1      44.905 -14.518  44.929  0.00  0.00     0.011 A 
ATOM     11 CL   UNL d   1      45.335 -13.141  44.766  0.00  0.00    -0.082 Cl
ATOM     12  C   UNL d   1      45.046 -15.321  44.853  0.00  0.00     0.002 A 
ENDBRANCH   5   6
BRANCH   1  13
ATOM     13  C   UNL d   1      46.437 -18.557  43.679  0.00  0.00     0.316 C 
ATOM     14  O   UNL d   1      46.434 -19.173  44.176  0.00  0.00    -0.257 OA
BRANCH  13  15
ATOM     15  O   UNL d   1      46.627 -18.657  42.884  0.00  0.00    -0.294 OA
ATOM     16  C   UNL d   1      46.635 -19.436  42.550  0.00  0.00     0.185 C 
ENDBRANCH  13  15
ENDBRANCH   1  13
TORSDOF 3
ENDMDL
