MODEL 1
REMARK VINA RESULT:      80.8      0.000      0.000
REMARK  4 active torsions:
REMARK  status: ('A' for Active; 'I' for Inactive)
REMARK    1  A    between atoms: C_6  and  C_1 
REMARK    2  A    between atoms: C_10  and  C_2 
REMARK       I    between atoms: N_14  and  C_6 
REMARK    3  A    between atoms: C_8  and  C_15 
REMARK    4  A    between atoms: C_21  and  N_14 
ROOT
ATOM      1  C   UNL d   1      14.591  14.787  -2.001  0.00  0.00     0.283 C 
ATOM      2  N   UNL d   1      15.173  14.985  -2.548  0.00  0.00    -0.208 NA
ATOM      3  O   UNL d   1      13.893  15.227  -1.949  0.00  0.00    -0.265 OA
ENDROOT
BRANCH   2   4
ATOM      4  C   UNL d   1      15.054  15.631  -3.048  0.00  0.00     0.085 A 
ATOM      5  C   UNL d   1      14.940  16.388  -2.741  0.00  0.00     0.019 A 
ATOM      6  C   UNL d   1      14.821  17.033  -3.244  0.00  0.00     0.003 A 
ATOM      7  C   UNL d   1      14.816  16.916  -4.059  0.00  0.00     0.020 A 
ATOM      8  C   UNL d   1      14.929  16.163  -4.380  0.00  0.00     0.003 A 
ATOM      9  C   UNL d   1      15.048  15.517  -3.881  0.00  0.00     0.019 A 
BRANCH   7  10
ATOM     10  C   UNL d   1      14.697  17.557  -4.565  0.00  0.00     0.118 A 
ATOM     11  N   UNL d   1      15.142  18.249  -4.583  0.00  0.00    -0.059 NA
ATOM     12  C   UNL d   1      14.829  18.733  -5.170  0.00  0.00     0.735 A 
ATOM     13  N   UNL d   1      15.052  19.485  -5.429  0.00  0.00    -0.059 NA
ATOM     14  N   UNL d   1      14.200  18.347  -5.512  0.00  0.00    -0.136 N 
ATOM     15  C   UNL d   1      14.630  19.841  -6.039  0.00  0.00     0.119 A 
ATOM     16  C   UNL d   1      13.991  19.453  -6.388  0.00  0.00     0.041 A 
ATOM     17  C   UNL d   1      13.774  18.708  -6.128  0.00  0.00     0.100 A 
ATOM     18  C   UNL d   1      14.117  17.618  -5.139  0.00  0.00     0.118 A 
ENDBRANCH   7  10
ENDBRANCH   2   4
BRANCH   1  19
ATOM     19  C   UNL d   1      14.699  14.142  -1.496  0.00  0.00     0.102 A 
ATOM     20  C   UNL d   1      14.475  13.367  -1.646  0.00  0.00     0.116 A 
ATOM     21  N   UNL d   1      14.693  12.910  -0.987  0.00  0.00    -0.126 NA
ATOM     22  O   UNL d   1      15.050  13.414  -0.441  0.00  0.00    -0.211 OA
ATOM     23  C   UNL d   1      15.056  14.177  -0.751  0.00  0.00     0.131 A 
ATOM     24  C   UNL d   1      15.357  14.850  -0.394  0.00  0.00     0.029 C 
BRANCH  20  25
ATOM     25  C   UNL d   1      14.106  13.087  -2.313  0.00  0.00     0.031 A 
ATOM     26  C   UNL d   1      14.164  12.297  -2.513  0.00  0.00     0.059 A 
ATOM     27 CL   UNL d   1      14.594  11.780  -2.045  0.00  0.00    -0.082 Cl
ATOM     28  C   UNL d   1      13.786  12.020  -3.195  0.00  0.00     0.011 A 
ATOM     29  C   UNL d   1      13.356  12.537  -3.663  0.00  0.00     0.001 A 
ATOM     30  C   UNL d   1      13.295  13.333  -3.466  0.00  0.00     0.000 A 
ATOM     31  C   UNL d   1      13.673  13.611  -2.785  0.00  0.00     0.002 A 
ENDBRANCH  20  25
ENDBRANCH   1  19
TORSDOF 4
ENDMDL
