MODEL 1
REMARK VINA RESULT:      10.2      0.000      0.000
REMARK  3 active torsions:
REMARK  status: ('A' for Active; 'I' for Inactive)
REMARK    1  A    between atoms: C_3  and  C_9 
REMARK    2  A    between atoms: C_6  and  C_4 
REMARK    3  A    between atoms: C_9  and  C_6 
ROOT
ATOM      1  C   UNL d   1      60.368  49.697  50.590  0.00  0.00     0.199 A 
ATOM      2  C   UNL d   1      61.021  49.692  51.077  0.00  0.00     0.084 A 
ATOM      3  C   UNL d   1      59.608  49.703  50.912  0.00  0.00     0.039 A 
ATOM      4  C   UNL d   1      59.513  49.704  51.716  0.00  0.00     0.006 A 
ATOM      5  C   UNL d   1      60.918  49.693  51.890  0.00  0.00     0.199 A 
ATOM      6  O   UNL d   1      60.474  49.696  49.769  0.00  0.00    -0.286 OA
ATOM      7  C   UNL d   1      60.159  49.699  52.212  0.00  0.00     0.042 A 
ATOM      8  O   UNL d   1      61.572  49.688  52.377  0.00  0.00    -0.286 OA
ENDROOT
BRANCH   3   9
ATOM      9  C   UNL d   1      58.949  49.708  50.414  0.00  0.00     0.009 C 
BRANCH   9  10
ATOM     10  C   UNL d   1      58.190  49.707  50.737  0.00  0.00     0.070 C 
BRANCH  10  11
ATOM     11  C   UNL d   1      57.531  49.697  50.240  0.00  0.00     0.211 C 
ATOM     12  O   UNL d   1      56.777  49.687  50.563  0.00  0.00    -0.644 OA
ATOM     13  O   UNL d   1      57.630  49.696  49.439  0.00  0.00    -0.644 OA
ENDBRANCH  10  11
ENDBRANCH   9  10
ENDBRANCH   3   9
TORSDOF 3
ENDMDL
