MODEL 1
REMARK VINA RESULT:       0.7      0.000      0.000
REMARK  7 active torsions:
REMARK  status: ('A' for Active; 'I' for Inactive)
REMARK    1  A    between atoms: S_2  and  C_1 
REMARK    2  A    between atoms: C_9  and  S_2 
REMARK    3  A    between atoms: C_10  and  N_3 
REMARK    4  A    between atoms: C_8  and  C_10 
REMARK       I    between atoms: N_15  and  C_8 
REMARK    5  A    between atoms: C_20  and  N_15 
REMARK    6  A    between atoms: O_32  and  C_21 
REMARK    7  A    between atoms: C_33  and  C_27 
ROOT
ATOM      1  C   UNL d   1      57.595   0.172  31.858  0.00  0.00     0.144 A 
ATOM      2  N   UNL d   1      58.324   0.178  30.626  0.00  0.00    -0.299 N 
ATOM      3  C   UNL d   1      58.305   0.298  32.271  0.00  0.00     0.209 A 
ATOM      4  C   UNL d   1      57.605   0.112  31.036  0.00  0.00     0.095 A 
ATOM      5  C   UNL d   1      59.016   0.364  31.861  0.00  0.00     0.058 A 
ATOM      6  C   UNL d   1      59.026   0.304  31.038  0.00  0.00     0.068 A 
ATOM      7  C   UNL d   1      59.736   0.369  30.628  0.00  0.00     0.020 A 
ATOM      8  C   UNL d   1      59.717   0.489  32.273  0.00  0.00     0.029 A 
ATOM      9  O   UNL d   1      58.296   0.359  33.098  0.00  0.00    -0.286 OA
ATOM     10  C   UNL d   1      60.432   0.555  31.863  0.00  0.00     0.094 A 
ATOM     11  C   UNL d   1      60.442   0.495  31.040  0.00  0.00     0.026 A 
ENDROOT
BRANCH   2  12
ATOM     12  C   UNL d   1      58.333   0.118  29.803  0.00  0.00     0.144 C 
BRANCH  12  13
ATOM     13  C   UNL d   1      58.367  -0.622  29.443  0.00  0.00     0.297 C 
ATOM     14  N   UNL d   1      58.522  -1.295  29.895  0.00  0.00    -0.207 NA
ATOM     15  O   UNL d   1      58.247  -0.688  28.631  0.00  0.00    -0.264 OA
BRANCH  14  16
ATOM     16  C   UNL d   1      58.556  -2.034  29.534  0.00  0.00     0.085 A 
ATOM     17  C   UNL d   1      58.120  -2.178  28.851  0.00  0.00     0.019 A 
ATOM     18  C   UNL d   1      58.154  -2.917  28.490  0.00  0.00     0.002 A 
ATOM     19  C   UNL d   1      58.625  -3.513  28.813  0.00  0.00     0.000 A 
ATOM     20  C   UNL d   1      59.063  -3.367  29.499  0.00  0.00     0.002 A 
ATOM     21  C   UNL d   1      59.028  -2.627  29.859  0.00  0.00     0.019 A 
BRANCH  19  22
ATOM     22  C   UNL d   1      58.664  -4.258  28.456  0.00  0.00     0.000 C 
ATOM     23  C   UNL d   1      59.331  -4.727  28.574  0.00  0.00     0.000 C 
ENDBRANCH  19  22
ENDBRANCH  14  16
ENDBRANCH  12  13
ENDBRANCH   2  12
BRANCH   1  24
ATOM     24  S   UNL d   1      56.881   0.106  32.269  0.00  0.00     0.214 S 
ATOM     25  O   UNL d   1      57.281  -0.208  32.918  0.00  0.00    -0.217 OA
ATOM     26  O   UNL d   1      56.470   0.423  31.616  0.00  0.00    -0.217 OA
BRANCH  24  27
ATOM     27  C   UNL d   1      56.165   0.038  32.685  0.00  0.00     0.088 A 
ATOM     28  C   UNL d   1      55.869   0.680  33.115  0.00  0.00     0.014 A 
ATOM     29  C   UNL d   1      55.160   0.609  33.525  0.00  0.00     0.030 A 
ATOM     30  C   UNL d   1      54.736  -0.099  33.512  0.00  0.00     0.140 A 
ATOM     31  C   UNL d   1      55.034  -0.743  33.080  0.00  0.00     0.030 A 
ATOM     32  F   UNL d   1      54.023  -0.169  33.925  0.00  0.00    -0.204 F 
ATOM     33  C   UNL d   1      55.745  -0.671  32.670  0.00  0.00     0.014 A 
ENDBRANCH  24  27
ENDBRANCH   1  24
BRANCH  10  34
ATOM     34  O   UNL d   1      61.133   0.682  32.288  0.00  0.00    -0.328 OA
ATOM     35  C   UNL d   1      61.117   0.656  33.117  0.00  0.00     0.181 C 
ENDBRANCH  10  34
TORSDOF 7
ENDMDL
MODEL 2
REMARK VINA RESULT:       3.0      0.906      1.179
REMARK  7 active torsions:
REMARK  status: ('A' for Active; 'I' for Inactive)
REMARK    1  A    between atoms: S_2  and  C_1 
REMARK    2  A    between atoms: C_9  and  S_2 
REMARK    3  A    between atoms: C_10  and  N_3 
REMARK    4  A    between atoms: C_8  and  C_10 
REMARK       I    between atoms: N_15  and  C_8 
REMARK    5  A    between atoms: C_20  and  N_15 
REMARK    6  A    between atoms: O_32  and  C_21 
REMARK    7  A    between atoms: C_33  and  C_27 
ROOT
ATOM      1  C   UNL d   1      56.968   0.507  32.658  0.00  0.00     0.144 A 
ATOM      2  N   UNL d   1      57.649   0.459  31.399  0.00  0.00    -0.299 N 
ATOM      3  C   UNL d   1      57.702   0.562  33.045  0.00  0.00     0.209 A 
ATOM      4  C   UNL d   1      56.942   0.456  31.835  0.00  0.00     0.095 A 
ATOM      5  C   UNL d   1      58.400   0.565  32.609  0.00  0.00     0.058 A 
ATOM      6  C   UNL d   1      58.374   0.513  31.786  0.00  0.00     0.068 A 
ATOM      7  C   UNL d   1      59.072   0.517  31.350  0.00  0.00     0.020 A 
ATOM      8  C   UNL d   1      59.125   0.619  32.996  0.00  0.00     0.029 A 
ATOM      9  O   UNL d   1      57.728   0.613  33.872  0.00  0.00    -0.286 OA
ATOM     10  C   UNL d   1      59.827   0.622  32.559  0.00  0.00     0.094 A 
ATOM     11  C   UNL d   1      59.801   0.571  31.736  0.00  0.00     0.026 A 
ENDROOT
BRANCH   2  12
ATOM     12  C   UNL d   1      57.622   0.408  30.576  0.00  0.00     0.144 C 
BRANCH  12  13
ATOM     13  C   UNL d   1      57.711  -0.321  30.205  0.00  0.00     0.297 C 
ATOM     14  N   UNL d   1      58.456  -0.569  29.952  0.00  0.00    -0.207 NA
ATOM     15  O   UNL d   1      57.053  -0.803  30.087  0.00  0.00    -0.264 OA
BRANCH  14  16
ATOM     16  C   UNL d   1      58.543  -1.299  29.580  0.00  0.00     0.085 A 
ATOM     17  C   UNL d   1      58.882  -1.340  28.832  0.00  0.00     0.019 A 
ATOM     18  C   UNL d   1      58.970  -2.070  28.460  0.00  0.00     0.002 A 
ATOM     19  C   UNL d   1      58.716  -2.759  28.838  0.00  0.00     0.000 A 
ATOM     20  C   UNL d   1      58.375  -2.715  29.591  0.00  0.00     0.002 A 
ATOM     21  C   UNL d   1      58.289  -1.985  29.961  0.00  0.00     0.019 A 
BRANCH  19  22
ATOM     22  C   UNL d   1      58.801  -3.495  28.472  0.00  0.00     0.000 C 
ATOM     23  C   UNL d   1      58.594  -4.177  28.885  0.00  0.00     0.000 C 
ENDBRANCH  19  22
ENDBRANCH  14  16
ENDBRANCH  12  13
ENDBRANCH   2  12
BRANCH   1  24
ATOM     24  S   UNL d   1      56.267   0.504  33.095  0.00  0.00     0.214 S 
ATOM     25  O   UNL d   1      55.841   0.328  32.412  0.00  0.00    -0.217 OA
ATOM     26  O   UNL d   1      56.692   0.682  33.790  0.00  0.00    -0.217 OA
BRANCH  24  27
ATOM     27  C   UNL d   1      55.560   0.500  33.531  0.00  0.00     0.088 A 
ATOM     28  C   UNL d   1      55.567   0.316  34.337  0.00  0.00     0.014 A 
ATOM     29  C   UNL d   1      54.864   0.313  34.765  0.00  0.00     0.030 A 
ATOM     30  C   UNL d   1      54.148   0.493  34.398  0.00  0.00     0.140 A 
ATOM     31  C   UNL d   1      54.141   0.677  33.589  0.00  0.00     0.030 A 
ATOM     32  F   UNL d   1      53.442   0.490  34.830  0.00  0.00    -0.204 F 
ATOM     33  C   UNL d   1      54.845   0.680  33.160  0.00  0.00     0.014 A 
ENDBRANCH  24  27
ENDBRANCH   1  24
BRANCH  10  34
ATOM     34  O   UNL d   1      60.552   0.677  32.959  0.00  0.00    -0.328 OA
ATOM     35  C   UNL d   1      60.572   0.579  33.783  0.00  0.00     0.181 C 
ENDBRANCH  10  34
TORSDOF 7
ENDMDL
