MODEL 1
REMARK VINA RESULT:      -6.0      0.000      0.000
REMARK  1 active torsions:
REMARK  status: ('A' for Active; 'I' for Inactive)
REMARK       I    between atoms: C_8  and  N_9 
REMARK    1  A    between atoms: N_9  and  C_10 
ROOT
ATOM      1  N   UNL d   1     -41.125-121.819 -51.718  0.00  0.00    -0.304 N 
ATOM      2  C   UNL d   1     -41.127-122.209 -52.446  0.00  0.00     0.066 A 
ATOM      3  C   UNL d   1     -41.129-123.024 -52.302  0.00  0.00     0.018 A 
ATOM      4  C   UNL d   1     -41.126-122.393 -51.125  0.00  0.00     0.064 A 
ATOM      5  C   UNL d   1     -41.128-123.135 -51.485  0.00  0.00     0.018 A 
ATOM      6  C   UNL d   1     -41.127-121.929 -53.223  0.00  0.00     0.037 A 
ATOM      7  C   UNL d   1     -41.131-123.554 -52.932  0.00  0.00     0.003 A 
ATOM      8  C   UNL d   1     -41.129-122.465 -53.856  0.00  0.00     0.086 A 
ATOM      9  C   UNL d   1     -41.131-123.278 -53.701  0.00  0.00     0.019 A 
ATOM     10  C   UNL d   1     -41.123-121.012 -51.608  0.00  0.00     0.099 C 
ATOM     11  C   UNL d   1     -41.125-122.336 -50.301  0.00  0.00     0.018 A 
ATOM     12  C   UNL d   1     -41.130-123.817 -51.019  0.00  0.00     0.002 A 
ATOM     13  C   UNL d   1     -41.129-123.757 -50.201  0.00  0.00     0.000 A 
ATOM     14  C   UNL d   1     -41.127-123.014 -49.842  0.00  0.00     0.002 A 
ENDROOT
BRANCH   8  15
ATOM     15  N   UNL d   1     -41.129-122.182 -54.621  0.00  0.00    -0.208 NA
ATOM     16  C   UNL d   1     -41.832-122.104 -55.039  0.00  0.00     0.279 C 
ATOM     17  O   UNL d   1     -41.824-121.819 -55.809  0.00  0.00    -0.265 OA
ATOM     18  C   UNL d   1     -42.538-122.313 -54.682  0.00  0.00     0.068 C 
ENDBRANCH   8  15
TORSDOF 1
ENDMDL
MODEL 2
REMARK VINA RESULT:      -5.0      2.166      3.841
REMARK  1 active torsions:
REMARK  status: ('A' for Active; 'I' for Inactive)
REMARK       I    between atoms: C_8  and  N_9 
REMARK    1  A    between atoms: N_9  and  C_10 
ROOT
ATOM      1  N   UNL d   1     -41.240-121.888 -51.658  0.00  0.00    -0.304 N 
ATOM      2  C   UNL d   1     -41.346-122.409 -51.027  0.00  0.00     0.066 A 
ATOM      3  C   UNL d   1     -41.388-123.178 -51.332  0.00  0.00     0.018 A 
ATOM      4  C   UNL d   1     -41.217-122.333 -52.352  0.00  0.00     0.064 A 
ATOM      5  C   UNL d   1     -41.308-123.127 -52.152  0.00  0.00     0.018 A 
ATOM      6  C   UNL d   1     -41.409-122.287 -50.213  0.00  0.00     0.037 A 
ATOM      7  C   UNL d   1     -41.494-123.817 -50.825  0.00  0.00     0.003 A 
ATOM      8  C   UNL d   1     -41.515-122.933 -49.704  0.00  0.00     0.086 A 
ATOM      9  C   UNL d   1     -41.557-123.697 -50.020  0.00  0.00     0.019 A 
ATOM     10  C   UNL d   1     -41.170-121.077 -51.602  0.00  0.00     0.099 C 
ATOM     11  C   UNL d   1     -41.124-122.118 -53.145  0.00  0.00     0.018 A 
ATOM     12  C   UNL d   1     -41.307-123.704 -52.744  0.00  0.00     0.002 A 
ATOM     13  C   UNL d   1     -41.215-123.486 -53.529  0.00  0.00     0.000 A 
ATOM     14  C   UNL d   1     -41.123-122.691 -53.729  0.00  0.00     0.002 A 
ENDROOT
BRANCH   8  15
ATOM     15  N   UNL d   1     -41.578-122.805 -48.901  0.00  0.00    -0.208 NA
ATOM     16  C   UNL d   1     -42.295-122.907 -48.515  0.00  0.00     0.279 C 
ATOM     17  O   UNL d   1     -42.351-122.776 -47.706  0.00  0.00    -0.265 OA
ATOM     18  C   UNL d   1     -42.954-123.140 -48.942  0.00  0.00     0.068 C 
ENDBRANCH   8  15
TORSDOF 1
ENDMDL
MODEL 3
REMARK VINA RESULT:      -4.6      1.782      3.835
REMARK  1 active torsions:
REMARK  status: ('A' for Active; 'I' for Inactive)
REMARK       I    between atoms: C_8  and  N_9 
REMARK    1  A    between atoms: N_9  and  C_10 
ROOT
ATOM      1  N   UNL d   1     -41.410-123.060 -53.488  0.00  0.00    -0.304 N 
ATOM      2  C   UNL d   1     -41.450-122.643 -52.777  0.00  0.00     0.066 A 
ATOM      3  C   UNL d   1     -41.777-121.898 -52.932  0.00  0.00     0.018 A 
ATOM      4  C   UNL d   1     -41.711-122.574 -54.083  0.00  0.00     0.064 A 
ATOM      5  C   UNL d   1     -41.938-121.858 -53.740  0.00  0.00     0.018 A 
ATOM      6  C   UNL d   1     -41.232-122.843 -52.006  0.00  0.00     0.037 A 
ATOM      7  C   UNL d   1     -41.884-121.360 -52.319  0.00  0.00     0.003 A 
ATOM      8  C   UNL d   1     -41.341-122.298 -51.391  0.00  0.00     0.086 A 
ATOM      9  C   UNL d   1     -41.668-121.557 -51.557  0.00  0.00     0.019 A 
ATOM     10  C   UNL d   1     -41.123-123.817 -53.584  0.00  0.00     0.099 C 
ATOM     11  C   UNL d   1     -41.810-122.689 -54.895  0.00  0.00     0.018 A 
ATOM     12  C   UNL d   1     -42.262-121.262 -54.211  0.00  0.00     0.002 A 
ATOM     13  C   UNL d   1     -42.358-121.380 -55.016  0.00  0.00     0.000 A 
ATOM     14  C   UNL d   1     -42.132-122.096 -55.359  0.00  0.00     0.002 A 
ENDROOT
BRANCH   8  15
ATOM     15  N   UNL d   1     -41.123-122.502 -50.631  0.00  0.00    -0.208 NA
ATOM     16  C   UNL d   1     -41.690-122.598 -50.045  0.00  0.00     0.279 C 
ATOM     17  O   UNL d   1     -41.463-122.804 -49.282  0.00  0.00    -0.265 OA
ATOM     18  C   UNL d   1     -42.480-122.489 -50.225  0.00  0.00     0.068 C 
ENDBRANCH   8  15
TORSDOF 1
ENDMDL
MODEL 4
REMARK VINA RESULT:      -4.1      1.752      2.751
REMARK  1 active torsions:
REMARK  status: ('A' for Active; 'I' for Inactive)
REMARK       I    between atoms: C_8  and  N_9 
REMARK    1  A    between atoms: N_9  and  C_10 
ROOT
ATOM      1  N   UNL d   1     -42.870-122.754 -49.484  0.00  0.00    -0.304 N 
ATOM      2  C   UNL d   1     -42.365-122.930 -50.112  0.00  0.00     0.066 A 
ATOM      3  C   UNL d   1     -41.720-123.355 -49.814  0.00  0.00     0.018 A 
ATOM      4  C   UNL d   1     -42.540-123.070 -48.797  0.00  0.00     0.064 A 
ATOM      5  C   UNL d   1     -41.831-123.441 -49.001  0.00  0.00     0.018 A 
ATOM      6  C   UNL d   1     -42.405-122.759 -50.919  0.00  0.00     0.037 A 
ATOM      7  C   UNL d   1     -41.123-123.607 -50.320  0.00  0.00     0.003 A 
ATOM      8  C   UNL d   1     -41.801-123.013 -51.427  0.00  0.00     0.086 A 
ATOM      9  C   UNL d   1     -41.162-123.438 -51.118  0.00  0.00     0.019 A 
ATOM     10  C   UNL d   1     -43.571-122.341 -49.535  0.00  0.00     0.099 C 
ATOM     11  C   UNL d   1     -42.791-123.070 -48.011  0.00  0.00     0.018 A 
ATOM     12  C   UNL d   1     -41.377-123.809 -48.416  0.00  0.00     0.002 A 
ATOM     13  C   UNL d   1     -41.631-123.806 -47.637  0.00  0.00     0.000 A 
ATOM     14  C   UNL d   1     -42.340-123.436 -47.434  0.00  0.00     0.002 A 
ENDROOT
BRANCH   8  15
ATOM     15  N   UNL d   1     -41.847-122.840 -52.223  0.00  0.00    -0.208 NA
ATOM     16  C   UNL d   1     -41.509-122.155 -52.523  0.00  0.00     0.279 C 
ATOM     17  O   UNL d   1     -41.559-121.987 -53.326  0.00  0.00    -0.265 OA
ATOM     18  C   UNL d   1     -41.123-121.641 -52.017  0.00  0.00     0.068 C 
ENDBRANCH   8  15
TORSDOF 1
ENDMDL
