MODEL 1
REMARK VINA RESULT:      -3.1      0.000      0.000
REMARK  4 active torsions:
REMARK  status: ('A' for Active; 'I' for Inactive)
REMARK    1  A    between atoms: C_5  and  C_1 
REMARK    2  A    between atoms: O_9  and  C_5 
REMARK    3  A    between atoms: C_18  and  O_9 
REMARK       I    between atoms: C_11  and  N_14 
REMARK    4  A    between atoms: N_14  and  C_20 
ROOT
ATOM      1  C   UNL d   1      32.190  18.035 -23.539  0.00  0.00     0.127 A 
ATOM      2  C   UNL d   1      32.460  17.260 -23.574  0.00  0.00     0.305 A 
ATOM      3  O   UNL d   1      31.943  16.662 -23.806  0.00  0.00    -0.272 OA
ATOM      4  C   UNL d   1      31.404  18.222 -23.733  0.00  0.00     0.013 A 
ATOM      5  C   UNL d   1      30.890  17.617 -23.965  0.00  0.00     0.024 A 
ATOM      6  C   UNL d   1      31.154  16.836 -24.003  0.00  0.00     0.110 A 
ATOM      7  C   UNL d   1      30.644  16.229 -24.233  0.00  0.00     0.058 A 
ATOM      8  C   UNL d   1      29.862  16.406 -24.428  0.00  0.00     0.015 A 
ATOM      9  C   UNL d   1      30.101  17.788 -24.162  0.00  0.00     0.009 A 
ATOM     10  O   UNL d   1      33.241  17.088 -23.379  0.00  0.00    -0.259 OA
ATOM     11  C   UNL d   1      29.590  17.188 -24.392  0.00  0.00     0.035 A 
ATOM     12 BR   UNL d   1      30.915  15.453 -24.269  0.00  0.00    -0.047 Br
ATOM     13 BR   UNL d   1      28.810  17.364 -24.586  0.00  0.00    -0.049 Br
ENDROOT
BRANCH   1  14
ATOM     14  C   UNL d   1      32.699  18.643 -23.308  0.00  0.00     0.305 C 
ATOM     15  O   UNL d   1      33.109  19.064 -23.883  0.00  0.00    -0.259 OA
BRANCH  14  16
ATOM     16  O   UNL d   1      32.800  18.830 -22.509  0.00  0.00    -0.273 OA
BRANCH  16  17
ATOM     17  C   UNL d   1      32.910  19.611 -22.277  0.00  0.00     0.103 A 
ATOM     18  C   UNL d   1      32.887  19.813 -21.479  0.00  0.00     0.026 A 
ATOM     19  C   UNL d   1      32.996  20.587 -21.241  0.00  0.00     0.021 A 
ATOM     20  C   UNL d   1      33.130  21.177 -21.803  0.00  0.00     0.085 A 
ATOM     21  C   UNL d   1      33.155  20.985 -22.609  0.00  0.00     0.021 A 
ATOM     22  C   UNL d   1      33.043  20.193 -22.846  0.00  0.00     0.026 A 
BRANCH  20  23
ATOM     23  N   UNL d   1      33.241  21.962 -21.573  0.00  0.00    -0.208 NA
ATOM     24  C   UNL d   1      32.611  22.380 -21.234  0.00  0.00     0.279 C 
ATOM     25  O   UNL d   1      31.874  22.014 -21.127  0.00  0.00    -0.265 OA
ATOM     26  C   UNL d   1      32.714  23.169 -21.000  0.00  0.00     0.068 C 
ENDBRANCH  20  23
ENDBRANCH  16  17
ENDBRANCH  14  16
ENDBRANCH   1  14
TORSDOF 4
ENDMDL
MODEL 2
REMARK VINA RESULT:      -1.1      2.006      3.346
REMARK  4 active torsions:
REMARK  status: ('A' for Active; 'I' for Inactive)
REMARK    1  A    between atoms: C_5  and  C_1 
REMARK    2  A    between atoms: O_9  and  C_5 
REMARK    3  A    between atoms: C_18  and  O_9 
REMARK       I    between atoms: C_11  and  N_14 
REMARK    4  A    between atoms: N_14  and  C_20 
ROOT
ATOM      1  C   UNL d   1      32.852  20.513 -22.176  0.00  0.00     0.127 A 
ATOM      2  C   UNL d   1      33.033  20.818 -22.916  0.00  0.00     0.305 A 
ATOM      3  O   UNL d   1      33.012  20.323 -23.575  0.00  0.00    -0.272 OA
ATOM      4  C   UNL d   1      32.648  19.712 -22.083  0.00  0.00     0.013 A 
ATOM      5  C   UNL d   1      32.629  19.220 -22.748  0.00  0.00     0.024 A 
ATOM      6  C   UNL d   1      32.809  19.520 -23.495  0.00  0.00     0.110 A 
ATOM      7  C   UNL d   1      32.791  19.033 -24.161  0.00  0.00     0.058 A 
ATOM      8  C   UNL d   1      32.590  18.237 -24.078  0.00  0.00     0.015 A 
ATOM      9  C   UNL d   1      32.427  18.419 -22.671  0.00  0.00     0.009 A 
ATOM     10  O   UNL d   1      33.233  21.613 -22.995  0.00  0.00    -0.259 OA
ATOM     11  C   UNL d   1      32.407  17.929 -23.330  0.00  0.00     0.035 A 
ATOM     12 BR   UNL d   1      32.972  19.339 -24.903  0.00  0.00    -0.047 Br
ATOM     13 BR   UNL d   1      32.206  17.135 -23.248  0.00  0.00    -0.049 Br
ENDROOT
BRANCH   1  14
ATOM     14  C   UNL d   1      32.870  21.000 -21.509  0.00  0.00     0.305 C 
ATOM     15  O   UNL d   1      33.239  20.732 -20.825  0.00  0.00    -0.259 OA
BRANCH  14  16
ATOM     16  O   UNL d   1      32.523  21.750 -21.523  0.00  0.00    -0.273 OA
BRANCH  16  17
ATOM     17  C   UNL d   1      32.476  22.198 -20.836  0.00  0.00     0.103 A 
ATOM     18  C   UNL d   1      33.146  22.317 -20.373  0.00  0.00     0.026 A 
ATOM     19  C   UNL d   1      33.107  22.762 -19.688  0.00  0.00     0.021 A 
ATOM     20  C   UNL d   1      32.390  23.098 -19.455  0.00  0.00     0.085 A 
ATOM     21  C   UNL d   1      31.709  22.985 -19.914  0.00  0.00     0.021 A 
ATOM     22  C   UNL d   1      31.755  22.530 -20.612  0.00  0.00     0.026 A 
BRANCH  20  23
ATOM     23  N   UNL d   1      32.340  23.549 -18.765  0.00  0.00    -0.208 NA
ATOM     24  C   UNL d   1      32.663  23.255 -18.062  0.00  0.00     0.279 C 
ATOM     25  O   UNL d   1      33.034  22.513 -18.049  0.00  0.00    -0.265 OA
ATOM     26  C   UNL d   1      32.617  23.702 -17.364  0.00  0.00     0.068 C 
ENDBRANCH  20  23
ENDBRANCH  16  17
ENDBRANCH  14  16
ENDBRANCH   1  14
TORSDOF 4
ENDMDL
MODEL 3
REMARK VINA RESULT:      -0.8      2.904      5.603
REMARK  4 active torsions:
REMARK  status: ('A' for Active; 'I' for Inactive)
REMARK    1  A    between atoms: C_5  and  C_1 
REMARK    2  A    between atoms: O_9  and  C_5 
REMARK    3  A    between atoms: C_18  and  O_9 
REMARK       I    between atoms: C_11  and  N_14 
REMARK    4  A    between atoms: N_14  and  C_20 
ROOT
ATOM      1  C   UNL d   1      32.787  21.227 -21.862  0.00  0.00     0.127 A 
ATOM      2  C   UNL d   1      32.330  21.859 -22.121  0.00  0.00     0.305 A 
ATOM      3  O   UNL d   1      32.149  22.468 -21.596  0.00  0.00    -0.272 OA
ATOM      4  C   UNL d   1      33.066  21.195 -21.080  0.00  0.00     0.013 A 
ATOM      5  C   UNL d   1      32.880  21.810 -20.558  0.00  0.00     0.024 A 
ATOM      6  C   UNL d   1      32.422  22.448 -20.811  0.00  0.00     0.110 A 
ATOM      7  C   UNL d   1      32.235  23.063 -20.294  0.00  0.00     0.058 A 
ATOM      8  C   UNL d   1      32.508  23.039 -19.516  0.00  0.00     0.015 A 
ATOM      9  C   UNL d   1      33.152  21.791 -19.774  0.00  0.00     0.009 A 
ATOM     10  O   UNL d   1      32.059  21.880 -22.897  0.00  0.00    -0.259 OA
ATOM     11  C   UNL d   1      32.968  22.401 -19.255  0.00  0.00     0.035 A 
ATOM     12 BR   UNL d   1      31.778  23.696 -20.553  0.00  0.00    -0.047 Br
ATOM     13 BR   UNL d   1      33.241  22.377 -18.479  0.00  0.00    -0.049 Br
ENDROOT
BRANCH   1  14
ATOM     14  C   UNL d   1      32.975  20.611 -22.379  0.00  0.00     0.305 C 
ATOM     15  O   UNL d   1      33.102  20.777 -23.174  0.00  0.00    -0.259 OA
BRANCH  14  16
ATOM     16  O   UNL d   1      33.037  19.833 -22.106  0.00  0.00    -0.273 OA
BRANCH  16  17
ATOM     17  C   UNL d   1      33.017  19.205 -22.635  0.00  0.00     0.103 A 
ATOM     18  C   UNL d   1      33.040  18.430 -22.358  0.00  0.00     0.026 A 
ATOM     19  C   UNL d   1      33.021  17.800 -22.879  0.00  0.00     0.021 A 
ATOM     20  C   UNL d   1      32.978  17.937 -23.692  0.00  0.00     0.085 A 
ATOM     21  C   UNL d   1      32.954  18.714 -23.981  0.00  0.00     0.021 A 
ATOM     22  C   UNL d   1      32.974  19.353 -23.445  0.00  0.00     0.026 A 
BRANCH  20  23
ATOM     23  N   UNL d   1      32.958  17.308 -24.226  0.00  0.00    -0.208 NA
ATOM     24  C   UNL d   1      32.227  17.010 -24.477  0.00  0.00     0.279 C 
ATOM     25  O   UNL d   1      31.520  17.340 -24.195  0.00  0.00    -0.265 OA
ATOM     26  C   UNL d   1      32.198  16.378 -25.013  0.00  0.00     0.068 C 
ENDBRANCH  20  23
ENDBRANCH  16  17
ENDBRANCH  14  16
ENDBRANCH   1  14
TORSDOF 4
ENDMDL
