MODEL 1
REMARK VINA RESULT:      -3.0      0.000      0.000
REMARK  1 active torsions:
REMARK  status: ('A' for Active; 'I' for Inactive)
REMARK    1  A    between atoms: C_2  and  C_1 
REMARK       I    between atoms: N_6  and  C_2 
ROOT
ATOM      1  C   UNL d   1     -41.556-122.755 -50.370  0.00  0.00     0.057 A 
ATOM      2  C   UNL d   1     -41.475-121.974 -50.616  0.00  0.00     0.005 A 
ATOM      3  C   UNL d   1     -41.334-121.805 -51.420  0.00  0.00     0.001 A 
ATOM      4  C   UNL d   1     -41.498-123.370 -50.918  0.00  0.00     0.011 A 
ATOM      5  C   UNL d   1     -41.277-122.421 -51.962  0.00  0.00     0.006 A 
ATOM      6  C   UNL d   1     -41.358-123.202 -51.717  0.00  0.00     0.035 A 
ATOM      7 BR   UNL d   1     -41.301-123.817 -52.260  0.00  0.00    -0.049 Br
ATOM      8  C   UNL d   1     -41.498-121.238 -50.246  0.00  0.00     0.000 C 
ATOM      9  C   UNL d   1     -41.286-120.984 -51.457  0.00  0.00     0.000 C 
ATOM     10  C   UNL d   1     -41.137-122.255 -52.761  0.00  0.00     0.001 C 
ENDROOT
BRANCH   1  11
ATOM     11  C   UNL d   1     -41.696-122.925 -49.573  0.00  0.00     0.265 C 
ATOM     12  N   UNL d   1     -42.409-123.270 -49.344  0.00  0.00    -0.272 N 
ATOM     13  C   UNL d   1     -43.030-123.476 -49.842  0.00  0.00     0.083 A 
ATOM     14  C   UNL d   1     -42.625-123.469 -48.572  0.00  0.00     0.083 A 
ATOM     15  C   UNL d   1     -43.631-123.802 -49.384  0.00  0.00     0.021 A 
ATOM     16  C   UNL d   1     -43.380-123.799 -48.597  0.00  0.00     0.021 A 
ATOM     17  O   UNL d   1     -41.123-122.749 -49.009  0.00  0.00    -0.267 OA
ENDBRANCH   1  11
TORSDOF 1
ENDMDL
MODEL 2
REMARK VINA RESULT:      -2.7      2.236      3.899
REMARK  1 active torsions:
REMARK  status: ('A' for Active; 'I' for Inactive)
REMARK    1  A    between atoms: C_2  and  C_1 
REMARK       I    between atoms: N_6  and  C_2 
ROOT
ATOM      1  C   UNL d   1     -41.425-122.548 -52.750  0.00  0.00     0.057 A 
ATOM      2  C   UNL d   1     -41.486-123.015 -52.074  0.00  0.00     0.005 A 
ATOM      3  C   UNL d   1     -41.426-122.665 -51.321  0.00  0.00     0.001 A 
ATOM      4  C   UNL d   1     -41.304-121.735 -52.679  0.00  0.00     0.011 A 
ATOM      5  C   UNL d   1     -41.305-121.854 -51.256  0.00  0.00     0.006 A 
ATOM      6  C   UNL d   1     -41.244-121.386 -51.930  0.00  0.00     0.035 A 
ATOM      7 BR   UNL d   1     -41.123-120.575 -51.865  0.00  0.00    -0.049 Br
ATOM      8  C   UNL d   1     -41.603-123.817 -51.927  0.00  0.00     0.000 C 
ATOM      9  C   UNL d   1     -41.512-123.290 -50.792  0.00  0.00     0.000 C 
ATOM     10  C   UNL d   1     -41.244-121.505 -50.508  0.00  0.00     0.001 C 
ENDROOT
BRANCH   1  11
ATOM     11  C   UNL d   1     -41.485-122.893 -53.498  0.00  0.00     0.265 C 
ATOM     12  N   UNL d   1     -41.872-122.493 -54.107  0.00  0.00    -0.272 N 
ATOM     13  C   UNL d   1     -42.223-121.752 -54.053  0.00  0.00     0.083 A 
ATOM     14  C   UNL d   1     -41.974-122.768 -54.879  0.00  0.00     0.083 A 
ATOM     15  C   UNL d   1     -42.543-121.564 -54.788  0.00  0.00     0.021 A 
ATOM     16  C   UNL d   1     -42.389-122.193 -55.300  0.00  0.00     0.021 A 
ATOM     17  O   UNL d   1     -41.159-123.637 -53.635  0.00  0.00    -0.267 OA
ENDBRANCH   1  11
TORSDOF 1
ENDMDL
MODEL 3
REMARK VINA RESULT:      -2.2      1.191      1.520
REMARK  1 active torsions:
REMARK  status: ('A' for Active; 'I' for Inactive)
REMARK    1  A    between atoms: C_2  and  C_1 
REMARK       I    between atoms: N_6  and  C_2 
ROOT
ATOM      1  C   UNL d   1     -42.592-123.144 -49.938  0.00  0.00     0.057 A 
ATOM      2  C   UNL d   1     -42.757-122.385 -50.211  0.00  0.00     0.005 A 
ATOM      3  C   UNL d   1     -42.378-122.099 -50.896  0.00  0.00     0.001 A 
ATOM      4  C   UNL d   1     -42.051-123.619 -50.341  0.00  0.00     0.011 A 
ATOM      5  C   UNL d   1     -41.840-122.577 -51.294  0.00  0.00     0.006 A 
ATOM      6  C   UNL d   1     -41.674-123.335 -51.022  0.00  0.00     0.035 A 
ATOM      7 BR   UNL d   1     -41.136-123.812 -51.420  0.00  0.00    -0.049 Br
ATOM      8  C   UNL d   1     -43.247-121.769 -49.967  0.00  0.00     0.000 C 
ATOM      9  C   UNL d   1     -42.675-121.338 -50.998  0.00  0.00     0.000 C 
ATOM     10  C   UNL d   1     -41.462-122.294 -51.974  0.00  0.00     0.001 C 
ENDROOT
BRANCH   1  11
ATOM     11  C   UNL d   1     -42.967-123.429 -49.260  0.00  0.00     0.265 C 
ATOM     12  N   UNL d   1     -42.540-123.520 -48.559  0.00  0.00    -0.272 N 
ATOM     13  C   UNL d   1     -41.743-123.349 -48.452  0.00  0.00     0.083 A 
ATOM     14  C   UNL d   1     -42.840-123.797 -47.842  0.00  0.00     0.083 A 
ATOM     15  C   UNL d   1     -41.546-123.520 -47.671  0.00  0.00     0.021 A 
ATOM     16  C   UNL d   1     -42.225-123.797 -47.293  0.00  0.00     0.021 A 
ATOM     17  O   UNL d   1     -43.767-123.624 -49.283  0.00  0.00    -0.267 OA
ENDBRANCH   1  11
TORSDOF 1
ENDMDL
MODEL 4
REMARK VINA RESULT:      -2.0      1.170      1.794
REMARK  1 active torsions:
REMARK  status: ('A' for Active; 'I' for Inactive)
REMARK    1  A    between atoms: C_2  and  C_1 
REMARK       I    between atoms: N_6  and  C_2 
ROOT
ATOM      1  C   UNL d   1     -41.512-122.712 -51.336  0.00  0.00     0.057 A 
ATOM      2  C   UNL d   1     -41.518-123.053 -52.086  0.00  0.00     0.005 A 
ATOM      3  C   UNL d   1     -41.400-122.577 -52.759  0.00  0.00     0.001 A 
ATOM      4  C   UNL d   1     -41.389-121.900 -51.253  0.00  0.00     0.011 A 
ATOM      5  C   UNL d   1     -41.278-121.769 -52.671  0.00  0.00     0.006 A 
ATOM      6  C   UNL d   1     -41.272-121.427 -51.923  0.00  0.00     0.035 A 
ATOM      7 BR   UNL d   1     -41.149-120.618 -51.835  0.00  0.00    -0.049 Br
ATOM      8  C   UNL d   1     -41.620-123.816 -52.380  0.00  0.00     0.000 C 
ATOM      9  C   UNL d   1     -41.442-123.099 -53.395  0.00  0.00     0.000 C 
ATOM     10  C   UNL d   1     -41.161-121.294 -53.339  0.00  0.00     0.001 C 
ENDROOT
BRANCH   1  11
ATOM     11  C   UNL d   1     -41.629-123.183 -50.668  0.00  0.00     0.265 C 
ATOM     12  N   UNL d   1     -42.249-123.016 -50.150  0.00  0.00    -0.272 N 
ATOM     13  C   UNL d   1     -42.793-122.405 -50.226  0.00  0.00     0.083 A 
ATOM     14  C   UNL d   1     -42.432-123.437 -49.462  0.00  0.00     0.083 A 
ATOM     15  C   UNL d   1     -43.314-122.443 -49.589  0.00  0.00     0.021 A 
ATOM     16  C   UNL d   1     -43.091-123.081 -49.116  0.00  0.00     0.021 A 
ATOM     17  O   UNL d   1     -41.126-123.817 -50.518  0.00  0.00    -0.267 OA
ENDBRANCH   1  11
TORSDOF 1
ENDMDL
MODEL 5
REMARK VINA RESULT:      -0.8      1.539      3.558
REMARK  1 active torsions:
REMARK  status: ('A' for Active; 'I' for Inactive)
REMARK    1  A    between atoms: C_2  and  C_1 
REMARK       I    between atoms: N_6  and  C_2 
ROOT
ATOM      1  C   UNL d   1     -42.125-123.158 -49.296  0.00  0.00     0.057 A 
ATOM      2  C   UNL d   1     -42.868-123.458 -49.107  0.00  0.00     0.005 A 
ATOM      3  C   UNL d   1     -43.111-123.494 -48.311  0.00  0.00     0.001 A 
ATOM      4  C   UNL d   1     -41.622-122.894 -48.697  0.00  0.00     0.011 A 
ATOM      5  C   UNL d   1     -42.606-123.230 -47.718  0.00  0.00     0.006 A 
ATOM      6  C   UNL d   1     -41.863-122.931 -47.905  0.00  0.00     0.035 A 
ATOM      7 BR   UNL d   1     -41.358-122.667 -47.312  0.00  0.00    -0.049 Br
ATOM      8  C   UNL d   1     -43.502-123.763 -49.536  0.00  0.00     0.000 C 
ATOM      9  C   UNL d   1     -43.868-123.817 -48.337  0.00  0.00     0.000 C 
ATOM     10  C   UNL d   1     -42.845-123.266 -46.926  0.00  0.00     0.001 C 
ENDROOT
BRANCH   1  11
ATOM     11  C   UNL d   1     -41.882-123.121 -50.085  0.00  0.00     0.265 C 
ATOM     12  N   UNL d   1     -41.697-122.392 -50.425  0.00  0.00    -0.272 N 
ATOM     13  C   UNL d   1     -41.726-121.661 -50.051  0.00  0.00     0.083 A 
ATOM     14  C   UNL d   1     -41.448-122.271 -51.203  0.00  0.00     0.083 A 
ATOM     15  C   UNL d   1     -41.497-121.085 -50.593  0.00  0.00     0.021 A 
ATOM     16  C   UNL d   1     -41.325-121.463 -51.307  0.00  0.00     0.021 A 
ATOM     17  O   UNL d   1     -41.826-123.811 -50.531  0.00  0.00    -0.267 OA
ENDBRANCH   1  11
TORSDOF 1
ENDMDL
