MODEL 1
REMARK VINA RESULT:      43.3      0.000      0.000
REMARK  5 active torsions:
REMARK  status: ('A' for Active; 'I' for Inactive)
REMARK       I    between atoms: N_2  and  C_5 
REMARK    1  A    between atoms: C_3  and  N_2 
REMARK    2  A    between atoms: C_14  and  C_4 
REMARK    3  A    between atoms: C_5  and  C_13 
REMARK    4  A    between atoms: C_17  and  C_6 
REMARK    5  A    between atoms: C_13  and  C_14 
ROOT
ATOM      1  N   UNL d   1     -52.065  26.333  33.306  0.00  0.00    -0.208 NA
ATOM      2  C   UNL d   1     -51.552  26.940  33.492  0.00  0.00     0.279 C 
ATOM      3  O   UNL d   1     -51.814  27.727  33.473  0.00  0.00    -0.265 OA
ENDROOT
BRANCH   2   4
ATOM      4  C   UNL d   1     -50.772  26.772  33.700  0.00  0.00     0.065 C 
BRANCH   4   5
ATOM      5  C   UNL d   1     -50.171  27.312  33.528  0.00  0.00     0.030 C 
BRANCH   5   6
ATOM      6  C   UNL d   1     -49.688  27.596  34.129  0.00  0.00     0.100 A 
ATOM      7  O   UNL d   1     -49.139  28.217  34.069  0.00  0.00    -0.307 OA
ATOM      8  C   UNL d   1     -48.781  28.313  34.797  0.00  0.00     0.100 A 
ATOM      9  C   UNL d   1     -49.100  27.758  35.317  0.00  0.00     0.027 A 
ATOM     10  C   UNL d   1     -49.658  27.318  34.901  0.00  0.00     0.027 A 
BRANCH   8  11
ATOM     11  C   UNL d   1     -48.204  28.870  34.974  0.00  0.00     0.025 C 
ATOM     12  C   UNL d   1     -47.500  28.888  34.537  0.00  0.00     0.002 C 
ENDBRANCH   8  11
ENDBRANCH   5   6
ENDBRANCH   4   5
ENDBRANCH   2   4
BRANCH   1  13
ATOM     13  C   UNL d   1     -51.804  25.549  33.325  0.00  0.00     0.085 A 
ATOM     14  C   UNL d   1     -52.353  24.938  33.346  0.00  0.00     0.018 A 
ATOM     15  C   UNL d   1     -52.092  24.159  33.365  0.00  0.00     0.002 A 
ATOM     16  C   UNL d   1     -53.162  25.109  33.348  0.00  0.00     0.002 C 
ATOM     17  C   UNL d   1     -51.284  23.995  33.363  0.00  0.00     0.000 A 
ATOM     18  C   UNL d   1     -50.735  24.606  33.342  0.00  0.00     0.002 A 
ATOM     19  C   UNL d   1     -51.022  23.207  33.383  0.00  0.00     0.000 C 
ATOM     20  C   UNL d   1     -51.005  25.394  33.323  0.00  0.00     0.019 A 
ENDBRANCH   1  13
TORSDOF 5
ENDMDL
MODEL 2
REMARK VINA RESULT:      44.4      1.075      1.710
REMARK  5 active torsions:
REMARK  status: ('A' for Active; 'I' for Inactive)
REMARK       I    between atoms: N_2  and  C_5 
REMARK    1  A    between atoms: C_3  and  N_2 
REMARK    2  A    between atoms: C_14  and  C_4 
REMARK    3  A    between atoms: C_5  and  C_13 
REMARK    4  A    between atoms: C_17  and  C_6 
REMARK    5  A    between atoms: C_13  and  C_14 
ROOT
ATOM      1  N   UNL d   1     -50.669  24.497  33.306  0.00  0.00    -0.208 NA
ATOM      2  C   UNL d   1     -50.167  25.103  33.525  0.00  0.00     0.279 C 
ATOM      3  O   UNL d   1     -49.345  25.000  33.477  0.00  0.00    -0.265 OA
ENDROOT
BRANCH   2   4
ATOM      4  C   UNL d   1     -50.476  25.818  33.795  0.00  0.00     0.065 C 
BRANCH   4   5
ATOM      5  C   UNL d   1     -50.118  26.531  33.583  0.00  0.00     0.030 C 
BRANCH   5   6
ATOM      6  C   UNL d   1     -49.839  27.041  34.164  0.00  0.00     0.100 A 
ATOM      7  O   UNL d   1     -49.048  27.269  34.282  0.00  0.00    -0.307 OA
ATOM      8  C   UNL d   1     -49.022  27.780  34.919  0.00  0.00     0.100 A 
ATOM      9  C   UNL d   1     -49.790  27.877  35.204  0.00  0.00     0.027 A 
ATOM     10  C   UNL d   1     -50.290  27.419  34.736  0.00  0.00     0.027 A 
BRANCH   8  11
ATOM     11  C   UNL d   1     -48.345  28.134  35.219  0.00  0.00     0.025 C 
ATOM     12  C   UNL d   1     -48.103  28.872  34.931  0.00  0.00     0.002 C 
ENDBRANCH   8  11
ENDBRANCH   5   6
ENDBRANCH   4   5
ENDBRANCH   2   4
BRANCH   1  13
ATOM     13  C   UNL d   1     -51.488  24.600  33.354  0.00  0.00     0.085 A 
ATOM     14  C   UNL d   1     -51.975  23.945  33.448  0.00  0.00     0.018 A 
ATOM     15  C   UNL d   1     -52.789  24.049  33.496  0.00  0.00     0.002 A 
ATOM     16  C   UNL d   1     -51.645  23.188  33.495  0.00  0.00     0.002 C 
ATOM     17  C   UNL d   1     -53.111  24.806  33.448  0.00  0.00     0.000 A 
ATOM     18  C   UNL d   1     -52.624  25.461  33.353  0.00  0.00     0.002 A 
ATOM     19  C   UNL d   1     -53.934  24.909  33.496  0.00  0.00     0.000 C 
ATOM     20  C   UNL d   1     -51.800  25.351  33.306  0.00  0.00     0.019 A 
ENDBRANCH   1  13
TORSDOF 5
ENDMDL
MODEL 3
REMARK VINA RESULT:      45.4      2.117      2.937
REMARK  5 active torsions:
REMARK  status: ('A' for Active; 'I' for Inactive)
REMARK       I    between atoms: N_2  and  C_5 
REMARK    1  A    between atoms: C_3  and  N_2 
REMARK    2  A    between atoms: C_14  and  C_4 
REMARK    3  A    between atoms: C_5  and  C_13 
REMARK    4  A    between atoms: C_17  and  C_6 
REMARK    5  A    between atoms: C_13  and  C_14 
ROOT
ATOM      1  N   UNL d   1     -50.776  25.959  33.432  0.00  0.00    -0.208 NA
ATOM      2  C   UNL d   1     -50.686  26.381  34.125  0.00  0.00     0.279 C 
ATOM      3  O   UNL d   1     -50.161  27.022  34.157  0.00  0.00    -0.265 OA
ENDROOT
BRANCH   2   4
ATOM      4  C   UNL d   1     -51.116  26.170  34.796  0.00  0.00     0.065 C 
BRANCH   4   5
ATOM      5  C   UNL d   1     -51.397  26.752  35.310  0.00  0.00     0.030 C 
BRANCH   5   6
ATOM      6  C   UNL d   1     -51.337  26.649  36.122  0.00  0.00     0.100 A 
ATOM      7  O   UNL d   1     -51.937  26.380  36.631  0.00  0.00    -0.307 OA
ATOM      8  C   UNL d   1     -51.638  26.361  37.391  0.00  0.00     0.100 A 
ATOM      9  C   UNL d   1     -50.854  26.617  37.367  0.00  0.00     0.027 A 
ATOM     10  C   UNL d   1     -50.673  26.793  36.583  0.00  0.00     0.027 A 
BRANCH   8  11
ATOM     11  C   UNL d   1     -52.052  26.127  38.061  0.00  0.00     0.025 C 
ATOM     12  C   UNL d   1     -52.371  25.364  38.102  0.00  0.00     0.002 C 
ENDBRANCH   8  11
ENDBRANCH   5   6
ENDBRANCH   4   5
ENDBRANCH   2   4
BRANCH   1  13
ATOM     13  C   UNL d   1     -51.300  25.320  33.401  0.00  0.00     0.085 A 
ATOM     14  C   UNL d   1     -51.005  24.555  33.338  0.00  0.00     0.018 A 
ATOM     15  C   UNL d   1     -51.526  23.921  33.308  0.00  0.00     0.002 A 
ATOM     16  C   UNL d   1     -50.188  24.429  33.306  0.00  0.00     0.002 C 
ATOM     17  C   UNL d   1     -52.339  24.054  33.341  0.00  0.00     0.000 A 
ATOM     18  C   UNL d   1     -52.634  24.819  33.404  0.00  0.00     0.002 A 
ATOM     19  C   UNL d   1     -52.865  23.411  33.310  0.00  0.00     0.000 C 
ATOM     20  C   UNL d   1     -52.102  25.458  33.434  0.00  0.00     0.019 A 
ENDBRANCH   1  13
TORSDOF 5
ENDMDL
