MODEL 1
REMARK VINA RESULT:     106.2      0.000      0.000
REMARK  3 active torsions:
REMARK  status: ('A' for Active; 'I' for Inactive)
REMARK    1  A    between atoms: S_5  and  C_3 
REMARK    2  A    between atoms: C_12  and  S_5 
REMARK    3  A    between atoms: C_23  and  N_6 
ROOT
ATOM      1  C   UNL d   1     -55.027-100.669 -40.537  0.00  0.00     0.155 A 
ATOM      2  C   UNL d   1     -54.969-101.359 -40.969  0.00  0.00     0.092 A 
ATOM      3  C   UNL d   1     -55.012-100.609 -42.166  0.00  0.00     0.124 A 
ATOM      4  N   UNL d   1     -55.034-100.701 -39.717  0.00  0.00    -0.210 NA
ATOM      5  N   UNL d   1     -55.077 -99.955 -40.907  0.00  0.00    -0.273 N 
ATOM      6  C   UNL d   1     -55.071 -99.910 -41.729  0.00  0.00     0.181 A 
ATOM      7  C   UNL d   1     -54.918-102.086 -40.589  0.00  0.00     0.269 A 
ATOM      8  N   UNL d   1     -54.925-102.115 -39.773  0.00  0.00    -0.258 N 
ATOM      9  C   UNL d   1     -54.962-101.331 -41.785  0.00  0.00     0.022 A 
ATOM     10  C   UNL d   1     -54.983-101.417 -39.337  0.00  0.00     0.152 A 
ATOM     11  N   UNL d   1     -55.123 -99.172 -42.111  0.00  0.00    -0.128 N 
ATOM     12  C   UNL d   1     -54.875-102.836 -39.386  0.00  0.00     0.084 A 
ATOM     13  O   UNL d   1     -54.859-102.791 -41.031  0.00  0.00    -0.266 OA
ATOM     14  C   UNL d   1     -54.990-101.448 -38.518  0.00  0.00     0.038 A 
ATOM     15  C   UNL d   1     -54.882-102.862 -38.574  0.00  0.00     0.019 A 
ATOM     16  C   UNL d   1     -54.940-102.165 -38.137  0.00  0.00     0.005 A 
ENDROOT
BRANCH   3  17
ATOM     17  S   UNL d   1     -55.006-100.567 -43.001  0.00  0.00     0.213 S 
ATOM     18  O   UNL d   1     -54.741 -99.776 -42.977  0.00  0.00    -0.217 OA
ATOM     19  O   UNL d   1     -55.270-101.356 -43.030  0.00  0.00    -0.217 OA
BRANCH  17  20
ATOM     20  C   UNL d   1     -55.005-100.542 -43.836  0.00  0.00     0.088 A 
ATOM     21  C   UNL d   1     -55.135-101.233 -44.273  0.00  0.00     0.014 A 
ATOM     22  C   UNL d   1     -55.133-101.203 -45.100  0.00  0.00     0.030 A 
ATOM     23  C   UNL d   1     -55.002-100.488 -45.497  0.00  0.00     0.140 A 
ATOM     24  C   UNL d   1     -54.871 -99.790 -45.048  0.00  0.00     0.030 A 
ATOM     25  F   UNL d   1     -55.000-100.457 -46.330  0.00  0.00    -0.204 F 
ATOM     26  C   UNL d   1     -54.873 -99.819 -44.222  0.00  0.00     0.014 A 
ENDBRANCH  17  20
ENDBRANCH   3  17
BRANCH   5  27
ATOM     27  C   UNL d   1     -55.136 -99.245 -40.463  0.00  0.00     0.083 C 
ATOM     28  C   UNL d   1     -55.389 -99.285 -39.663  0.00  0.00     0.021 C 
ENDBRANCH   5  27
TORSDOF 3
ENDMDL
