MODEL 1
REMARK VINA RESULT:      -5.6      0.000      0.000
REMARK  4 active torsions:
REMARK  status: ('A' for Active; 'I' for Inactive)
REMARK    1  A    between atoms: N_8  and  C_2 
REMARK    2  A    between atoms: C_9  and  C_3 
REMARK    3  A    between atoms: C_7  and  N_10 
REMARK    4  A    between atoms: N_10  and  N_8 
ROOT
ATOM      1  N   UNL d   1      58.338  -1.298  30.117  0.00  0.00    -0.219 NA
ATOM      2  C   UNL d   1      58.050  -0.538  30.179  0.00  0.00     0.215 A 
ATOM      3  C   UNL d   1      58.868  -1.293  29.466  0.00  0.00     0.090 A 
ATOM      4  S   UNL d   1      58.387  -0.072  29.586  0.00  0.00    -0.045 SA
ATOM      5  C   UNL d   1      58.886  -0.538  29.155  0.00  0.00     0.058 A 
ENDROOT
BRANCH   2   6
ATOM      6  N   UNL d   1      57.508  -0.268  30.738  0.00  0.00    -0.120 NA
BRANCH   6   7
ATOM      7  N   UNL d   1      57.102  -0.800  31.202  0.00  0.00    -0.127 NA
BRANCH   7   8
ATOM      8  C   UNL d   1      56.644  -0.527  31.839  0.00  0.00     0.184 A 
ATOM      9  N   UNL d   1      56.338  -1.137  32.292  0.00  0.00    -0.224 NA
ATOM     10  C   UNL d   1      55.868  -1.116  32.955  0.00  0.00     0.101 A 
ATOM     11  C   UNL d   1      55.576  -0.468  33.348  0.00  0.00     0.021 A 
ATOM     12  C   UNL d   1      55.685   0.337  33.167  0.00  0.00     0.002 A 
ATOM     13  C   UNL d   1      56.106   0.670  32.562  0.00  0.00     0.003 A 
ATOM     14  C   UNL d   1      56.546   0.288  31.952  0.00  0.00     0.041 A 
ENDBRANCH   7   8
ENDBRANCH   6   7
ENDBRANCH   2   6
BRANCH   3  15
ATOM     15  C   UNL d   1      59.284  -1.976  29.219  0.00  0.00     0.018 A 
ATOM     16  C   UNL d   1      58.896  -2.630  28.926  0.00  0.00     0.002 A 
ATOM     17  C   UNL d   1      59.319  -3.295  28.686  0.00  0.00     0.011 A 
ATOM     18  C   UNL d   1      60.142  -3.300  28.743  0.00  0.00     0.058 A 
ATOM     19  C   UNL d   1      60.549  -2.649  29.037  0.00  0.00     0.011 A 
ATOM     20 CL   UNL d   1      60.558  -3.982  28.496  0.00  0.00    -0.082 Cl
ATOM     21  C   UNL d   1      60.123  -1.977  29.279  0.00  0.00     0.002 A 
ENDBRANCH   3  15
TORSDOF 4
ENDMDL
MODEL 2
REMARK VINA RESULT:      -3.8      2.023      5.035
REMARK  4 active torsions:
REMARK  status: ('A' for Active; 'I' for Inactive)
REMARK    1  A    between atoms: N_8  and  C_2 
REMARK    2  A    between atoms: C_9  and  C_3 
REMARK    3  A    between atoms: C_7  and  N_10 
REMARK    4  A    between atoms: N_10  and  N_8 
ROOT
ATOM      1  N   UNL d   1      57.962  -0.674  30.753  0.00  0.00    -0.219 NA
ATOM      2  C   UNL d   1      58.286  -0.580  30.011  0.00  0.00     0.215 A 
ATOM      3  C   UNL d   1      57.678   0.082  30.980  0.00  0.00     0.090 A 
ATOM      4  S   UNL d   1      58.208   0.210  29.780  0.00  0.00    -0.045 SA
ATOM      5  C   UNL d   1      57.836   0.608  30.376  0.00  0.00     0.058 A 
ENDROOT
BRANCH   2   6
ATOM      6  N   UNL d   1      58.638  -1.170  29.556  0.00  0.00    -0.120 NA
BRANCH   6   7
ATOM      7  N   UNL d   1      58.560  -1.952  29.772  0.00  0.00    -0.127 NA
BRANCH   7   8
ATOM      8  C   UNL d   1      59.014  -2.532  29.388  0.00  0.00     0.184 A 
ATOM      9  N   UNL d   1      59.819  -2.394  29.452  0.00  0.00    -0.224 NA
ATOM     10  C   UNL d   1      60.450  -2.818  29.163  0.00  0.00     0.101 A 
ATOM     11  C   UNL d   1      60.443  -3.503  28.727  0.00  0.00     0.021 A 
ATOM     12  C   UNL d   1      59.785  -3.942  28.467  0.00  0.00     0.002 A 
ATOM     13  C   UNL d   1      58.998  -3.795  28.583  0.00  0.00     0.003 A 
ATOM     14  C   UNL d   1      58.635  -3.158  29.001  0.00  0.00     0.041 A 
ENDBRANCH   7   8
ENDBRANCH   6   7
ENDBRANCH   2   6
BRANCH   3  15
ATOM     15  C   UNL d   1      57.302   0.220  31.715  0.00  0.00     0.018 A 
ATOM     16  C   UNL d   1      57.721   0.462  32.371  0.00  0.00     0.002 A 
ATOM     17  C   UNL d   1      57.337   0.594  33.087  0.00  0.00     0.011 A 
ATOM     18  C   UNL d   1      56.522   0.479  33.143  0.00  0.00     0.058 A 
ATOM     19  C   UNL d   1      56.084   0.235  32.492  0.00  0.00     0.011 A 
ATOM     20 CL   UNL d   1      56.146   0.617  33.878  0.00  0.00    -0.082 Cl
ATOM     21  C   UNL d   1      56.471   0.102  31.768  0.00  0.00     0.002 A 
ENDBRANCH   3  15
TORSDOF 4
ENDMDL
MODEL 3
REMARK VINA RESULT:      -2.9      8.785      9.058
REMARK  4 active torsions:
REMARK  status: ('A' for Active; 'I' for Inactive)
REMARK    1  A    between atoms: N_8  and  C_2 
REMARK    2  A    between atoms: C_9  and  C_3 
REMARK    3  A    between atoms: C_7  and  N_10 
REMARK    4  A    between atoms: N_10  and  N_8 
ROOT
ATOM      1  N   UNL d   1      59.251  -9.759  32.005  0.00  0.00    -0.219 NA
ATOM      2  C   UNL d   1      59.969  -9.766  32.391  0.00  0.00     0.215 A 
ATOM      3  C   UNL d   1      59.427  -9.792  31.185  0.00  0.00     0.090 A 
ATOM      4  S   UNL d   1      60.576  -9.802  31.831  0.00  0.00    -0.045 SA
ATOM      5  C   UNL d   1      60.239  -9.818  31.098  0.00  0.00     0.058 A 
ENDROOT
BRANCH   2   6
ATOM      6  N   UNL d   1      60.083  -9.740  33.206  0.00  0.00    -0.120 NA
BRANCH   6   7
ATOM      7  N   UNL d   1      59.844  -9.088  33.631  0.00  0.00    -0.127 NA
BRANCH   7   8
ATOM      8  C   UNL d   1      60.016  -9.039  34.442  0.00  0.00     0.184 A 
ATOM      9  N   UNL d   1      60.567  -8.457  34.613  0.00  0.00    -0.224 NA
ATOM     10  C   UNL d   1      60.886  -8.227  35.324  0.00  0.00     0.101 A 
ATOM     11  C   UNL d   1      60.736  -8.522  36.066  0.00  0.00     0.021 A 
ATOM     12  C   UNL d   1      60.217  -9.135  36.281  0.00  0.00     0.002 A 
ATOM     13  C   UNL d   1      59.737  -9.585  35.809  0.00  0.00     0.003 A 
ATOM     14  C   UNL d   1      59.637  -9.550  34.972  0.00  0.00     0.041 A 
ENDBRANCH   7   8
ENDBRANCH   6   7
ENDBRANCH   2   6
BRANCH   3  15
ATOM     15  C   UNL d   1      58.832  -9.796  30.597  0.00  0.00     0.018 A 
ATOM     16  C   UNL d   1      59.016  -9.813  29.803  0.00  0.00     0.002 A 
ATOM     17  C   UNL d   1      58.419  -9.816  29.236  0.00  0.00     0.011 A 
ATOM     18  C   UNL d   1      57.629  -9.803  29.471  0.00  0.00     0.058 A 
ATOM     19  C   UNL d   1      57.425  -9.787  30.266  0.00  0.00     0.011 A 
ATOM     20 CL   UNL d   1      57.034  -9.807  28.883  0.00  0.00    -0.082 Cl
ATOM     21  C   UNL d   1      58.027  -9.783  30.841  0.00  0.00     0.002 A 
ENDBRANCH   3  15
TORSDOF 4
ENDMDL
MODEL 4
REMARK VINA RESULT:      -2.8      2.593      5.558
REMARK  4 active torsions:
REMARK  status: ('A' for Active; 'I' for Inactive)
REMARK    1  A    between atoms: N_8  and  C_2 
REMARK    2  A    between atoms: C_9  and  C_3 
REMARK    3  A    between atoms: C_7  and  N_10 
REMARK    4  A    between atoms: N_10  and  N_8 
ROOT
ATOM      1  N   UNL d   1      56.346   0.182  32.234  0.00  0.00    -0.219 NA
ATOM      2  C   UNL d   1      57.041   0.218  31.811  0.00  0.00     0.215 A 
ATOM      3  C   UNL d   1      56.523   0.474  33.001  0.00  0.00     0.090 A 
ATOM      4  S   UNL d   1      57.637   0.524  32.297  0.00  0.00    -0.045 SA
ATOM      5  C   UNL d   1      57.314   0.678  33.021  0.00  0.00     0.058 A 
ENDROOT
BRANCH   2   6
ATOM      6  N   UNL d   1      57.146  -0.010  31.027  0.00  0.00    -0.120 NA
BRANCH   6   7
ATOM      7  N   UNL d   1      57.557  -0.691  30.851  0.00  0.00    -0.127 NA
BRANCH   7   8
ATOM      8  C   UNL d   1      58.021  -0.726  30.163  0.00  0.00     0.184 A 
ATOM      9  N   UNL d   1      58.439  -1.428  30.102  0.00  0.00    -0.224 NA
ATOM     10  C   UNL d   1      58.951  -1.687  29.526  0.00  0.00     0.101 A 
ATOM     11  C   UNL d   1      59.185  -1.306  28.848  0.00  0.00     0.021 A 
ATOM     12  C   UNL d   1      58.956  -0.554  28.574  0.00  0.00     0.002 A 
ATOM     13  C   UNL d   1      58.450  -0.021  28.913  0.00  0.00     0.003 A 
ATOM     14  C   UNL d   1      58.019  -0.089  29.635  0.00  0.00     0.041 A 
ENDBRANCH   7   8
ENDBRANCH   6   7
ENDBRANCH   2   6
BRANCH   3  15
ATOM     15  C   UNL d   1      55.949   0.527  33.606  0.00  0.00     0.018 A 
ATOM     16  C   UNL d   1      55.155   0.603  33.438  0.00  0.00     0.002 A 
ATOM     17  C   UNL d   1      54.602   0.654  34.046  0.00  0.00     0.011 A 
ATOM     18  C   UNL d   1      54.852   0.629  34.832  0.00  0.00     0.058 A 
ATOM     19  C   UNL d   1      55.648   0.553  35.020  0.00  0.00     0.011 A 
ATOM     20 CL   UNL d   1      54.278   0.682  35.438  0.00  0.00    -0.082 Cl
ATOM     21  C   UNL d   1      56.207   0.501  34.407  0.00  0.00     0.002 A 
ENDBRANCH   3  15
TORSDOF 4
ENDMDL
