MODEL 1
REMARK VINA RESULT:      26.1      0.000      0.000
REMARK  2 active torsions:
REMARK  status: ('A' for Active; 'I' for Inactive)
REMARK    1  A    between atoms: N_2  and  S_1 
REMARK    2  A    between atoms: C_4  and  S_1 
ROOT
ATOM      1  N   UNL d   1      58.447  49.676  50.075  0.00  0.00    -0.231 N 
ATOM      2  C   UNL d   1      57.724  49.667  50.483  0.00  0.00     0.075 A 
ATOM      3  C   UNL d   1      57.000  49.676  50.076  0.00  0.00     0.017 A 
ATOM      4  C   UNL d   1      58.437  49.696  49.237  0.00  0.00     0.092 A 
ATOM      5  C   UNL d   1      57.734  49.647  51.321  0.00  0.00     0.018 A 
ATOM      6  C   UNL d   1      57.713  49.706  48.830  0.00  0.00     0.020 A 
ATOM      7  C   UNL d   1      56.999  49.696  49.260  0.00  0.00     0.003 A 
ATOM      8  C   UNL d   1      56.289  49.667  50.502  0.00  0.00     0.002 A 
ATOM      9  C   UNL d   1      57.019  49.637  51.734  0.00  0.00     0.002 A 
ATOM     10  C   UNL d   1      56.295  49.647  51.327  0.00  0.00     0.000 A 
ENDROOT
BRANCH   1  11
ATOM     11  S   UNL d   1      59.167  49.666  50.490  0.00  0.00     0.271 S 
ATOM     12  O   UNL d   1      58.812  49.655  51.178  0.00  0.00    -0.200 OA
ATOM     13  O   UNL d   1      59.590  49.677  49.775  0.00  0.00    -0.200 OA
BRANCH  11  14
ATOM     14  C   UNL d   1      59.835  49.656  50.880  0.00  0.00     0.104 A 
ATOM     15  C   UNL d   1      59.832  49.699  51.655  0.00  0.00     0.015 A 
ATOM     16  C   UNL d   1      60.502  49.690  52.042  0.00  0.00     0.022 A 
ATOM     17  C   UNL d   1      61.174  49.637  51.659  0.00  0.00     0.103 A 
ATOM     18  C   UNL d   1      61.168  49.594  50.879  0.00  0.00     0.022 A 
ATOM     19  N   UNL d   1      61.871  49.627  52.055  0.00  0.00    -0.148 N 
ATOM     20  C   UNL d   1      60.508  49.604  50.493  0.00  0.00     0.015 A 
ENDBRANCH  11  14
ENDBRANCH   1  11
TORSDOF 2
ENDMDL
