MODEL 1
REMARK VINA RESULT:      22.3      0.000      0.000
REMARK  7 active torsions:
REMARK  status: ('A' for Active; 'I' for Inactive)
REMARK    1  A    between atoms: N_9  and  C_2 
REMARK    2  A    between atoms: C_8  and  C_14 
REMARK    3  A    between atoms: C_15  and  N_9 
REMARK    4  A    between atoms: C_14  and  C_16 
REMARK    5  A    between atoms: C_17  and  C_15 
REMARK    6  A    between atoms: C_16  and  C_18 
REMARK    7  A    between atoms: C_18  and  C_17 
ROOT
ATOM      1  N   UNL d   1     -57.858 -98.757 -45.597  0.00  0.00    -0.198 NA
ATOM      2  C   UNL d   1     -57.559 -98.760 -44.825  0.00  0.00     0.166 A 
ATOM      3  C   UNL d   1     -58.673 -98.760 -45.723  0.00  0.00     0.222 A 
ATOM      4  C   UNL d   1     -58.077 -98.767 -44.183  0.00  0.00     0.054 A 
ATOM      5  N   UNL d   1     -59.190 -98.766 -45.078  0.00  0.00    -0.217 NA
ATOM      6  C   UNL d   1     -58.892 -98.770 -44.309  0.00  0.00     0.087 A 
ATOM      7  S   UNL d   1     -58.978 -98.757 -46.490  0.00  0.00    -0.037 SA
ATOM      8  C   UNL d   1     -57.777 -98.770 -43.419  0.00  0.00     0.005 A 
ATOM      9  C   UNL d   1     -59.408 -98.776 -43.672  0.00  0.00     0.019 A 
ATOM     10  C   UNL d   1     -58.296 -98.776 -42.772  0.00  0.00     0.000 A 
ATOM     11  C   UNL d   1     -59.111 -98.779 -42.898  0.00  0.00     0.002 A 
ENDROOT
BRANCH   2  12
ATOM     12  N   UNL d   1     -56.746 -98.757 -44.699  0.00  0.00    -0.225 NA
BRANCH  12  13
ATOM     13  C   UNL d   1     -56.325 -99.463 -44.755  0.00  0.00     0.101 C 
BRANCH  13  14
ATOM     14  C   UNL d   1     -55.501 -99.446 -44.733  0.00  0.00     0.021 C 
BRANCH  14  15
ATOM     15  C   UNL d   1     -55.072-100.152 -44.791  0.00  0.00     0.002 C 
BRANCH  15  16
ATOM     16  C   UNL d   1     -55.405-100.855 -44.527  0.00  0.00     0.006 C 
BRANCH  16  17
ATOM     17  C   UNL d   1     -54.960-101.367 -44.056  0.00  0.00     0.070 C 
BRANCH  17  18
ATOM     18  C   UNL d   1     -54.890-102.162 -44.268  0.00  0.00     0.211 C 
ATOM     19  O   UNL d   1     -54.984-102.391 -45.054  0.00  0.00    -0.644 OA
ATOM     20  O   UNL d   1     -54.725-102.731 -43.686  0.00  0.00    -0.644 OA
ENDBRANCH  17  18
ENDBRANCH  16  17
ENDBRANCH  15  16
ENDBRANCH  14  15
ENDBRANCH  13  14
ENDBRANCH  12  13
ENDBRANCH   2  12
TORSDOF 7
ENDMDL
