MODEL 1
REMARK VINA RESULT:      -7.7      0.000      0.000
REMARK  4 active torsions:
REMARK  status: ('A' for Active; 'I' for Inactive)
REMARK    1  A    between atoms: C_2  and  S_1 
REMARK    2  A    between atoms: N_3  and  S_1 
REMARK    3  A    between atoms: C_10  and  N_3 
REMARK    4  A    between atoms: C_5  and  C_10 
ROOT
ATOM      1  S   UNL d   1      52.143  34.100  53.335  0.00  0.00     0.285 S 
ATOM      2  O   UNL d   1      51.789  33.438  53.666  0.00  0.00    -0.198 OA
ATOM      3  O   UNL d   1      52.512  34.781  52.996  0.00  0.00    -0.198 OA
ENDROOT
BRANCH   1   4
ATOM      4  C   UNL d   1      52.855  33.940  53.780  0.00  0.00     0.105 A 
ATOM      5  C   UNL d   1      53.391  33.366  53.517  0.00  0.00     0.013 A 
ATOM      6  C   UNL d   1      54.074  33.218  53.951  0.00  0.00     0.001 A 
ATOM      7  C   UNL d   1      54.612  32.632  53.675  0.00  0.00     0.000 C 
ATOM      8  C   UNL d   1      54.224  33.636  54.643  0.00  0.00     0.000 A 
ATOM      9  C   UNL d   1      53.689  34.203  54.898  0.00  0.00     0.001 A 
ATOM     10  C   UNL d   1      54.932  33.477  55.087  0.00  0.00     0.000 C 
ATOM     11  C   UNL d   1      53.001  34.359  54.470  0.00  0.00     0.013 A 
ENDBRANCH   1   4
BRANCH   1  12
ATOM     12  N   UNL d   1      51.439  34.257  52.895  0.00  0.00    -0.155 NA
BRANCH  12  13
ATOM     13  C   UNL d   1      50.658  34.136  53.083  0.00  0.00     0.137 C 
BRANCH  13  14
ATOM     14  C   UNL d   1      50.065  34.389  52.565  0.00  0.00     0.120 A 
ATOM     15  O   UNL d   1      49.982  34.200  51.736  0.00  0.00    -0.304 OA
ATOM     16  C   UNL d   1      49.301  34.589  51.475  0.00  0.00     0.123 A 
ATOM     17  C   UNL d   1      48.969  35.013  52.138  0.00  0.00     0.029 A 
ATOM     18  C   UNL d   1      49.455  34.868  52.772  0.00  0.00     0.028 A 
ENDBRANCH  13  14
ENDBRANCH  12  13
ENDBRANCH   1  12
TORSDOF 4
ENDMDL
MODEL 2
REMARK VINA RESULT:      -7.4      2.374      3.963
REMARK  4 active torsions:
REMARK  status: ('A' for Active; 'I' for Inactive)
REMARK    1  A    between atoms: C_2  and  S_1 
REMARK    2  A    between atoms: N_3  and  S_1 
REMARK    3  A    between atoms: C_10  and  N_3 
REMARK    4  A    between atoms: C_5  and  C_10 
ROOT
ATOM      1  S   UNL d   1      53.577  32.487  54.029  0.00  0.00     0.285 S 
ATOM      2  O   UNL d   1      53.415  32.381  54.826  0.00  0.00    -0.198 OA
ATOM      3  O   UNL d   1      53.744  32.600  53.208  0.00  0.00    -0.198 OA
ENDROOT
BRANCH   1   4
ATOM      4  C   UNL d   1      53.450  33.328  54.116  0.00  0.00     0.105 A 
ATOM      5  C   UNL d   1      52.860  33.708  53.676  0.00  0.00     0.013 A 
ATOM      6  C   UNL d   1      52.744  34.517  53.765  0.00  0.00     0.001 A 
ATOM      7  C   UNL d   1      52.141  34.893  53.313  0.00  0.00     0.000 C 
ATOM      8  C   UNL d   1      53.211  34.948  54.287  0.00  0.00     0.000 A 
ATOM      9  C   UNL d   1      53.794  34.565  54.720  0.00  0.00     0.001 A 
ATOM     10  C   UNL d   1      53.086  35.785  54.374  0.00  0.00     0.000 C 
ATOM     11  C   UNL d   1      53.918  33.754  54.638  0.00  0.00     0.013 A 
ENDBRANCH   1   4
BRANCH   1  12
ATOM     12  N   UNL d   1      53.703  31.656  53.945  0.00  0.00    -0.155 NA
BRANCH  12  13
ATOM     13  C   UNL d   1      53.448  31.137  53.374  0.00  0.00     0.137 C 
BRANCH  13  14
ATOM     14  C   UNL d   1      53.310  30.344  53.569  0.00  0.00     0.120 A 
ATOM     15  O   UNL d   1      53.719  29.872  54.150  0.00  0.00    -0.304 OA
ATOM     16  C   UNL d   1      53.371  29.122  54.129  0.00  0.00     0.123 A 
ATOM     17  C   UNL d   1      52.754  29.135  53.540  0.00  0.00     0.029 A 
ATOM     18  C   UNL d   1      52.748  29.884  53.226  0.00  0.00     0.028 A 
ENDBRANCH  13  14
ENDBRANCH  12  13
ENDBRANCH   1  12
TORSDOF 4
ENDMDL
MODEL 3
REMARK VINA RESULT:      -7.2      0.917      4.405
REMARK  4 active torsions:
REMARK  status: ('A' for Active; 'I' for Inactive)
REMARK    1  A    between atoms: C_2  and  S_1 
REMARK    2  A    between atoms: N_3  and  S_1 
REMARK    3  A    between atoms: C_10  and  N_3 
REMARK    4  A    between atoms: C_5  and  C_10 
ROOT
ATOM      1  S   UNL d   1      51.992  34.107  53.349  0.00  0.00     0.285 S 
ATOM      2  O   UNL d   1      51.669  33.412  53.642  0.00  0.00    -0.198 OA
ATOM      3  O   UNL d   1      52.322  34.824  53.045  0.00  0.00    -0.198 OA
ENDROOT
BRANCH   1   4
ATOM      4  C   UNL d   1      51.303  34.219  52.857  0.00  0.00     0.105 A 
ATOM      5  C   UNL d   1      50.614  34.552  53.173  0.00  0.00     0.013 A 
ATOM      6  C   UNL d   1      49.955  34.656  52.693  0.00  0.00     0.001 A 
ATOM      7  C   UNL d   1      49.260  34.996  53.024  0.00  0.00     0.000 C 
ATOM      8  C   UNL d   1      49.978  34.432  51.902  0.00  0.00     0.000 A 
ATOM      9  C   UNL d   1      50.664  34.102  51.595  0.00  0.00     0.001 A 
ATOM     10  C   UNL d   1      49.293  34.542  51.411  0.00  0.00     0.000 C 
ATOM     11  C   UNL d   1      51.331  33.993  52.069  0.00  0.00     0.013 A 
ENDBRANCH   1   4
BRANCH   1  12
ATOM     12  N   UNL d   1      52.673  33.996  53.837  0.00  0.00    -0.155 NA
BRANCH  12  13
ATOM     13  C   UNL d   1      53.121  33.333  53.979  0.00  0.00     0.137 C 
BRANCH  13  14
ATOM     14  C   UNL d   1      53.813  33.390  54.430  0.00  0.00     0.120 A 
ATOM     15  O   UNL d   1      53.899  33.726  55.211  0.00  0.00    -0.304 OA
ATOM     16  C   UNL d   1      54.697  33.648  55.412  0.00  0.00     0.123 A 
ATOM     17  C   UNL d   1      55.096  33.268  54.760  0.00  0.00     0.029 A 
ATOM     18  C   UNL d   1      54.533  33.130  54.191  0.00  0.00     0.028 A 
ENDBRANCH  13  14
ENDBRANCH  12  13
ENDBRANCH   1  12
TORSDOF 4
ENDMDL
MODEL 4
REMARK VINA RESULT:      -6.9      2.466      3.657
REMARK  4 active torsions:
REMARK  status: ('A' for Active; 'I' for Inactive)
REMARK    1  A    between atoms: C_2  and  S_1 
REMARK    2  A    between atoms: N_3  and  S_1 
REMARK    3  A    between atoms: C_10  and  N_3 
REMARK    4  A    between atoms: C_5  and  C_10 
ROOT
ATOM      1  S   UNL d   1      53.227  32.273  53.698  0.00  0.00     0.285 S 
ATOM      2  O   UNL d   1      52.411  32.351  53.670  0.00  0.00    -0.198 OA
ATOM      3  O   UNL d   1      54.069  32.189  53.727  0.00  0.00    -0.198 OA
ENDROOT
BRANCH   1   4
ATOM      4  C   UNL d   1      53.153  31.442  53.516  0.00  0.00     0.105 A 
ATOM      5  C   UNL d   1      53.335  30.871  54.088  0.00  0.00     0.013 A 
ATOM      6  C   UNL d   1      53.261  30.073  53.905  0.00  0.00     0.001 A 
ATOM      7  C   UNL d   1      53.449  29.502  54.495  0.00  0.00     0.000 C 
ATOM      8  C   UNL d   1      53.008  29.841  53.158  0.00  0.00     0.000 A 
ATOM      9  C   UNL d   1      52.830  30.411  52.595  0.00  0.00     0.001 A 
ATOM     10  C   UNL d   1      52.934  29.014  52.975  0.00  0.00     0.000 C 
ATOM     11  C   UNL d   1      52.901  31.215  52.769  0.00  0.00     0.013 A 
ENDBRANCH   1   4
BRANCH   1  12
ATOM     12  N   UNL d   1      53.300  33.095  53.879  0.00  0.00    -0.155 NA
BRANCH  12  13
ATOM     13  C   UNL d   1      52.732  33.658  54.028  0.00  0.00     0.137 C 
BRANCH  13  14
ATOM     14  C   UNL d   1      52.956  34.414  54.277  0.00  0.00     0.120 A 
ATOM     15  O   UNL d   1      53.334  34.630  55.012  0.00  0.00    -0.304 OA
ATOM     16  C   UNL d   1      53.438  35.450  54.989  0.00  0.00     0.123 A 
ATOM     17  C   UNL d   1      53.126  35.734  54.247  0.00  0.00     0.029 A 
ATOM     18  C   UNL d   1      52.846  35.084  53.849  0.00  0.00     0.028 A 
ENDBRANCH  13  14
ENDBRANCH  12  13
ENDBRANCH   1  12
TORSDOF 4
ENDMDL
