MODEL 1
REMARK VINA RESULT:      41.8      0.000      0.000
REMARK  4 active torsions:
REMARK  status: ('A' for Active; 'I' for Inactive)
REMARK    1  A    between atoms: C_5  and  C_1 
REMARK    2  A    between atoms: C_2  and  C_5 
REMARK    3  A    between atoms: C_12  and  N_3 
REMARK    4  A    between atoms: C_13  and  N_4 
ROOT
ATOM      1  C   UNL d   1      45.410 -14.007  43.987  0.00  0.00     0.133 C 
ATOM      2 CL   UNL d   1      44.723 -13.974  43.513  0.00  0.00    -0.076 Cl
ENDROOT
BRANCH   1   3
ATOM      3  C   UNL d   1      45.691 -14.725  44.278  0.00  0.00     0.202 A 
ATOM      4  N   UNL d   1      45.174 -15.259  44.594  0.00  0.00    -0.191 N 
ATOM      5  N   UNL d   1      45.600 -15.918  44.838  0.00  0.00    -0.039 NA
ATOM      6  N   UNL d   1      46.384 -15.788  44.670  0.00  0.00    -0.022 NA
ATOM      7  N   UNL d   1      46.443 -15.048  44.322  0.00  0.00    -0.107 NA
BRANCH   4   8
ATOM      8  C   UNL d   1      44.365 -15.163  44.662  0.00  0.00     0.086 A 
ATOM      9  C   UNL d   1      43.859 -15.796  44.510  0.00  0.00     0.019 A 
ATOM     10  C   UNL d   1      43.043 -15.698  44.579  0.00  0.00     0.002 A 
ATOM     11  C   UNL d   1      42.736 -14.968  44.801  0.00  0.00     0.000 A 
ATOM     12  C   UNL d   1      43.240 -14.329  44.955  0.00  0.00     0.002 A 
ATOM     13  C   UNL d   1      41.905 -14.862  44.873  0.00  0.00     0.000 C 
ATOM     14  C   UNL d   1      44.054 -14.431  44.884  0.00  0.00     0.019 A 
ENDBRANCH   4   8
ENDBRANCH   1   3
BRANCH   1  15
ATOM     15  C   UNL d   1      45.815 -13.305  44.169  0.00  0.00     0.202 A 
ATOM     16  N   UNL d   1      45.874 -12.644  43.691  0.00  0.00    -0.191 N 
ATOM     17  N   UNL d   1      46.323 -12.085  44.088  0.00  0.00    -0.039 NA
ATOM     18  N   UNL d   1      46.539 -12.406  44.811  0.00  0.00    -0.022 NA
ATOM     19  N   UNL d   1      46.231 -13.149  44.864  0.00  0.00    -0.107 NA
BRANCH  16  20
ATOM     20  C   UNL d   1      45.553 -12.523  42.939  0.00  0.00     0.086 A 
ATOM     21  C   UNL d   1      45.986 -12.725  42.261  0.00  0.00     0.019 A 
ATOM     22  C   UNL d   1      45.666 -12.604  41.509  0.00  0.00     0.002 A 
ATOM     23  C   UNL d   1      44.912 -12.281  41.435  0.00  0.00     0.000 A 
ATOM     24  C   UNL d   1      44.481 -12.080  42.099  0.00  0.00     0.002 A 
ATOM     25  C   UNL d   1      44.579 -12.155  40.674  0.00  0.00     0.000 C 
ATOM     26  C   UNL d   1      44.801 -12.201  42.850  0.00  0.00     0.019 A 
ENDBRANCH  16  20
ENDBRANCH   1  15
TORSDOF 4
ENDMDL
