MODEL 1
REMARK VINA RESULT:      46.3      0.000      0.000
REMARK  5 active torsions:
REMARK  status: ('A' for Active; 'I' for Inactive)
REMARK    1  A    between atoms: N_2  and  S_1 
REMARK    2  A    between atoms: C_3  and  S_1 
REMARK    3  A    between atoms: C_8  and  N_2 
REMARK    4  A    between atoms: C_7  and  C_6 
REMARK    5  A    between atoms: C_16  and  C_8 
ROOT
ATOM      1  C   UNL d   1     -54.762-101.572 -41.327  0.00  0.00     0.105 A 
ATOM      2  C   UNL d   1     -54.761-101.845 -39.691  0.00  0.00     0.000 A 
ATOM      3  C   UNL d   1     -54.731-100.937 -40.802  0.00  0.00     0.013 A 
ATOM      4  C   UNL d   1     -54.792-102.341 -41.036  0.00  0.00     0.013 A 
ATOM      5  C   UNL d   1     -54.730-101.074 -39.980  0.00  0.00     0.001 A 
ATOM      6  C   UNL d   1     -54.792-102.478 -40.215  0.00  0.00     0.001 A 
ENDROOT
BRANCH   1   7
ATOM      7  S   UNL d   1     -54.762-101.431 -42.139  0.00  0.00     0.285 S 
ATOM      8  O   UNL d   1     -54.712-102.237 -42.284  0.00  0.00    -0.198 OA
ATOM      9  O   UNL d   1     -54.762-101.295 -42.945  0.00  0.00    -0.198 OA
BRANCH   7  10
ATOM     10  N   UNL d   1     -54.812-100.620 -41.998  0.00  0.00    -0.155 NA
BRANCH  10  11
ATOM     11  C   UNL d   1     -54.721-100.089 -42.626  0.00  0.00     0.137 C 
BRANCH  11  12
ATOM     12  C   UNL d   1     -55.230-100.141 -43.288  0.00  0.00     0.120 A 
ATOM     13  O   UNL d   1     -55.176-100.683 -43.910  0.00  0.00    -0.304 OA
ATOM     14  C   UNL d   1     -55.792-100.526 -44.435  0.00  0.00     0.123 A 
ATOM     15  C   UNL d   1     -56.223 -99.897 -44.142  0.00  0.00     0.029 A 
ATOM     16  C   UNL d   1     -55.878 -99.656 -43.432  0.00  0.00     0.028 A 
ENDBRANCH  11  12
ENDBRANCH  10  11
ENDBRANCH   7  10
ENDBRANCH   1   7
BRANCH   2  17
ATOM     17  C   UNL d   1     -54.760-101.974 -38.884  0.00  0.00     0.000 A 
ATOM     18  C   UNL d   1     -54.715-101.334 -38.368  0.00  0.00     0.000 A 
ATOM     19  C   UNL d   1     -54.713-101.456 -37.552  0.00  0.00     0.000 A 
ATOM     20  C   UNL d   1     -54.759-102.234 -37.255  0.00  0.00     0.000 A 
ATOM     21  C   UNL d   1     -54.804-102.873 -37.771  0.00  0.00     0.000 A 
ATOM     22  C   UNL d   1     -54.758-102.360 -36.440  0.00  0.00     0.000 C 
ATOM     23  C   UNL d   1     -54.805-102.747 -38.586  0.00  0.00     0.000 A 
ENDBRANCH   2  17
TORSDOF 5
ENDMDL
MODEL 2
REMARK VINA RESULT:      47.5      1.250      1.981
REMARK  5 active torsions:
REMARK  status: ('A' for Active; 'I' for Inactive)
REMARK    1  A    between atoms: N_2  and  S_1 
REMARK    2  A    between atoms: C_3  and  S_1 
REMARK    3  A    between atoms: C_8  and  N_2 
REMARK    4  A    between atoms: C_7  and  C_6 
REMARK    5  A    between atoms: C_16  and  C_8 
ROOT
ATOM      1  C   UNL d   1     -54.848-100.327 -42.354  0.00  0.00     0.105 A 
ATOM      2  C   UNL d   1     -54.850-101.178 -40.932  0.00  0.00     0.000 A 
ATOM      3  C   UNL d   1     -54.741-101.144 -42.362  0.00  0.00     0.013 A 
ATOM      4  C   UNL d   1     -54.955 -99.935 -41.639  0.00  0.00     0.013 A 
ATOM      5  C   UNL d   1     -54.742-101.571 -41.647  0.00  0.00     0.001 A 
ATOM      6  C   UNL d   1     -54.956-100.362 -40.924  0.00  0.00     0.001 A 
ENDROOT
BRANCH   1   7
ATOM      7  S   UNL d   1     -54.846 -99.907 -43.065  0.00  0.00     0.285 S 
ATOM      8  O   UNL d   1     -54.796 -99.200 -42.653  0.00  0.00    -0.198 OA
ATOM      9  O   UNL d   1     -54.844 -99.489 -43.767  0.00  0.00    -0.198 OA
BRANCH   7  10
ATOM     10  N   UNL d   1     -54.896-100.617 -43.483  0.00  0.00    -0.155 NA
BRANCH  10  11
ATOM     11  C   UNL d   1     -54.793-100.616 -44.303  0.00  0.00     0.137 C 
BRANCH  11  12
ATOM     12  C   UNL d   1     -54.835-101.337 -44.726  0.00  0.00     0.120 A 
ATOM     13  O   UNL d   1     -55.000-101.427 -45.532  0.00  0.00    -0.304 OA
ATOM     14  C   UNL d   1     -54.984-102.234 -45.702  0.00  0.00     0.123 A 
ATOM     15  C   UNL d   1     -54.812-102.638 -45.014  0.00  0.00     0.029 A 
ATOM     16  C   UNL d   1     -54.719-102.086 -44.407  0.00  0.00     0.028 A 
ENDBRANCH  11  12
ENDBRANCH  10  11
ENDBRANCH   7  10
ENDBRANCH   1   7
BRANCH   2  17
ATOM     17  C   UNL d   1     -54.850-101.602 -40.233  0.00  0.00     0.000 A 
ATOM     18  C   UNL d   1     -54.979-101.212 -39.519  0.00  0.00     0.000 A 
ATOM     19  C   UNL d   1     -54.981-101.632 -38.809  0.00  0.00     0.000 A 
ATOM     20  C   UNL d   1     -54.851-102.456 -38.821  0.00  0.00     0.000 A 
ATOM     21  C   UNL d   1     -54.721-102.845 -39.534  0.00  0.00     0.000 A 
ATOM     22  C   UNL d   1     -54.852-102.879 -38.113  0.00  0.00     0.000 C 
ATOM     23  C   UNL d   1     -54.720-102.421 -40.242  0.00  0.00     0.000 A 
ENDBRANCH   2  17
TORSDOF 5
ENDMDL
