MODEL 1
REMARK VINA RESULT:      39.8      0.000      0.000
REMARK  4 active torsions:
REMARK  status: ('A' for Active; 'I' for Inactive)
REMARK    1  A    between atoms: C_7  and  C_1 
REMARK    2  A    between atoms: C_8  and  C_2 
REMARK    3  A    between atoms: C_10  and  C_4 
REMARK    4  A    between atoms: O_13  and  C_7 
ROOT
ATOM      1  C   UNL d   1     -51.493  25.688  33.411  0.00  0.00     0.086 A 
ATOM      2  C   UNL d   1     -52.059  24.387  33.350  0.00  0.00     0.064 A 
ATOM      3  C   UNL d   1     -52.829  24.723  33.346  0.00  0.00     0.205 A 
ATOM      4  C   UNL d   1     -51.404  24.881  33.382  0.00  0.00     0.012 A 
ATOM      5  C   UNL d   1     -52.263  26.023  33.407  0.00  0.00     0.107 A 
ATOM      6  O   UNL d   1     -52.921  25.542  33.375  0.00  0.00    -0.288 OA
ATOM      7  N   UNL d   1     -53.525  24.234  33.313  0.00  0.00    -0.121 N 
ATOM      8  C   UNL d   1     -52.373  26.880  33.437  0.00  0.00     0.027 C 
ENDROOT
BRANCH   4   9
ATOM      9  C   UNL d   1     -50.661  24.557  33.386  0.00  0.00     0.000 A 
ATOM     10  C   UNL d   1     -50.565  23.750  33.461  0.00  0.00     0.000 A 
ATOM     11  C   UNL d   1     -49.817  23.425  33.464  0.00  0.00     0.000 A 
ATOM     12  C   UNL d   1     -49.154  23.901  33.393  0.00  0.00     0.000 A 
ATOM     13  C   UNL d   1     -49.253  24.720  33.317  0.00  0.00     0.000 A 
ATOM     14  C   UNL d   1     -50.000  25.045  33.314  0.00  0.00     0.000 A 
ENDBRANCH   4   9
BRANCH   2  15
ATOM     15  C   UNL d   1     -51.978  23.561  33.320  0.00  0.00     0.126 C 
ATOM     16  N   UNL d   1     -51.344  23.192  33.708  0.00  0.00    -0.146 N 
ENDBRANCH   2  15
BRANCH   1  17
ATOM     17  C   UNL d   1     -50.827  26.206  33.445  0.00  0.00     0.298 C 
ATOM     18  O   UNL d   1     -50.070  25.907  33.356  0.00  0.00    -0.259 OA
BRANCH  17  19
ATOM     19  O   UNL d   1     -50.954  27.013  33.568  0.00  0.00    -0.296 OA
ATOM     20  C   UNL d   1     -50.336  27.563  33.465  0.00  0.00     0.185 C 
ENDBRANCH  17  19
ENDBRANCH   1  17
TORSDOF 4
ENDMDL
MODEL 2
REMARK VINA RESULT:      41.1      1.648      3.355
REMARK  4 active torsions:
REMARK  status: ('A' for Active; 'I' for Inactive)
REMARK    1  A    between atoms: C_7  and  C_1 
REMARK    2  A    between atoms: C_8  and  C_2 
REMARK    3  A    between atoms: C_10  and  C_4 
REMARK    4  A    between atoms: O_13  and  C_7 
ROOT
ATOM      1  C   UNL d   1     -51.076  24.636  33.574  0.00  0.00     0.086 A 
ATOM      2  C   UNL d   1     -49.958  25.512  33.573  0.00  0.00     0.064 A 
ATOM      3  C   UNL d   1     -49.452  24.865  33.399  0.00  0.00     0.205 A 
ATOM      4  C   UNL d   1     -50.765  25.382  33.657  0.00  0.00     0.012 A 
ATOM      5  C   UNL d   1     -50.569  23.989  33.399  0.00  0.00     0.107 A 
ATOM      6  O   UNL d   1     -49.767  24.107  33.314  0.00  0.00    -0.288 OA
ATOM      7  N   UNL d   1     -48.613  24.972  33.306  0.00  0.00    -0.121 N 
ATOM      8  C   UNL d   1     -50.886  23.190  33.307  0.00  0.00     0.027 C 
ENDROOT
BRANCH   4   9
ATOM      9  C   UNL d   1     -51.254  26.006  33.825  0.00  0.00     0.000 A 
ATOM     10  C   UNL d   1     -51.303  26.639  33.313  0.00  0.00     0.000 A 
ATOM     11  C   UNL d   1     -51.794  27.267  33.482  0.00  0.00     0.000 A 
ATOM     12  C   UNL d   1     -52.245  27.272  34.167  0.00  0.00     0.000 A 
ATOM     13  C   UNL d   1     -52.195  26.628  34.686  0.00  0.00     0.000 A 
ATOM     14  C   UNL d   1     -51.703  26.001  34.517  0.00  0.00     0.000 A 
ENDBRANCH   4   9
BRANCH   2  15
ATOM     15  C   UNL d   1     -49.631  26.271  33.657  0.00  0.00     0.126 C 
ATOM     16  N   UNL d   1     -48.970  26.385  34.146  0.00  0.00    -0.146 N 
ENDBRANCH   2  15
BRANCH   1  17
ATOM     17  C   UNL d   1     -51.904  24.490  33.658  0.00  0.00     0.298 C 
ATOM     18  O   UNL d   1     -52.446  25.061  33.433  0.00  0.00    -0.259 OA
BRANCH  17  19
ATOM     19  O   UNL d   1     -52.152  23.765  33.968  0.00  0.00    -0.296 OA
ATOM     20  C   UNL d   1     -52.901  23.454  33.778  0.00  0.00     0.185 C 
ENDBRANCH  17  19
ENDBRANCH   1  17
TORSDOF 4
ENDMDL
