MODEL 1
REMARK VINA RESULT:      -3.2      0.000      0.000
REMARK  6 active torsions:
REMARK  status: ('A' for Active; 'I' for Inactive)
REMARK    1  A    between atoms: C_9  and  N_1 
REMARK    2  A    between atoms: N_2  and  C_8 
REMARK       I    between atoms: C_3  and  N_5 
REMARK    3  A    between atoms: C_12  and  C_3 
REMARK    4  A    between atoms: C_4  and  C_11 
REMARK       I    between atoms: N_6  and  C_4 
REMARK    5  A    between atoms: N_5  and  C_7 
REMARK    6  A    between atoms: C_10  and  N_6 
ROOT
ATOM      1  C   UNL d   1      58.071   0.583  30.187  0.00  0.00     0.121 A 
ATOM      2  C   UNL d   1      58.856   0.632  29.940  0.00  0.00     0.105 A 
ATOM      3  N   UNL d   1      57.590   0.630  28.845  0.00  0.00    -0.241 NA
ATOM      4  C   UNL d   1      59.003   0.682  29.108  0.00  0.00     0.042 A 
ATOM      5  C   UNL d   1      57.432   0.580  29.663  0.00  0.00     0.120 A 
ATOM      6  C   UNL d   1      58.377   0.680  28.587  0.00  0.00     0.101 A 
ENDROOT
BRANCH   1   7
ATOM      7  N   UNL d   1      57.925   0.533  31.022  0.00  0.00    -0.205 NA
ATOM      8  C   UNL d   1      57.130   0.465  31.305  0.00  0.00     0.279 C 
ATOM      9  O   UNL d   1      56.497   0.448  30.742  0.00  0.00    -0.265 OA
BRANCH   8  10
ATOM     10  C   UNL d   1      56.980   0.416  32.118  0.00  0.00     0.059 A 
ATOM     11  C   UNL d   1      56.224   0.218  32.386  0.00  0.00     0.028 A 
ATOM     12  C   UNL d   1      56.083   0.171  33.181  0.00  0.00     0.127 A 
ATOM     13  C   UNL d   1      56.673   0.317  33.717  0.00  0.00     0.024 A 
ATOM     14  C   UNL d   1      57.432   0.515  33.468  0.00  0.00     0.002 A 
ATOM     15  C   UNL d   1      57.588   0.566  32.651  0.00  0.00     0.005 A 
BRANCH  12  16
ATOM     16  N   UNL d   1      55.351  -0.021  33.464  0.00  0.00    -0.114 N 
ATOM     17  O   UNL d   1      54.748   0.517  33.652  0.00  0.00    -0.532 OA
ATOM     18  O   UNL d   1      55.106  -0.787  33.606  0.00  0.00    -0.532 OA
ENDBRANCH  12  16
ENDBRANCH   8  10
ENDBRANCH   1   7
BRANCH   2  19
ATOM     19  N   UNL d   1      59.493   0.635  30.469  0.00  0.00    -0.206 NA
ATOM     20  C   UNL d   1      60.099   0.077  30.407  0.00  0.00     0.279 C 
ATOM     21  O   UNL d   1      60.722   0.079  30.924  0.00  0.00    -0.265 OA
BRANCH  20  22
ATOM     22  C   UNL d   1      60.065  -0.507  29.790  0.00  0.00     0.059 A 
ATOM     23  C   UNL d   1      59.723  -1.241  29.946  0.00  0.00     0.028 A 
ATOM     24  C   UNL d   1      59.689  -1.804  29.352  0.00  0.00     0.127 A 
ATOM     25  C   UNL d   1      59.984  -1.643  28.631  0.00  0.00     0.024 A 
ATOM     26  C   UNL d   1      60.336  -0.901  28.455  0.00  0.00     0.002 A 
ATOM     27  C   UNL d   1      60.373  -0.326  29.055  0.00  0.00     0.005 A 
BRANCH  24  28
ATOM     28  N   UNL d   1      59.356  -2.534  29.483  0.00  0.00    -0.114 N 
ATOM     29  O   UNL d   1      58.654  -2.668  29.917  0.00  0.00    -0.532 OA
ATOM     30  O   UNL d   1      59.667  -3.235  29.207  0.00  0.00    -0.532 OA
ENDBRANCH  24  28
ENDBRANCH  20  22
ENDBRANCH   2  19
TORSDOF 6
ENDMDL
MODEL 2
REMARK VINA RESULT:      -1.5      9.066     10.324
REMARK  6 active torsions:
REMARK  status: ('A' for Active; 'I' for Inactive)
REMARK    1  A    between atoms: C_9  and  N_1 
REMARK    2  A    between atoms: N_2  and  C_8 
REMARK       I    between atoms: C_3  and  N_5 
REMARK    3  A    between atoms: C_12  and  C_3 
REMARK    4  A    between atoms: C_4  and  C_11 
REMARK       I    between atoms: N_6  and  C_4 
REMARK    5  A    between atoms: N_5  and  C_7 
REMARK    6  A    between atoms: C_10  and  N_6 
ROOT
ATOM      1  C   UNL d   1      59.718  -9.505  33.190  0.00  0.00     0.121 A 
ATOM      2  C   UNL d   1      59.718  -9.584  34.010  0.00  0.00     0.105 A 
ATOM      3  N   UNL d   1      61.119  -9.240  33.161  0.00  0.00    -0.241 NA
ATOM      4  C   UNL d   1      60.455  -9.484  34.414  0.00  0.00     0.042 A 
ATOM      5  C   UNL d   1      60.397  -9.336  32.752  0.00  0.00     0.120 A 
ATOM      6  C   UNL d   1      61.128  -9.317  33.988  0.00  0.00     0.101 A 
ENDROOT
BRANCH   1   7
ATOM      7  N   UNL d   1      58.977  -9.606  32.787  0.00  0.00    -0.205 NA
ATOM      8  C   UNL d   1      58.944  -9.527  31.944  0.00  0.00     0.279 C 
ATOM      9  O   UNL d   1      59.658  -9.349  31.524  0.00  0.00    -0.265 OA
BRANCH   8  10
ATOM     10  C   UNL d   1      58.226  -9.624  31.544  0.00  0.00     0.059 A 
ATOM     11  C   UNL d   1      58.212  -9.630  30.718  0.00  0.00     0.028 A 
ATOM     12  C   UNL d   1      57.507  -9.724  30.333  0.00  0.00     0.127 A 
ATOM     13  C   UNL d   1      56.816  -9.813  30.746  0.00  0.00     0.024 A 
ATOM     14  C   UNL d   1      56.811  -9.809  31.569  0.00  0.00     0.002 A 
ATOM     15  C   UNL d   1      57.531  -9.712  31.977  0.00  0.00     0.005 A 
BRANCH  12  16
ATOM     16  N   UNL d   1      57.471  -9.734  29.526  0.00  0.00    -0.114 N 
ATOM     17  O   UNL d   1      56.781  -9.667  29.071  0.00  0.00    -0.532 OA
ATOM     18  O   UNL d   1      58.126  -9.811  29.044  0.00  0.00    -0.532 OA
ENDBRANCH  12  16
ENDBRANCH   8  10
ENDBRANCH   1   7
BRANCH   2  19
ATOM     19  N   UNL d   1      59.034  -9.754  34.445  0.00  0.00    -0.206 NA
ATOM     20  C   UNL d   1      58.927  -9.451  35.206  0.00  0.00     0.279 C 
ATOM     21  O   UNL d   1      58.258  -9.617  35.631  0.00  0.00    -0.265 OA
BRANCH  20  22
ATOM     22  C   UNL d   1      59.531  -8.957  35.545  0.00  0.00     0.059 A 
ATOM     23  C   UNL d   1      59.445  -8.137  35.519  0.00  0.00     0.028 A 
ATOM     24  C   UNL d   1      60.026  -7.661  35.845  0.00  0.00     0.127 A 
ATOM     25  C   UNL d   1      60.668  -7.987  36.183  0.00  0.00     0.024 A 
ATOM     26  C   UNL d   1      60.771  -8.820  36.219  0.00  0.00     0.002 A 
ATOM     27  C   UNL d   1      60.184  -9.308  35.889  0.00  0.00     0.005 A 
BRANCH  24  28
ATOM     28  N   UNL d   1      59.963  -6.850  35.830  0.00  0.00    -0.114 N 
ATOM     29  O   UNL d   1      59.254  -6.429  35.695  0.00  0.00    -0.532 OA
ATOM     30  O   UNL d   1      60.587  -6.340  35.947  0.00  0.00    -0.532 OA
ENDBRANCH  24  28
ENDBRANCH  20  22
ENDBRANCH   2  19
TORSDOF 6
ENDMDL
