MODEL 1
REMARK VINA RESULT:      16.4      0.000      0.000
REMARK  4 active torsions:
REMARK  status: ('A' for Active; 'I' for Inactive)
REMARK    1  A    between atoms: C_12  and  N_1 
REMARK    2  A    between atoms: N_2  and  C_11 
REMARK    3  A    between atoms: C_11  and  C_15 
REMARK    4  A    between atoms: C_15  and  C_12 
ROOT
ATOM      1  N   UNL d   1      45.628 -15.588  44.845  0.00  0.00    -0.303 N 
ATOM      2  C   UNL d   1      44.790 -15.621  44.867  0.00  0.00     0.064 A 
ATOM      3  C   UNL d   1      44.505 -14.835  44.786  0.00  0.00     0.018 A 
ATOM      4  C   UNL d   1      45.163 -14.332  44.716  0.00  0.00     0.018 A 
ATOM      5  C   UNL d   1      45.849 -14.792  44.752  0.00  0.00     0.064 A 
ATOM      6  C   UNL d   1      46.590 -14.433  44.696  0.00  0.00     0.018 A 
ATOM      7  C   UNL d   1      45.218 -13.514  44.623  0.00  0.00     0.002 A 
ATOM      8  C   UNL d   1      46.646 -13.616  44.604  0.00  0.00     0.002 A 
ATOM      9  C   UNL d   1      45.959 -13.156  44.567  0.00  0.00     0.000 A 
ATOM     10  C   UNL d   1      44.329 -16.302  44.953  0.00  0.00     0.019 C 
ATOM     11  C   UNL d   1      43.717 -14.608  44.777  0.00  0.00     0.002 C 
ATOM     12  C   UNL d   1      46.015 -12.338  44.475  0.00  0.00     0.000 C 
ENDROOT
BRANCH   1  13
ATOM     13  C   UNL d   1      46.133 -16.241  44.907  0.00  0.00     0.124 C 
BRANCH  13  14
ATOM     14  C   UNL d   1      46.119 -16.822  44.317  0.00  0.00     0.232 C 
ATOM     15  O   UNL d   1      45.792 -16.654  43.575  0.00  0.00    -0.283 OA
BRANCH  14  16
ATOM     16  C   UNL d   1      46.432 -17.566  44.470  0.00  0.00     0.144 C 
BRANCH  16  17
ATOM     17  N   UNL d   1      46.442 -18.144  43.876  0.00  0.00    -0.225 N 
ATOM     18  N   UNL d   1      46.537 -18.006  43.069  0.00  0.00    -0.165 NA
ATOM     19  C   UNL d   1      46.513 -18.737  42.677  0.00  0.00     0.109 A 
ATOM     20  C   UNL d   1      46.587 -18.852  41.865  0.00  0.00     0.023 C 
ATOM     21  C   UNL d   1      46.403 -19.325  43.251  0.00  0.00     0.072 A 
ATOM     22  C   UNL d   1      46.359 -18.964  43.988  0.00  0.00     0.091 A 
ATOM     23 BR   UNL d   1      46.347 -20.136  43.106  0.00  0.00    -0.046 Br
ATOM     24  C   UNL d   1      46.251 -19.345  44.713  0.00  0.00     0.021 C 
ENDBRANCH  16  17
ENDBRANCH  14  16
ENDBRANCH  13  14
ENDBRANCH   1  13
TORSDOF 4
ENDMDL
