MODEL 1
REMARK VINA RESULT:      -7.5      0.000      0.000
REMARK  5 active torsions:
REMARK  status: ('A' for Active; 'I' for Inactive)
REMARK    1  A    between atoms: C_3  and  C_1 
REMARK    2  A    between atoms: C_2  and  C_3 
REMARK    3  A    between atoms: C_4  and  C_2 
REMARK    4  A    between atoms: C_7  and  C_4 
REMARK    5  A    between atoms: O_14  and  C_8 
ROOT
ATOM      1  C   UNL d   1     -48.146  14.084  22.613  0.00  0.00     0.042 C 
ENDROOT
BRANCH   1   2
ATOM      2  C   UNL d   1     -48.650  14.746  22.409  0.00  0.00     0.199 C 
ATOM      3  O   UNL d   1     -48.314  15.503  22.339  0.00  0.00    -0.286 OA
BRANCH   2   4
ATOM      4  C   UNL d   1     -49.463  14.610  22.288  0.00  0.00     0.078 A 
ATOM      5  C   UNL d   1     -50.015  15.024  22.733  0.00  0.00     0.199 A 
ATOM      6  O   UNL d   1     -49.756  15.578  23.304  0.00  0.00    -0.286 OA
ATOM      7  C   UNL d   1     -50.808  14.899  22.624  0.00  0.00     0.042 A 
ATOM      8  C   UNL d   1     -51.060  14.335  22.043  0.00  0.00     0.003 A 
ATOM      9  C   UNL d   1     -50.523  13.938  21.616  0.00  0.00     0.000 A 
ATOM     10  C   UNL d   1     -49.720  14.065  21.728  0.00  0.00     0.006 A 
ENDBRANCH   2   4
ENDBRANCH   1   2
BRANCH   1  11
ATOM     11  C   UNL d   1     -47.332  14.225  22.790  0.00  0.00     0.003 C 
BRANCH  11  12
ATOM     12  C   UNL d   1     -46.878  13.574  22.947  0.00  0.00     0.000 A 
ATOM     13  C   UNL d   1     -47.086  13.033  23.511  0.00  0.00     0.002 A 
ATOM     14  C   UNL d   1     -46.602  12.379  23.648  0.00  0.00     0.024 A 
ATOM     15  C   UNL d   1     -45.906  12.259  23.223  0.00  0.00     0.094 A 
ATOM     16  C   UNL d   1     -45.696  12.814  22.647  0.00  0.00     0.024 A 
ATOM     17  C   UNL d   1     -46.176  13.474  22.503  0.00  0.00     0.002 A 
BRANCH  15  18
ATOM     18  O   UNL d   1     -45.424  11.596  23.369  0.00  0.00    -0.328 OA
ATOM     19  C   UNL d   1     -45.734  10.904  23.698  0.00  0.00     0.181 C 
ENDBRANCH  15  18
ENDBRANCH  11  12
ENDBRANCH   1  11
TORSDOF 5
ENDMDL
MODEL 2
REMARK VINA RESULT:      -6.9      1.414      1.836
REMARK  5 active torsions:
REMARK  status: ('A' for Active; 'I' for Inactive)
REMARK    1  A    between atoms: C_3  and  C_1 
REMARK    2  A    between atoms: C_2  and  C_3 
REMARK    3  A    between atoms: C_4  and  C_2 
REMARK    4  A    between atoms: C_7  and  C_4 
REMARK    5  A    between atoms: O_14  and  C_8 
ROOT
ATOM      1  C   UNL d   1     -48.418  13.319  22.785  0.00  0.00     0.042 C 
ENDROOT
BRANCH   1   2
ATOM      2  C   UNL d   1     -49.226  13.158  23.020  0.00  0.00     0.199 C 
ATOM      3  O   UNL d   1     -49.367  12.629  23.645  0.00  0.00    -0.286 OA
BRANCH   2   4
ATOM      4  C   UNL d   1     -49.846  13.538  22.614  0.00  0.00     0.078 A 
ATOM      5  C   UNL d   1     -50.280  13.122  22.054  0.00  0.00     0.199 A 
ATOM      6  O   UNL d   1     -50.096  12.321  21.897  0.00  0.00    -0.286 OA
ATOM      7  C   UNL d   1     -50.885  13.482  21.653  0.00  0.00     0.042 A 
ATOM      8  C   UNL d   1     -51.064  14.294  21.819  0.00  0.00     0.003 A 
ATOM      9  C   UNL d   1     -50.642  14.691  22.360  0.00  0.00     0.000 A 
ATOM     10  C   UNL d   1     -50.029  14.325  22.766  0.00  0.00     0.006 A 
ENDBRANCH   2   4
ENDBRANCH   1   2
BRANCH   1  11
ATOM     11  C   UNL d   1     -47.789  13.126  23.315  0.00  0.00     0.003 C 
BRANCH  11  12
ATOM     12  C   UNL d   1     -47.037  13.232  23.037  0.00  0.00     0.000 A 
ATOM     13  C   UNL d   1     -46.716  13.968  22.937  0.00  0.00     0.002 A 
ATOM     14  C   UNL d   1     -45.946  14.043  22.651  0.00  0.00     0.024 A 
ATOM     15  C   UNL d   1     -45.488  13.384  22.462  0.00  0.00     0.094 A 
ATOM     16  C   UNL d   1     -45.819  12.633  22.565  0.00  0.00     0.024 A 
ATOM     17  C   UNL d   1     -46.592  12.548  22.852  0.00  0.00     0.002 A 
BRANCH  15  18
ATOM     18  O   UNL d   1     -44.712  13.470  22.174  0.00  0.00    -0.328 OA
ATOM     19  C   UNL d   1     -44.321  12.844  21.802  0.00  0.00     0.181 C 
ENDBRANCH  15  18
ENDBRANCH  11  12
ENDBRANCH   1  11
TORSDOF 5
ENDMDL
MODEL 3
REMARK VINA RESULT:      -6.6      0.933      4.449
REMARK  5 active torsions:
REMARK  status: ('A' for Active; 'I' for Inactive)
REMARK    1  A    between atoms: C_3  and  C_1 
REMARK    2  A    between atoms: C_2  and  C_3 
REMARK    3  A    between atoms: C_4  and  C_2 
REMARK    4  A    between atoms: C_7  and  C_4 
REMARK    5  A    between atoms: O_14  and  C_8 
ROOT
ATOM      1  C   UNL d   1     -47.411  13.570  22.677  0.00  0.00     0.042 C 
ENDROOT
BRANCH   1   2
ATOM      2  C   UNL d   1     -46.600  13.307  22.754  0.00  0.00     0.199 C 
ATOM      3  O   UNL d   1     -45.985  13.818  22.525  0.00  0.00    -0.286 OA
BRANCH   2   4
ATOM      4  C   UNL d   1     -46.451  12.545  23.057  0.00  0.00     0.078 A 
ATOM      5  C   UNL d   1     -45.695  12.230  23.012  0.00  0.00     0.199 A 
ATOM      6  O   UNL d   1     -45.079  12.676  22.663  0.00  0.00    -0.286 OA
ATOM      7  C   UNL d   1     -45.539  11.490  23.303  0.00  0.00     0.042 A 
ATOM      8  C   UNL d   1     -46.170  11.045  23.656  0.00  0.00     0.003 A 
ATOM      9  C   UNL d   1     -46.898  11.354  23.696  0.00  0.00     0.000 A 
ATOM     10  C   UNL d   1     -47.055  12.104  23.401  0.00  0.00     0.006 A 
ENDBRANCH   2   4
ENDBRANCH   1   2
BRANCH   1  11
ATOM     11  C   UNL d   1     -47.565  14.363  22.430  0.00  0.00     0.003 C 
BRANCH  11  12
ATOM     12  C   UNL d   1     -48.335  14.607  22.458  0.00  0.00     0.000 A 
ATOM     13  C   UNL d   1     -48.908  14.278  21.992  0.00  0.00     0.002 A 
ATOM     14  C   UNL d   1     -49.685  14.548  22.044  0.00  0.00     0.024 A 
ATOM     15  C   UNL d   1     -49.899  15.151  22.563  0.00  0.00     0.094 A 
ATOM     16  C   UNL d   1     -49.312  15.487  23.039  0.00  0.00     0.024 A 
ATOM     17  C   UNL d   1     -48.528  15.221  22.994  0.00  0.00     0.002 A 
BRANCH  15  18
ATOM     18  O   UNL d   1     -50.686  15.418  22.609  0.00  0.00    -0.328 OA
ATOM     19  C   UNL d   1     -51.056  15.539  23.338  0.00  0.00     0.181 C 
ENDBRANCH  15  18
ENDBRANCH  11  12
ENDBRANCH   1  11
TORSDOF 5
ENDMDL
MODEL 4
REMARK VINA RESULT:      -6.3      8.455      9.718
REMARK  5 active torsions:
REMARK  status: ('A' for Active; 'I' for Inactive)
REMARK    1  A    between atoms: C_3  and  C_1 
REMARK    2  A    between atoms: C_2  and  C_3 
REMARK    3  A    between atoms: C_4  and  C_2 
REMARK    4  A    between atoms: C_7  and  C_4 
REMARK    5  A    between atoms: O_14  and  C_8 
ROOT
ATOM      1  C   UNL d   1     -39.946  14.447  18.988  0.00  0.00     0.042 C 
ENDROOT
BRANCH   1   2
ATOM      2  C   UNL d   1     -40.177  14.147  18.219  0.00  0.00     0.199 C 
ATOM      3  O   UNL d   1     -40.978  13.981  18.074  0.00  0.00    -0.286 OA
BRANCH   2   4
ATOM      4  C   UNL d   1     -39.589  14.030  17.641  0.00  0.00     0.078 A 
ATOM      5  C   UNL d   1     -39.535  14.548  17.006  0.00  0.00     0.199 A 
ATOM      6  O   UNL d   1     -40.069  15.189  16.946  0.00  0.00    -0.286 OA
ATOM      7  C   UNL d   1     -38.967  14.444  16.437  0.00  0.00     0.042 A 
ATOM      8  C   UNL d   1     -38.429  13.792  16.507  0.00  0.00     0.003 A 
ATOM      9  C   UNL d   1     -38.486  13.294  17.121  0.00  0.00     0.000 A 
ATOM     10  C   UNL d   1     -39.062  13.401  17.697  0.00  0.00     0.006 A 
ENDBRANCH   2   4
ENDBRANCH   1   2
BRANCH   1  11
ATOM     11  C   UNL d   1     -40.507  14.436  19.620  0.00  0.00     0.003 C 
BRANCH  11  12
ATOM     12  C   UNL d   1     -40.276  14.779  20.314  0.00  0.00     0.000 A 
ATOM     13  C   UNL d   1     -39.791  14.401  20.840  0.00  0.00     0.002 A 
ATOM     14  C   UNL d   1     -39.573  14.778  21.540  0.00  0.00     0.024 A 
ATOM     15  C   UNL d   1     -39.836  15.537  21.723  0.00  0.00     0.094 A 
ATOM     16  C   UNL d   1     -40.331  15.922  21.184  0.00  0.00     0.024 A 
ATOM     17  C   UNL d   1     -40.556  15.551  20.477  0.00  0.00     0.002 A 
BRANCH  15  18
ATOM     18  O   UNL d   1     -39.610  15.910  22.432  0.00  0.00    -0.328 OA
ATOM     19  C   UNL d   1     -38.821  15.922  22.678  0.00  0.00     0.181 C 
ENDBRANCH  15  18
ENDBRANCH  11  12
ENDBRANCH   1  11
TORSDOF 5
ENDMDL
MODEL 5
REMARK VINA RESULT:      -5.7      8.200      9.743
REMARK  5 active torsions:
REMARK  status: ('A' for Active; 'I' for Inactive)
REMARK    1  A    between atoms: C_3  and  C_1 
REMARK    2  A    between atoms: C_2  and  C_3 
REMARK    3  A    between atoms: C_4  and  C_2 
REMARK    4  A    between atoms: C_7  and  C_4 
REMARK    5  A    between atoms: O_14  and  C_8 
ROOT
ATOM      1  C   UNL d   1     -40.029  14.553  19.135  0.00  0.00     0.042 C 
ENDROOT
BRANCH   1   2
ATOM      2  C   UNL d   1     -40.491  14.473  19.852  0.00  0.00     0.199 C 
ATOM      3  O   UNL d   1     -41.191  14.025  19.834  0.00  0.00    -0.286 OA
BRANCH   2   4
ATOM      4  C   UNL d   1     -40.224  14.847  20.546  0.00  0.00     0.078 A 
ATOM      5  C   UNL d   1     -40.571  15.550  20.789  0.00  0.00     0.199 A 
ATOM      6  O   UNL d   1     -41.191  15.884  20.338  0.00  0.00    -0.286 OA
ATOM      7  C   UNL d   1     -40.319  15.922  21.464  0.00  0.00     0.042 A 
ATOM      8  C   UNL d   1     -39.690  15.575  21.915  0.00  0.00     0.003 A 
ATOM      9  C   UNL d   1     -39.358  14.896  21.676  0.00  0.00     0.000 A 
ATOM     10  C   UNL d   1     -39.614  14.520  20.993  0.00  0.00     0.006 A 
ENDBRANCH   2   4
ENDBRANCH   1   2
BRANCH   1  11
ATOM     11  C   UNL d   1     -40.169  14.021  18.493  0.00  0.00     0.003 C 
BRANCH  11  12
ATOM     12  C   UNL d   1     -39.709  14.120  17.836  0.00  0.00     0.000 A 
ATOM     13  C   UNL d   1     -39.815  14.739  17.326  0.00  0.00     0.002 A 
ATOM     14  C   UNL d   1     -39.329  14.812  16.664  0.00  0.00     0.024 A 
ATOM     15  C   UNL d   1     -38.731  14.267  16.503  0.00  0.00     0.094 A 
ATOM     16  C   UNL d   1     -38.625  13.635  17.026  0.00  0.00     0.024 A 
ATOM     17  C   UNL d   1     -39.109  13.554  17.694  0.00  0.00     0.002 A 
BRANCH  15  18
ATOM     18  O   UNL d   1     -38.245  14.349  15.833  0.00  0.00    -0.328 OA
ATOM     19  C   UNL d   1     -38.138  13.724  15.302  0.00  0.00     0.181 C 
ENDBRANCH  15  18
ENDBRANCH  11  12
ENDBRANCH   1  11
TORSDOF 5
ENDMDL
MODEL 6
REMARK VINA RESULT:      -5.6      8.218      9.596
REMARK  5 active torsions:
REMARK  status: ('A' for Active; 'I' for Inactive)
REMARK    1  A    between atoms: C_3  and  C_1 
REMARK    2  A    between atoms: C_2  and  C_3 
REMARK    3  A    between atoms: C_4  and  C_2 
REMARK    4  A    between atoms: C_7  and  C_4 
REMARK    5  A    between atoms: O_14  and  C_8 
ROOT
ATOM      1  C   UNL d   1     -40.079  14.602  19.883  0.00  0.00     0.042 C 
ENDROOT
BRANCH   1   2
ATOM      2  C   UNL d   1     -40.387  14.512  20.677  0.00  0.00     0.199 C 
ATOM      3  O   UNL d   1     -41.113  14.123  20.788  0.00  0.00    -0.286 OA
BRANCH   2   4
ATOM      4  C   UNL d   1     -39.947  14.818  21.315  0.00  0.00     0.078 A 
ATOM      5  C   UNL d   1     -39.539  14.307  21.811  0.00  0.00     0.199 A 
ATOM      6  O   UNL d   1     -39.568  13.482  21.671  0.00  0.00    -0.286 OA
ATOM      7  C   UNL d   1     -39.109  14.594  22.435  0.00  0.00     0.042 A 
ATOM      8  C   UNL d   1     -39.086  15.431  22.568  0.00  0.00     0.003 A 
ATOM      9  C   UNL d   1     -39.482  15.921  22.087  0.00  0.00     0.000 A 
ATOM     10  C   UNL d   1     -39.917  15.628  21.455  0.00  0.00     0.006 A 
ENDBRANCH   2   4
ENDBRANCH   1   2
BRANCH   1  11
ATOM     11  C   UNL d   1     -40.562  14.379  19.226  0.00  0.00     0.003 C 
BRANCH  11  12
ATOM     12  C   UNL d   1     -40.237  14.469  18.492  0.00  0.00     0.000 A 
ATOM     13  C   UNL d   1     -40.394  15.112  18.028  0.00  0.00     0.002 A 
ATOM     14  C   UNL d   1     -40.046  15.175  17.283  0.00  0.00     0.024 A 
ATOM     15  C   UNL d   1     -39.538  14.595  16.992  0.00  0.00     0.094 A 
ATOM     16  C   UNL d   1     -39.379  13.938  17.468  0.00  0.00     0.024 A 
ATOM     17  C   UNL d   1     -39.724  13.866  18.219  0.00  0.00     0.002 A 
BRANCH  15  18
ATOM     18  O   UNL d   1     -39.192  14.667  16.239  0.00  0.00    -0.328 OA
ATOM     19  C   UNL d   1     -38.432  14.378  16.087  0.00  0.00     0.181 C 
ENDBRANCH  15  18
ENDBRANCH  11  12
ENDBRANCH   1  11
TORSDOF 5
ENDMDL
