MODEL 1
REMARK VINA RESULT:      59.9      0.000      0.000
REMARK  3 active torsions:
REMARK  status: ('A' for Active; 'I' for Inactive)
REMARK    1  A    between atoms: C_6  and  C_1 
REMARK       I    between atoms: N_8  and  C_6 
REMARK    2  A    between atoms: C_16  and  N_8 
REMARK       I    between atoms: C_12  and  N_13 
REMARK    3  A    between atoms: N_13  and  C_17 
ROOT
ATOM      1  C   UNL d   1      13.652  16.017  -4.975  0.00  0.00     0.302 C 
ATOM      2  N   UNL d   1      13.339  16.336  -5.669  0.00  0.00    -0.206 NA
ATOM      3  O   UNL d   1      14.081  16.491  -4.462  0.00  0.00    -0.263 OA
ENDROOT
BRANCH   1   4
ATOM      4  C   UNL d   1      13.530  15.221  -4.799  0.00  0.00     0.158 A 
ATOM      5  O   UNL d   1      13.245  14.642  -5.321  0.00  0.00    -0.302 OA
ATOM      6  C   UNL d   1      13.214  13.921  -4.904  0.00  0.00     0.100 A 
ATOM      7  C   UNL d   1      12.978  13.157  -5.128  0.00  0.00     0.025 A 
ATOM      8  C   UNL d   1      13.477  14.053  -4.129  0.00  0.00     0.025 A 
ATOM      9  C   UNL d   1      13.007  12.540  -4.585  0.00  0.00     0.002 A 
ATOM     10  C   UNL d   1      12.772  11.779  -4.809  0.00  0.00     0.000 C 
ATOM     11  C   UNL d   1      13.272  12.679  -3.811  0.00  0.00     0.000 A 
ATOM     12  C   UNL d   1      13.506  13.434  -3.585  0.00  0.00     0.002 A 
ATOM     13  C   UNL d   1      13.299  12.060  -3.271  0.00  0.00     0.000 C 
ATOM     14  C   UNL d   1      13.675  14.845  -4.048  0.00  0.00     0.029 A 
ATOM     15  C   UNL d   1      13.962  15.219  -3.369  0.00  0.00     0.002 C 
ENDBRANCH   1   4
BRANCH   2  16
ATOM     16  C   UNL d   1      13.459  17.133  -5.848  0.00  0.00     0.085 A 
ATOM     17  C   UNL d   1      14.201  17.468  -5.719  0.00  0.00     0.021 A 
ATOM     18  C   UNL d   1      14.319  18.260  -5.898  0.00  0.00     0.021 A 
ATOM     19  C   UNL d   1      13.701  18.721  -6.205  0.00  0.00     0.085 A 
ATOM     20  C   UNL d   1      12.962  18.376  -6.331  0.00  0.00     0.021 A 
ATOM     21  C   UNL d   1      12.838  17.580  -6.153  0.00  0.00     0.021 A 
BRANCH  19  22
ATOM     22  N   UNL d   1      13.824  19.516  -6.383  0.00  0.00    -0.208 NA
ATOM     23  C   UNL d   1      14.443  19.927  -6.021  0.00  0.00     0.279 C 
ATOM     24  O   UNL d   1      14.942  19.545  -5.479  0.00  0.00    -0.265 OA
ATOM     25  C   UNL d   1      14.572  20.723  -6.194  0.00  0.00     0.068 C 
ENDBRANCH  19  22
ENDBRANCH   2  16
TORSDOF 3
ENDMDL
