MODEL 1
REMARK VINA RESULT:      -9.8      0.000      0.000
REMARK  2 active torsions:
REMARK  status: ('A' for Active; 'I' for Inactive)
REMARK    1  A    between atoms: N_2  and  S_1 
REMARK    2  A    between atoms: C_3  and  S_1 
ROOT
ATOM      1  S   UNL d   1     -48.586  13.547  22.821  0.00  0.00     0.273 S 
ATOM      2  O   UNL d   1     -48.501  13.511  21.986  0.00  0.00    -0.200 OA
ATOM      3  O   UNL d   1     -48.679  13.584  23.643  0.00  0.00    -0.200 OA
ENDROOT
BRANCH   1   4
ATOM      4  N   UNL d   1     -49.409  13.659  22.735  0.00  0.00    -0.231 N 
ATOM      5  C   UNL d   1     -49.746  14.390  22.940  0.00  0.00     0.075 A 
ATOM      6  C   UNL d   1     -50.553  14.334  22.798  0.00  0.00     0.018 A 
ATOM      7  C   UNL d   1     -49.423  15.071  23.229  0.00  0.00     0.018 A 
ATOM      8  C   UNL d   1     -51.032  14.966  22.947  0.00  0.00     0.002 A 
ATOM      9  C   UNL d   1     -50.716  13.609  22.517  0.00  0.00     0.021 A 
ATOM     10  C   UNL d   1     -50.713  15.671  23.243  0.00  0.00     0.000 A 
ATOM     11  C   UNL d   1     -49.900  15.705  23.379  0.00  0.00     0.002 A 
ATOM     12  C   UNL d   1     -50.006  13.182  22.476  0.00  0.00     0.092 A 
ENDBRANCH   1   4
BRANCH   1  13
ATOM     13  C   UNL d   1     -47.772  13.435  22.898  0.00  0.00     0.121 A 
ATOM     14  C   UNL d   1     -47.460  12.719  23.163  0.00  0.00     0.093 A 
ATOM     15  N   UNL d   1     -47.969  12.096  23.358  0.00  0.00    -0.243 NA
ATOM     16  C   UNL d   1     -46.638  12.630  23.233  0.00  0.00     0.018 A 
ATOM     17  C   UNL d   1     -47.658  11.384  23.622  0.00  0.00     0.099 A 
ATOM     18  C   UNL d   1     -46.836  11.287  23.694  0.00  0.00     0.021 A 
ATOM     19  C   UNL d   1     -46.328  11.917  23.497  0.00  0.00     0.003 A 
ATOM     20  C   UNL d   1     -46.130  13.253  23.038  0.00  0.00     0.002 A 
ATOM     21  C   UNL d   1     -46.442  13.969  22.773  0.00  0.00     0.001 A 
ATOM     22  C   UNL d   1     -47.260  14.056  22.704  0.00  0.00     0.014 A 
ENDBRANCH   1  13
TORSDOF 2
ENDMDL
MODEL 2
REMARK VINA RESULT:      -9.7      0.563      3.914
REMARK  2 active torsions:
REMARK  status: ('A' for Active; 'I' for Inactive)
REMARK    1  A    between atoms: N_2  and  S_1 
REMARK    2  A    between atoms: C_3  and  S_1 
ROOT
ATOM      1  S   UNL d   1     -48.600  13.479  22.656  0.00  0.00     0.273 S 
ATOM      2  O   UNL d   1     -48.377  13.596  21.856  0.00  0.00    -0.200 OA
ATOM      3  O   UNL d   1     -48.811  13.362  23.449  0.00  0.00    -0.200 OA
ENDROOT
BRANCH   1   4
ATOM      4  N   UNL d   1     -47.798  13.380  22.868  0.00  0.00    -0.231 N 
ATOM      5  C   UNL d   1     -47.535  12.641  23.139  0.00  0.00     0.075 A 
ATOM      6  C   UNL d   1     -46.733  12.713  23.301  0.00  0.00     0.018 A 
ATOM      7  C   UNL d   1     -47.918  11.939  23.252  0.00  0.00     0.018 A 
ATOM      8  C   UNL d   1     -46.320  12.077  23.577  0.00  0.00     0.002 A 
ATOM      9  C   UNL d   1     -46.503  13.456  23.141  0.00  0.00     0.021 A 
ATOM     10  C   UNL d   1     -46.702  11.351  23.697  0.00  0.00     0.000 A 
ATOM     11  C   UNL d   1     -47.507  11.301  23.527  0.00  0.00     0.002 A 
ATOM     12  C   UNL d   1     -47.163  13.879  22.870  0.00  0.00     0.092 A 
ENDBRANCH   1   4
BRANCH   1  13
ATOM     13  C   UNL d   1     -49.390  13.578  22.440  0.00  0.00     0.121 A 
ATOM     14  C   UNL d   1     -49.821  14.239  22.680  0.00  0.00     0.093 A 
ATOM     15  N   UNL d   1     -49.459  14.819  23.147  0.00  0.00    -0.243 NA
ATOM     16  C   UNL d   1     -50.614  14.318  22.450  0.00  0.00     0.018 A 
ATOM     17  C   UNL d   1     -49.888  15.477  23.386  0.00  0.00     0.099 A 
ATOM     18  C   UNL d   1     -50.683  15.562  23.159  0.00  0.00     0.021 A 
ATOM     19  C   UNL d   1     -51.043  14.976  22.689  0.00  0.00     0.003 A 
ATOM     20  C   UNL d   1     -50.976  13.739  21.983  0.00  0.00     0.002 A 
ATOM     21  C   UNL d   1     -50.545  13.078  21.743  0.00  0.00     0.001 A 
ATOM     22  C   UNL d   1     -49.756  13.001  21.972  0.00  0.00     0.014 A 
ENDBRANCH   1  13
TORSDOF 2
ENDMDL
MODEL 3
REMARK VINA RESULT:      -9.0      0.896      1.886
REMARK  2 active torsions:
REMARK  status: ('A' for Active; 'I' for Inactive)
REMARK    1  A    between atoms: N_2  and  S_1 
REMARK    2  A    between atoms: C_3  and  S_1 
ROOT
ATOM      1  S   UNL d   1     -48.294  13.345  22.878  0.00  0.00     0.273 S 
ATOM      2  O   UNL d   1     -48.446  13.482  23.692  0.00  0.00    -0.200 OA
ATOM      3  O   UNL d   1     -48.150  13.217  22.072  0.00  0.00    -0.200 OA
ENDROOT
BRANCH   1   4
ATOM      4  N   UNL d   1     -48.839  13.944  22.673  0.00  0.00    -0.231 N 
ATOM      5  C   UNL d   1     -49.569  13.735  22.338  0.00  0.00     0.075 A 
ATOM      6  C   UNL d   1     -49.981  14.432  22.198  0.00  0.00     0.018 A 
ATOM      7  C   UNL d   1     -49.893  13.019  22.151  0.00  0.00     0.018 A 
ATOM      8  C   UNL d   1     -50.718  14.405  21.871  0.00  0.00     0.002 A 
ATOM      9  C   UNL d   1     -49.536  15.046  22.432  0.00  0.00     0.021 A 
ATOM     10  C   UNL d   1     -51.061  13.676  21.674  0.00  0.00     0.000 A 
ATOM     11  C   UNL d   1     -50.630  12.989  21.823  0.00  0.00     0.002 A 
ATOM     12  C   UNL d   1     -48.821  14.749  22.731  0.00  0.00     0.092 A 
ENDBRANCH   1   4
BRANCH   1  13
ATOM     13  C   UNL d   1     -47.757  12.756  23.088  0.00  0.00     0.121 A 
ATOM     14  C   UNL d   1     -46.953  12.827  22.918  0.00  0.00     0.093 A 
ATOM     15  N   UNL d   1     -46.673  13.501  22.529  0.00  0.00    -0.243 NA
ATOM     16  C   UNL d   1     -46.431  12.221  23.139  0.00  0.00     0.018 A 
ATOM     17  C   UNL d   1     -45.873  13.572  22.360  0.00  0.00     0.099 A 
ATOM     18  C   UNL d   1     -45.345  12.969  22.578  0.00  0.00     0.021 A 
ATOM     19  C   UNL d   1     -45.631  12.291  22.970  0.00  0.00     0.003 A 
ATOM     20  C   UNL d   1     -46.710  11.546  23.528  0.00  0.00     0.002 A 
ATOM     21  C   UNL d   1     -47.515  11.475  23.698  0.00  0.00     0.001 A 
ATOM     22  C   UNL d   1     -48.032  12.079  23.478  0.00  0.00     0.014 A 
ENDBRANCH   1  13
TORSDOF 2
ENDMDL
MODEL 4
REMARK VINA RESULT:      -9.0      0.741      3.690
REMARK  2 active torsions:
REMARK  status: ('A' for Active; 'I' for Inactive)
REMARK    1  A    between atoms: N_2  and  S_1 
REMARK    2  A    between atoms: C_3  and  S_1 
ROOT
ATOM      1  S   UNL d   1     -48.442  13.445  22.890  0.00  0.00     0.273 S 
ATOM      2  O   UNL d   1     -48.670  13.426  23.697  0.00  0.00    -0.200 OA
ATOM      3  O   UNL d   1     -48.209  13.457  22.094  0.00  0.00    -0.200 OA
ENDROOT
BRANCH   1   4
ATOM      4  N   UNL d   1     -47.868  12.855  23.035  0.00  0.00    -0.231 N 
ATOM      5  C   UNL d   1     -47.067  13.019  22.891  0.00  0.00     0.075 A 
ATOM      6  C   UNL d   1     -46.642  12.343  23.083  0.00  0.00     0.018 A 
ATOM      7  C   UNL d   1     -46.692  13.679  22.618  0.00  0.00     0.018 A 
ATOM      8  C   UNL d   1     -45.840  12.335  23.000  0.00  0.00     0.002 A 
ATOM      9  C   UNL d   1     -47.147  11.783  23.335  0.00  0.00     0.021 A 
ATOM     10  C   UNL d   1     -45.442  13.006  22.720  0.00  0.00     0.000 A 
ATOM     11  C   UNL d   1     -45.889  13.674  22.534  0.00  0.00     0.002 A 
ATOM     12  C   UNL d   1     -47.915  12.096  23.307  0.00  0.00     0.092 A 
ENDBRANCH   1   4
BRANCH   1  13
ATOM     13  C   UNL d   1     -49.010  14.027  22.754  0.00  0.00     0.121 A 
ATOM     14  C   UNL d   1     -49.695  13.866  22.323  0.00  0.00     0.093 A 
ATOM     15  N   UNL d   1     -49.820  13.107  22.019  0.00  0.00    -0.243 NA
ATOM     16  C   UNL d   1     -50.253  14.468  22.199  0.00  0.00     0.018 A 
ATOM     17  C   UNL d   1     -50.501  12.947  21.590  0.00  0.00     0.099 A 
ATOM     18  C   UNL d   1     -51.064  13.544  21.462  0.00  0.00     0.021 A 
ATOM     19  C   UNL d   1     -50.934  14.307  21.770  0.00  0.00     0.003 A 
ATOM     20  C   UNL d   1     -50.127  15.227  22.503  0.00  0.00     0.002 A 
ATOM     21  C   UNL d   1     -49.442  15.388  22.934  0.00  0.00     0.001 A 
ATOM     22  C   UNL d   1     -48.889  14.788  23.056  0.00  0.00     0.014 A 
ENDBRANCH   1  13
TORSDOF 2
ENDMDL
MODEL 5
REMARK VINA RESULT:      -7.3      8.976     10.582
REMARK  2 active torsions:
REMARK  status: ('A' for Active; 'I' for Inactive)
REMARK    1  A    between atoms: N_2  and  S_1 
REMARK    2  A    between atoms: C_3  and  S_1 
ROOT
ATOM      1  S   UNL d   1     -39.562  14.406  18.213  0.00  0.00     0.273 S 
ATOM      2  O   UNL d   1     -40.243  13.990  17.952  0.00  0.00    -0.200 OA
ATOM      3  O   UNL d   1     -38.896  14.823  18.476  0.00  0.00    -0.200 OA
ENDROOT
BRANCH   1   4
ATOM      4  N   UNL d   1     -40.049  14.951  18.619  0.00  0.00    -0.231 N 
ATOM      5  C   UNL d   1     -40.161  14.868  19.437  0.00  0.00     0.075 A 
ATOM      6  C   UNL d   1     -40.658  15.477  19.677  0.00  0.00     0.018 A 
ATOM      7  C   UNL d   1     -39.880  14.330  19.969  0.00  0.00     0.018 A 
ATOM      8  C   UNL d   1     -40.870  15.541  20.453  0.00  0.00     0.002 A 
ATOM      9  C   UNL d   1     -40.849  15.919  19.045  0.00  0.00     0.021 A 
ATOM     10  C   UNL d   1     -40.588  14.995  21.009  0.00  0.00     0.000 A 
ATOM     11  C   UNL d   1     -40.090  14.392  20.746  0.00  0.00     0.002 A 
ATOM     12  C   UNL d   1     -40.471  15.597  18.381  0.00  0.00     0.092 A 
ENDBRANCH   1   4
BRANCH   1  13
ATOM     13  C   UNL d   1     -39.089  13.864  17.810  0.00  0.00     0.121 A 
ATOM     14  C   UNL d   1     -38.760  14.045  17.076  0.00  0.00     0.093 A 
ATOM     15  N   UNL d   1     -38.903  14.783  16.731  0.00  0.00    -0.243 NA
ATOM     16  C   UNL d   1     -38.287  13.484  16.688  0.00  0.00     0.018 A 
ATOM     17  C   UNL d   1     -38.576  14.963  16.000  0.00  0.00     0.099 A 
ATOM     18  C   UNL d   1     -38.101  14.406  15.607  0.00  0.00     0.021 A 
ATOM     19  C   UNL d   1     -37.959  13.663  15.957  0.00  0.00     0.003 A 
ATOM     20  C   UNL d   1     -38.143  12.745  17.033  0.00  0.00     0.002 A 
ATOM     21  C   UNL d   1     -38.473  12.565  17.767  0.00  0.00     0.001 A 
ATOM     22  C   UNL d   1     -38.943  13.124  18.151  0.00  0.00     0.014 A 
ENDBRANCH   1  13
TORSDOF 2
ENDMDL
MODEL 6
REMARK VINA RESULT:      -7.2      8.524     10.043
REMARK  2 active torsions:
REMARK  status: ('A' for Active; 'I' for Inactive)
REMARK    1  A    between atoms: N_2  and  S_1 
REMARK    2  A    between atoms: C_3  and  S_1 
ROOT
ATOM      1  S   UNL d   1     -40.061  14.471  19.055  0.00  0.00     0.273 S 
ATOM      2  O   UNL d   1     -40.475  13.750  18.937  0.00  0.00    -0.200 OA
ATOM      3  O   UNL d   1     -39.655  15.182  19.180  0.00  0.00    -0.200 OA
ENDROOT
BRANCH   1   4
ATOM      4  N   UNL d   1     -40.254  14.451  19.868  0.00  0.00    -0.231 N 
ATOM      5  C   UNL d   1     -39.671  14.245  20.421  0.00  0.00     0.075 A 
ATOM      6  C   UNL d   1     -40.020  14.274  21.164  0.00  0.00     0.018 A 
ATOM      7  C   UNL d   1     -38.894  14.042  20.337  0.00  0.00     0.018 A 
ATOM      8  C   UNL d   1     -39.584  14.098  21.820  0.00  0.00     0.002 A 
ATOM      9  C   UNL d   1     -40.781  14.487  21.084  0.00  0.00     0.021 A 
ATOM     10  C   UNL d   1     -38.785  13.888  21.747  0.00  0.00     0.000 A 
ATOM     11  C   UNL d   1     -38.455  13.866  20.992  0.00  0.00     0.002 A 
ATOM     12  C   UNL d   1     -40.934  14.599  20.276  0.00  0.00     0.092 A 
ENDBRANCH   1   4
BRANCH   1  13
ATOM     13  C   UNL d   1     -39.875  14.483  18.252  0.00  0.00     0.121 A 
ATOM     14  C   UNL d   1     -40.288  14.963  17.723  0.00  0.00     0.093 A 
ATOM     15  N   UNL d   1     -40.903  15.443  17.997  0.00  0.00    -0.243 NA
ATOM     16  C   UNL d   1     -40.084  14.959  16.918  0.00  0.00     0.018 A 
ATOM     17  C   UNL d   1     -41.314  15.921  17.471  0.00  0.00     0.099 A 
ATOM     18  C   UNL d   1     -41.115  15.922  16.664  0.00  0.00     0.021 A 
ATOM     19  C   UNL d   1     -40.495  15.436  16.392  0.00  0.00     0.003 A 
ATOM     20  C   UNL d   1     -39.469  14.478  16.643  0.00  0.00     0.002 A 
ATOM     21  C   UNL d   1     -39.056  13.999  17.172  0.00  0.00     0.001 A 
ATOM     22  C   UNL d   1     -39.261  14.004  17.972  0.00  0.00     0.014 A 
ENDBRANCH   1  13
TORSDOF 2
ENDMDL
MODEL 7
REMARK VINA RESULT:      -6.9      8.637     10.549
REMARK  2 active torsions:
REMARK  status: ('A' for Active; 'I' for Inactive)
REMARK    1  A    between atoms: N_2  and  S_1 
REMARK    2  A    between atoms: C_3  and  S_1 
ROOT
ATOM      1  S   UNL d   1     -39.495  14.577  18.711  0.00  0.00     0.273 S 
ATOM      2  O   UNL d   1     -38.905  15.169  18.784  0.00  0.00    -0.200 OA
ATOM      3  O   UNL d   1     -40.077  13.992  18.629  0.00  0.00    -0.200 OA
ENDROOT
BRANCH   1   4
ATOM      4  N   UNL d   1     -39.437  14.619  17.879  0.00  0.00    -0.231 N 
ATOM      5  C   UNL d   1     -38.943  14.088  17.475  0.00  0.00     0.075 A 
ATOM      6  C   UNL d   1     -39.000  14.262  16.675  0.00  0.00     0.018 A 
ATOM      7  C   UNL d   1     -38.467  13.490  17.735  0.00  0.00     0.018 A 
ATOM      8  C   UNL d   1     -38.578  13.833  16.139  0.00  0.00     0.002 A 
ATOM      9  C   UNL d   1     -39.503  14.870  16.578  0.00  0.00     0.021 A 
ATOM     10  C   UNL d   1     -38.085  13.217  16.392  0.00  0.00     0.000 A 
ATOM     11  C   UNL d   1     -38.042  13.059  17.201  0.00  0.00     0.002 A 
ATOM     12  C   UNL d   1     -39.780  15.098  17.326  0.00  0.00     0.092 A 
ENDBRANCH   1   4
BRANCH   1  13
ATOM     13  C   UNL d   1     -39.546  14.540  19.533  0.00  0.00     0.121 A 
ATOM     14  C   UNL d   1     -40.103  14.985  19.949  0.00  0.00     0.093 A 
ATOM     15  N   UNL d   1     -40.624  15.479  19.538  0.00  0.00    -0.243 NA
ATOM     16  C   UNL d   1     -40.137  14.933  20.776  0.00  0.00     0.018 A 
ATOM     17  C   UNL d   1     -41.179  15.922  19.951  0.00  0.00     0.099 A 
ATOM     18  C   UNL d   1     -41.218  15.874  20.780  0.00  0.00     0.021 A 
ATOM     19  C   UNL d   1     -40.691  15.375  21.190  0.00  0.00     0.003 A 
ATOM     20  C   UNL d   1     -39.616  14.438  21.188  0.00  0.00     0.002 A 
ATOM     21  C   UNL d   1     -39.059  13.994  20.772  0.00  0.00     0.001 A 
ATOM     22  C   UNL d   1     -39.027  14.047  19.949  0.00  0.00     0.014 A 
ENDBRANCH   1  13
TORSDOF 2
ENDMDL
