MODEL 1
REMARK VINA RESULT:      -7.3      0.000      0.000
REMARK  6 active torsions:
REMARK  status: ('A' for Active; 'I' for Inactive)
REMARK    1  A    between atoms: C_2  and  S_1 
REMARK    2  A    between atoms: N_3  and  S_1 
REMARK    3  A    between atoms: C_5  and  C_6 
REMARK    4  A    between atoms: O_13  and  C_5 
REMARK    5  A    between atoms: C_22  and  O_13 
REMARK    6  A    between atoms: C_21  and  C_22 
ROOT
ATOM      1  C   UNL d   1     -49.223  13.018  22.820  0.00  0.00     0.104 A 
ATOM      2  C   UNL d   1     -48.467  12.835  23.096  0.00  0.00     0.018 A 
ATOM      3  C   UNL d   1     -48.105  12.126  22.874  0.00  0.00     0.064 A 
ATOM      4  C   UNL d   1     -49.610  12.494  22.326  0.00  0.00     0.012 A 
ATOM      5  C   UNL d   1     -48.500  11.599  22.376  0.00  0.00     0.005 A 
ATOM      6  C   UNL d   1     -49.252  11.791  22.106  0.00  0.00     0.001 A 
ATOM      7  C   UNL d   1     -50.366  12.676  22.050  0.00  0.00     0.001 C 
ENDROOT
BRANCH   3   8
ATOM      8  C   UNL d   1     -47.350  11.943  23.150  0.00  0.00     0.300 C 
ATOM      9  O   UNL d   1     -47.249  11.332  23.698  0.00  0.00    -0.259 OA
BRANCH   8  10
ATOM     10  O   UNL d   1     -46.698  12.367  22.881  0.00  0.00    -0.271 OA
BRANCH  10  11
ATOM     11  C   UNL d   1     -45.939  12.098  23.043  0.00  0.00     0.126 C 
BRANCH  11  12
ATOM     12  C   UNL d   1     -45.293  12.399  22.626  0.00  0.00     0.027 A 
ATOM     13  C   UNL d   1     -44.608  11.963  22.568  0.00  0.00     0.028 A 
ATOM     14  C   UNL d   1     -43.959  12.259  22.152  0.00  0.00     0.119 A 
ATOM     15  O   UNL d   1     -43.201  11.952  22.000  0.00  0.00    -0.300 OA
ATOM     16  C   UNL d   1     -44.011  13.003  21.794  0.00  0.00     0.119 A 
ATOM     17  C   UNL d   1     -42.789  12.512  21.545  0.00  0.00     0.304 A 
ATOM     18  O   UNL d   1     -43.289  13.157  21.420  0.00  0.00    -0.300 OA
ATOM     19  C   UNL d   1     -44.709  13.449  21.851  0.00  0.00     0.026 A 
ATOM     20  C   UNL d   1     -45.350  13.142  22.270  0.00  0.00     0.004 A 
ENDBRANCH  11  12
ENDBRANCH  10  11
ENDBRANCH   8  10
ENDBRANCH   3   8
BRANCH   1  21
ATOM     21  S   UNL d   1     -49.583  13.724  23.041  0.00  0.00     0.271 S 
ATOM     22  O   UNL d   1     -49.932  13.341  23.695  0.00  0.00    -0.200 OA
ATOM     23  O   UNL d   1     -49.187  14.157  22.301  0.00  0.00    -0.200 OA
BRANCH  21  24
ATOM     24  N   UNL d   1     -49.917  14.452  23.217  0.00  0.00    -0.229 N 
ATOM     25  C   UNL d   1     -50.734  14.527  23.289  0.00  0.00     0.092 A 
ATOM     26  C   UNL d   1     -51.064  15.263  23.467  0.00  0.00     0.020 A 
ATOM     27  C   UNL d   1     -50.580  15.916  23.572  0.00  0.00     0.003 A 
ATOM     28  C   UNL d   1     -49.767  15.837  23.500  0.00  0.00     0.020 A 
ATOM     29  C   UNL d   1     -49.436  15.111  23.324  0.00  0.00     0.092 A 
ENDBRANCH  21  24
ENDBRANCH   1  21
TORSDOF 6
ENDMDL
MODEL 2
REMARK VINA RESULT:      -6.7      1.464      2.469
REMARK  6 active torsions:
REMARK  status: ('A' for Active; 'I' for Inactive)
REMARK    1  A    between atoms: C_2  and  S_1 
REMARK    2  A    between atoms: N_3  and  S_1 
REMARK    3  A    between atoms: C_5  and  C_6 
REMARK    4  A    between atoms: O_13  and  C_5 
REMARK    5  A    between atoms: C_22  and  O_13 
REMARK    6  A    between atoms: C_21  and  C_22 
ROOT
ATOM      1  C   UNL d   1     -48.456  14.236  22.687  0.00  0.00     0.104 A 
ATOM      2  C   UNL d   1     -47.696  13.949  22.833  0.00  0.00     0.018 A 
ATOM      3  C   UNL d   1     -47.037  14.421  22.669  0.00  0.00     0.064 A 
ATOM      4  C   UNL d   1     -48.552  14.987  22.379  0.00  0.00     0.012 A 
ATOM      5  C   UNL d   1     -47.138  15.179  22.359  0.00  0.00     0.005 A 
ATOM      6  C   UNL d   1     -47.900  15.455  22.217  0.00  0.00     0.001 A 
ATOM      7  C   UNL d   1     -49.312  15.274  22.233  0.00  0.00     0.001 C 
ENDROOT
BRANCH   3   8
ATOM      8  C   UNL d   1     -46.277  14.135  22.816  0.00  0.00     0.300 C 
ATOM      9  O   UNL d   1     -45.629  14.646  22.765  0.00  0.00    -0.259 OA
BRANCH   8  10
ATOM     10  O   UNL d   1     -46.164  13.344  23.011  0.00  0.00    -0.271 OA
BRANCH  10  11
ATOM     11  C   UNL d   1     -45.650  12.882  22.568  0.00  0.00     0.126 C 
BRANCH  11  12
ATOM     12  C   UNL d   1     -45.374  12.164  22.867  0.00  0.00     0.027 A 
ATOM     13  C   UNL d   1     -44.600  11.943  22.744  0.00  0.00     0.028 A 
ATOM     14  C   UNL d   1     -44.318  11.225  23.040  0.00  0.00     0.119 A 
ATOM     15  O   UNL d   1     -43.573  10.857  23.006  0.00  0.00    -0.300 OA
ATOM     16  C   UNL d   1     -44.829  10.732  23.463  0.00  0.00     0.119 A 
ATOM     17  C   UNL d   1     -43.632  10.134  23.411  0.00  0.00     0.304 A 
ATOM     18  O   UNL d   1     -44.404  10.059  23.691  0.00  0.00    -0.300 OA
ATOM     19  C   UNL d   1     -45.620  10.955  23.590  0.00  0.00     0.026 A 
ATOM     20  C   UNL d   1     -45.888  11.674  23.288  0.00  0.00     0.004 A 
ENDBRANCH  11  12
ENDBRANCH  10  11
ENDBRANCH   8  10
ENDBRANCH   3   8
BRANCH   1  21
ATOM     21  S   UNL d   1     -49.111  13.766  22.850  0.00  0.00     0.271 S 
ATOM     22  O   UNL d   1     -49.129  14.061  23.631  0.00  0.00    -0.200 OA
ATOM     23  O   UNL d   1     -49.092  13.432  21.967  0.00  0.00    -0.200 OA
BRANCH  21  24
ATOM     24  N   UNL d   1     -49.762  13.280  22.960  0.00  0.00    -0.229 N 
ATOM     25  C   UNL d   1     -50.341  13.478  23.512  0.00  0.00     0.092 A 
ATOM     26  C   UNL d   1     -50.993  12.983  23.618  0.00  0.00     0.020 A 
ATOM     27  C   UNL d   1     -51.064  12.297  23.175  0.00  0.00     0.003 A 
ATOM     28  C   UNL d   1     -50.486  12.103  22.627  0.00  0.00     0.020 A 
ATOM     29  C   UNL d   1     -49.840  12.589  22.519  0.00  0.00     0.092 A 
ENDBRANCH  21  24
ENDBRANCH   1  21
TORSDOF 6
ENDMDL
MODEL 3
REMARK VINA RESULT:      -5.9      1.143      1.753
REMARK  6 active torsions:
REMARK  status: ('A' for Active; 'I' for Inactive)
REMARK    1  A    between atoms: C_2  and  S_1 
REMARK    2  A    between atoms: N_3  and  S_1 
REMARK    3  A    between atoms: C_5  and  C_6 
REMARK    4  A    between atoms: O_13  and  C_5 
REMARK    5  A    between atoms: C_22  and  O_13 
REMARK    6  A    between atoms: C_21  and  C_22 
ROOT
ATOM      1  C   UNL d   1     -48.393  12.588  23.024  0.00  0.00     0.104 A 
ATOM      2  C   UNL d   1     -47.665  12.972  22.979  0.00  0.00     0.018 A 
ATOM      3  C   UNL d   1     -46.988  12.615  23.295  0.00  0.00     0.064 A 
ATOM      4  C   UNL d   1     -48.442  11.855  23.383  0.00  0.00     0.012 A 
ATOM      5  C   UNL d   1     -47.042  11.876  23.656  0.00  0.00     0.005 A 
ATOM      6  C   UNL d   1     -47.773  11.502  23.696  0.00  0.00     0.001 A 
ATOM      7  C   UNL d   1     -49.171  11.471  23.429  0.00  0.00     0.001 C 
ENDROOT
BRANCH   3   8
ATOM      8  C   UNL d   1     -46.260  12.999  23.249  0.00  0.00     0.300 C 
ATOM      9  O   UNL d   1     -46.126  13.681  23.698  0.00  0.00    -0.259 OA
BRANCH   8  10
ATOM     10  O   UNL d   1     -45.668  12.705  22.759  0.00  0.00    -0.271 OA
BRANCH  10  11
ATOM     11  C   UNL d   1     -45.232  13.219  22.290  0.00  0.00     0.126 C 
BRANCH  11  12
ATOM     12  C   UNL d   1     -44.477  13.007  22.031  0.00  0.00     0.027 A 
ATOM     13  C   UNL d   1     -44.001  13.559  21.668  0.00  0.00     0.028 A 
ATOM     14  C   UNL d   1     -43.245  13.353  21.408  0.00  0.00     0.119 A 
ATOM     15  O   UNL d   1     -42.645  13.784  21.027  0.00  0.00    -0.300 OA
ATOM     16  C   UNL d   1     -42.975  12.579  21.519  0.00  0.00     0.119 A 
ATOM     17  C   UNL d   1     -42.004  13.270  20.905  0.00  0.00     0.304 A 
ATOM     18  O   UNL d   1     -42.209  12.530  21.208  0.00  0.00    -0.300 OA
ATOM     19  C   UNL d   1     -43.458  12.014  21.889  0.00  0.00     0.026 A 
ATOM     20  C   UNL d   1     -44.211  12.233  22.144  0.00  0.00     0.004 A 
ENDBRANCH  11  12
ENDBRANCH  10  11
ENDBRANCH   8  10
ENDBRANCH   3   8
BRANCH   1  21
ATOM     21  S   UNL d   1     -49.066  12.943  22.710  0.00  0.00     0.271 S 
ATOM     22  O   UNL d   1     -49.318  13.147  23.479  0.00  0.00    -0.200 OA
ATOM     23  O   UNL d   1     -48.782  12.711  21.840  0.00  0.00    -0.200 OA
BRANCH  21  24
ATOM     24  N   UNL d   1     -49.718  13.281  22.346  0.00  0.00    -0.229 N 
ATOM     25  C   UNL d   1     -50.093  12.898  21.721  0.00  0.00     0.092 A 
ATOM     26  C   UNL d   1     -50.749  13.245  21.360  0.00  0.00     0.020 A 
ATOM     27  C   UNL d   1     -51.026  13.970  21.624  0.00  0.00     0.003 A 
ATOM     28  C   UNL d   1     -50.651  14.349  22.246  0.00  0.00     0.020 A 
ATOM     29  C   UNL d   1     -50.002  14.009  22.606  0.00  0.00     0.092 A 
ENDBRANCH  21  24
ENDBRANCH   1  21
TORSDOF 6
ENDMDL
MODEL 4
REMARK VINA RESULT:      -5.7      1.403      2.369
REMARK  6 active torsions:
REMARK  status: ('A' for Active; 'I' for Inactive)
REMARK    1  A    between atoms: C_2  and  S_1 
REMARK    2  A    between atoms: N_3  and  S_1 
REMARK    3  A    between atoms: C_5  and  C_6 
REMARK    4  A    between atoms: O_13  and  C_5 
REMARK    5  A    between atoms: C_22  and  O_13 
REMARK    6  A    between atoms: C_21  and  C_22 
ROOT
ATOM      1  C   UNL d   1     -47.924  13.833  22.533  0.00  0.00     0.104 A 
ATOM      2  C   UNL d   1     -47.269  13.332  22.575  0.00  0.00     0.018 A 
ATOM      3  C   UNL d   1     -46.515  13.646  22.703  0.00  0.00     0.064 A 
ATOM      4  C   UNL d   1     -47.822  14.640  22.619  0.00  0.00     0.012 A 
ATOM      5  C   UNL d   1     -46.416  14.461  22.790  0.00  0.00     0.005 A 
ATOM      6  C   UNL d   1     -47.075  14.951  22.746  0.00  0.00     0.001 A 
ATOM      7  C   UNL d   1     -48.476  15.140  22.577  0.00  0.00     0.001 C 
ENDROOT
BRANCH   3   8
ATOM      8  C   UNL d   1     -45.861  13.146  22.745  0.00  0.00     0.300 C 
ATOM      9  O   UNL d   1     -45.880  12.486  23.244  0.00  0.00    -0.259 OA
BRANCH   8  10
ATOM     10  O   UNL d   1     -45.192  13.302  22.292  0.00  0.00    -0.271 OA
BRANCH  10  11
ATOM     11  C   UNL d   1     -44.772  12.682  21.955  0.00  0.00     0.126 C 
BRANCH  11  12
ATOM     12  C   UNL d   1     -43.973  12.774  21.766  0.00  0.00     0.027 A 
ATOM     13  C   UNL d   1     -43.718  13.457  21.404  0.00  0.00     0.028 A 
ATOM     14  C   UNL d   1     -42.920  13.554  21.212  0.00  0.00     0.119 A 
ATOM     15  O   UNL d   1     -42.501  14.174  20.849  0.00  0.00    -0.300 OA
ATOM     16  C   UNL d   1     -42.383  12.952  21.392  0.00  0.00     0.119 A 
ATOM     17  C   UNL d   1     -41.703  13.947  20.807  0.00  0.00     0.304 A 
ATOM     18  O   UNL d   1     -41.633  13.197  21.142  0.00  0.00    -0.300 OA
ATOM     19  C   UNL d   1     -42.641  12.255  21.763  0.00  0.00     0.026 A 
ATOM     20  C   UNL d   1     -43.440  12.170  21.948  0.00  0.00     0.004 A 
ENDBRANCH  11  12
ENDBRANCH  10  11
ENDBRANCH   8  10
ENDBRANCH   3   8
BRANCH   1  21
ATOM     21  S   UNL d   1     -48.674  13.520  22.405  0.00  0.00     0.271 S 
ATOM     22  O   UNL d   1     -48.561  13.585  21.580  0.00  0.00    -0.200 OA
ATOM     23  O   UNL d   1     -48.802  13.447  23.338  0.00  0.00    -0.200 OA
BRANCH  21  24
ATOM     24  N   UNL d   1     -49.428  13.205  22.333  0.00  0.00    -0.229 N 
ATOM     25  C   UNL d   1     -49.811  13.207  21.604  0.00  0.00     0.092 A 
ATOM     26  C   UNL d   1     -50.570  12.888  21.538  0.00  0.00     0.020 A 
ATOM     27  C   UNL d   1     -50.940  12.570  22.197  0.00  0.00     0.003 A 
ATOM     28  C   UNL d   1     -50.555  12.570  22.921  0.00  0.00     0.020 A 
ATOM     29  C   UNL d   1     -49.805  12.884  22.990  0.00  0.00     0.092 A 
ENDBRANCH  21  24
ENDBRANCH   1  21
TORSDOF 6
ENDMDL
MODEL 5
REMARK VINA RESULT:      -5.7      1.583      2.893
REMARK  6 active torsions:
REMARK  status: ('A' for Active; 'I' for Inactive)
REMARK    1  A    between atoms: C_2  and  S_1 
REMARK    2  A    between atoms: N_3  and  S_1 
REMARK    3  A    between atoms: C_5  and  C_6 
REMARK    4  A    between atoms: O_13  and  C_5 
REMARK    5  A    between atoms: C_22  and  O_13 
REMARK    6  A    between atoms: C_21  and  C_22 
ROOT
ATOM      1  C   UNL d   1     -47.312  13.474  22.539  0.00  0.00     0.104 A 
ATOM      2  C   UNL d   1     -46.610  13.053  22.439  0.00  0.00     0.018 A 
ATOM      3  C   UNL d   1     -45.882  13.441  22.496  0.00  0.00     0.064 A 
ATOM      4  C   UNL d   1     -47.283  14.277  22.694  0.00  0.00     0.012 A 
ATOM      5  C   UNL d   1     -45.857  14.250  22.652  0.00  0.00     0.005 A 
ATOM      6  C   UNL d   1     -46.562  14.661  22.750  0.00  0.00     0.001 A 
ATOM      7  C   UNL d   1     -47.985  14.698  22.794  0.00  0.00     0.001 C 
ENDROOT
BRANCH   3   8
ATOM      8  C   UNL d   1     -45.181  13.019  22.396  0.00  0.00     0.300 C 
ATOM      9  O   UNL d   1     -45.126  12.241  22.671  0.00  0.00    -0.259 OA
BRANCH   8  10
ATOM     10  O   UNL d   1     -44.537  13.371  22.024  0.00  0.00    -0.271 OA
BRANCH  10  11
ATOM     11  C   UNL d   1     -44.037  12.919  21.555  0.00  0.00     0.126 C 
BRANCH  11  12
ATOM     12  C   UNL d   1     -43.262  13.167  21.412  0.00  0.00     0.027 A 
ATOM     13  C   UNL d   1     -43.112  13.947  21.235  0.00  0.00     0.028 A 
ATOM     14  C   UNL d   1     -42.339  14.201  21.091  0.00  0.00     0.119 A 
ATOM     15  O   UNL d   1     -42.018  14.944  20.900  0.00  0.00    -0.300 OA
ATOM     16  C   UNL d   1     -41.719  13.655  21.128  0.00  0.00     0.119 A 
ATOM     17  C   UNL d   1     -41.196  14.850  20.822  0.00  0.00     0.304 A 
ATOM     18  O   UNL d   1     -41.015  14.058  20.962  0.00  0.00    -0.300 OA
ATOM     19  C   UNL d   1     -41.870  12.858  21.309  0.00  0.00     0.026 A 
ATOM     20  C   UNL d   1     -42.646  12.618  21.451  0.00  0.00     0.004 A 
ENDBRANCH  11  12
ENDBRANCH  10  11
ENDBRANCH   8  10
ENDBRANCH   3   8
BRANCH   1  21
ATOM     21  S   UNL d   1     -48.037  13.088  22.483  0.00  0.00     0.271 S 
ATOM     22  O   UNL d   1     -48.064  13.257  21.666  0.00  0.00    -0.200 OA
ATOM     23  O   UNL d   1     -48.006  12.896  23.407  0.00  0.00    -0.200 OA
BRANCH  21  24
ATOM     24  N   UNL d   1     -48.755  12.692  22.481  0.00  0.00    -0.229 N 
ATOM     25  C   UNL d   1     -49.000  12.271  23.145  0.00  0.00     0.092 A 
ATOM     26  C   UNL d   1     -49.724  11.875  23.136  0.00  0.00     0.020 A 
ATOM     27  C   UNL d   1     -50.198  11.902  22.468  0.00  0.00     0.003 A 
ATOM     28  C   UNL d   1     -49.951  12.322  21.809  0.00  0.00     0.020 A 
ATOM     29  C   UNL d   1     -49.236  12.715  21.813  0.00  0.00     0.092 A 
ENDBRANCH  21  24
ENDBRANCH   1  21
TORSDOF 6
ENDMDL
MODEL 6
REMARK VINA RESULT:      -5.4      2.450      4.348
REMARK  6 active torsions:
REMARK  status: ('A' for Active; 'I' for Inactive)
REMARK    1  A    between atoms: C_2  and  S_1 
REMARK    2  A    between atoms: N_3  and  S_1 
REMARK    3  A    between atoms: C_5  and  C_6 
REMARK    4  A    between atoms: O_13  and  C_5 
REMARK    5  A    between atoms: C_22  and  O_13 
REMARK    6  A    between atoms: C_21  and  C_22 
ROOT
ATOM      1  C   UNL d   1     -45.055  12.859  22.264  0.00  0.00     0.104 A 
ATOM      2  C   UNL d   1     -44.492  13.117  21.720  0.00  0.00     0.018 A 
ATOM      3  C   UNL d   1     -43.777  12.709  21.638  0.00  0.00     0.064 A 
ATOM      4  C   UNL d   1     -44.903  12.197  22.720  0.00  0.00     0.012 A 
ATOM      5  C   UNL d   1     -43.628  12.042  22.100  0.00  0.00     0.005 A 
ATOM      6  C   UNL d   1     -44.196  11.793  22.639  0.00  0.00     0.001 A 
ATOM      7  C   UNL d   1     -45.467  11.939  23.264  0.00  0.00     0.001 C 
ENDROOT
BRANCH   3   8
ATOM      8  C   UNL d   1     -43.214  12.967  21.094  0.00  0.00     0.300 C 
ATOM      9  O   UNL d   1     -43.208  12.654  20.329  0.00  0.00    -0.259 OA
BRANCH   8  10
ATOM     10  O   UNL d   1     -42.659  13.534  21.313  0.00  0.00    -0.271 OA
BRANCH  10  11
ATOM     11  C   UNL d   1     -42.089  13.778  20.774  0.00  0.00     0.126 C 
BRANCH  11  12
ATOM     12  C   UNL d   1     -41.531  14.347  20.988  0.00  0.00     0.027 A 
ATOM     13  C   UNL d   1     -40.801  14.117  21.266  0.00  0.00     0.028 A 
ATOM     14  C   UNL d   1     -40.239  14.682  21.481  0.00  0.00     0.119 A 
ATOM     15  O   UNL d   1     -39.464  14.620  21.777  0.00  0.00    -0.300 OA
ATOM     16  C   UNL d   1     -40.423  15.486  21.412  0.00  0.00     0.119 A 
ATOM     17  C   UNL d   1     -39.174  15.391  21.888  0.00  0.00     0.304 A 
ATOM     18  O   UNL d   1     -39.766  15.921  21.663  0.00  0.00    -0.300 OA
ATOM     19  C   UNL d   1     -41.167  15.723  21.128  0.00  0.00     0.026 A 
ATOM     20  C   UNL d   1     -41.719  15.148  20.917  0.00  0.00     0.004 A 
ENDBRANCH  11  12
ENDBRANCH  10  11
ENDBRANCH   8  10
ENDBRANCH   3   8
BRANCH   1  21
ATOM     21  S   UNL d   1     -45.766  13.266  22.345  0.00  0.00     0.271 S 
ATOM     22  O   UNL d   1     -45.445  13.699  22.983  0.00  0.00    -0.200 OA
ATOM     23  O   UNL d   1     -46.129  12.775  21.625  0.00  0.00    -0.200 OA
BRANCH  21  24
ATOM     24  N   UNL d   1     -46.494  13.641  22.384  0.00  0.00    -0.229 N 
ATOM     25  C   UNL d   1     -47.171  13.267  22.102  0.00  0.00     0.092 A 
ATOM     26  C   UNL d   1     -47.900  13.652  22.145  0.00  0.00     0.020 A 
ATOM     27  C   UNL d   1     -47.950  14.404  22.467  0.00  0.00     0.003 A 
ATOM     28  C   UNL d   1     -47.273  14.773  22.747  0.00  0.00     0.020 A 
ATOM     29  C   UNL d   1     -46.551  14.397  22.707  0.00  0.00     0.092 A 
ENDBRANCH  21  24
ENDBRANCH   1  21
TORSDOF 6
ENDMDL
MODEL 7
REMARK VINA RESULT:      -4.9      3.949      7.883
REMARK  6 active torsions:
REMARK  status: ('A' for Active; 'I' for Inactive)
REMARK    1  A    between atoms: C_2  and  S_1 
REMARK    2  A    between atoms: N_3  and  S_1 
REMARK    3  A    between atoms: C_5  and  C_6 
REMARK    4  A    between atoms: O_13  and  C_5 
REMARK    5  A    between atoms: C_22  and  O_13 
REMARK    6  A    between atoms: C_21  and  C_22 
ROOT
ATOM      1  C   UNL d   1     -40.996  14.476  19.950  0.00  0.00     0.104 A 
ATOM      2  C   UNL d   1     -41.465  13.852  20.215  0.00  0.00     0.018 A 
ATOM      3  C   UNL d   1     -41.850  13.905  20.945  0.00  0.00     0.064 A 
ATOM      4  C   UNL d   1     -40.913  15.146  20.413  0.00  0.00     0.012 A 
ATOM      5  C   UNL d   1     -41.765  14.582  21.409  0.00  0.00     0.005 A 
ATOM      6  C   UNL d   1     -41.294  15.198  21.136  0.00  0.00     0.001 A 
ATOM      7  C   UNL d   1     -40.444  15.770  20.147  0.00  0.00     0.001 C 
ENDROOT
BRANCH   3   8
ATOM      8  C   UNL d   1     -42.320  13.281  21.211  0.00  0.00     0.300 C 
ATOM      9  O   UNL d   1     -41.999  12.521  21.266  0.00  0.00    -0.259 OA
BRANCH   8  10
ATOM     10  O   UNL d   1     -43.104  13.414  21.420  0.00  0.00    -0.271 OA
BRANCH  10  11
ATOM     11  C   UNL d   1     -43.628  12.784  21.468  0.00  0.00     0.126 C 
BRANCH  11  12
ATOM     12  C   UNL d   1     -44.353  12.873  21.853  0.00  0.00     0.027 A 
ATOM     13  C   UNL d   1     -44.589  12.326  22.408  0.00  0.00     0.028 A 
ATOM     14  C   UNL d   1     -45.313  12.411  22.796  0.00  0.00     0.119 A 
ATOM     15  O   UNL d   1     -45.697  11.954  23.375  0.00  0.00    -0.300 OA
ATOM     16  C   UNL d   1     -45.797  13.057  22.617  0.00  0.00     0.119 A 
ATOM     17  C   UNL d   1     -46.420  12.325  23.550  0.00  0.00     0.304 A 
ATOM     18  O   UNL d   1     -46.479  13.002  23.083  0.00  0.00    -0.300 OA
ATOM     19  C   UNL d   1     -45.558  13.617  22.051  0.00  0.00     0.026 A 
ATOM     20  C   UNL d   1     -44.832  13.521  21.671  0.00  0.00     0.004 A 
ENDBRANCH  11  12
ENDBRANCH  10  11
ENDBRANCH   8  10
ENDBRANCH   3   8
BRANCH   1  21
ATOM     21  S   UNL d   1     -40.613  14.424  19.223  0.00  0.00     0.271 S 
ATOM     22  O   UNL d   1     -41.258  14.806  18.856  0.00  0.00    -0.200 OA
ATOM     23  O   UNL d   1     -39.883  13.992  19.639  0.00  0.00    -0.200 OA
BRANCH  21  24
ATOM     24  N   UNL d   1     -40.190  14.347  18.525  0.00  0.00    -0.229 N 
ATOM     25  C   UNL d   1     -39.467  13.952  18.518  0.00  0.00     0.092 A 
ATOM     26  C   UNL d   1     -39.046  13.878  17.812  0.00  0.00     0.020 A 
ATOM     27  C   UNL d   1     -39.348  14.197  17.119  0.00  0.00     0.003 A 
ATOM     28  C   UNL d   1     -40.068  14.589  17.130  0.00  0.00     0.020 A 
ATOM     29  C   UNL d   1     -40.487  14.664  17.826  0.00  0.00     0.092 A 
ENDBRANCH  21  24
ENDBRANCH   1  21
TORSDOF 6
ENDMDL
