MODEL 1
REMARK VINA RESULT:      -3.0      0.000      0.000
REMARK  5 active torsions:
REMARK  status: ('A' for Active; 'I' for Inactive)
REMARK    1  A    between atoms: C_7  and  C_4 
REMARK    2  A    between atoms: O_9  and  C_7 
REMARK    3  A    between atoms: O_15  and  C_8 
REMARK    4  A    between atoms: C_17  and  O_9 
REMARK    5  A    between atoms: O_16  and  C_11 
ROOT
ATOM      1  C   UNL d   1     -41.632-121.805 -52.071  0.00  0.00     0.228 A 
ATOM      2  C   UNL d   1     -41.461-122.441 -52.571  0.00  0.00     0.070 A 
ATOM      3  S   UNL d   1     -41.642-121.919 -51.249  0.00  0.00    -0.040 SA
ATOM      4  C   UNL d   1     -41.480-122.672 -50.934  0.00  0.00     0.096 A 
ATOM      5  C   UNL d   1     -41.300-123.187 -52.259  0.00  0.00     0.006 A 
ATOM      6  C   UNL d   1     -41.309-123.305 -51.444  0.00  0.00     0.012 A 
ATOM      7  C   UNL d   1     -41.454-122.317 -53.389  0.00  0.00     0.120 A 
ATOM      8  O   UNL d   1     -41.793-121.058 -52.384  0.00  0.00    -0.279 OA
ATOM      9  C   UNL d   1     -41.284-122.946 -53.892  0.00  0.00     0.116 A 
ATOM     10  C   UNL d   1     -41.130-123.817 -52.762  0.00  0.00     0.002 A 
ATOM     11  C   UNL d   1     -41.123-123.692 -53.580  0.00  0.00     0.026 A 
ENDROOT
BRANCH   4  12
ATOM     12  C   UNL d   1     -41.491-122.781 -50.118  0.00  0.00     0.306 C 
ATOM     13  O   UNL d   1     -41.123-122.228 -49.630  0.00  0.00    -0.258 OA
BRANCH  12  14
ATOM     14  O   UNL d   1     -41.865-123.437 -49.789  0.00  0.00    -0.273 OA
BRANCH  14  15
ATOM     15  C   UNL d   1     -41.991-123.477 -48.975  0.00  0.00     0.103 C 
ATOM     16  C   UNL d   1     -42.758-123.472 -48.676  0.00  0.00     0.027 C 
ATOM     17  C   UNL d   1     -41.346-123.522 -48.460  0.00  0.00     0.027 C 
ENDBRANCH  14  15
ENDBRANCH  12  14
ENDBRANCH   4  12
BRANCH   7  18
ATOM     18  O   UNL d   1     -41.615-121.571 -53.701  0.00  0.00    -0.326 OA
ATOM     19  C   UNL d   1     -42.057-121.502 -54.401  0.00  0.00     0.181 C 
ENDBRANCH   7  18
BRANCH   9  20
ATOM     20  O   UNL d   1     -41.274-122.831 -54.711  0.00  0.00    -0.326 OA
ATOM     21  C   UNL d   1     -41.607-123.394 -55.210  0.00  0.00     0.181 C 
ENDBRANCH   9  20
TORSDOF 5
ENDMDL
MODEL 2
REMARK VINA RESULT:      -2.6      0.899      1.128
REMARK  5 active torsions:
REMARK  status: ('A' for Active; 'I' for Inactive)
REMARK    1  A    between atoms: C_7  and  C_4 
REMARK    2  A    between atoms: O_9  and  C_7 
REMARK    3  A    between atoms: O_15  and  C_8 
REMARK    4  A    between atoms: C_17  and  O_9 
REMARK    5  A    between atoms: O_16  and  C_11 
ROOT
ATOM      1  C   UNL d   1     -41.843-121.971 -51.003  0.00  0.00     0.228 A 
ATOM      2  C   UNL d   1     -41.605-122.519 -51.575  0.00  0.00     0.070 A 
ATOM      3  S   UNL d   1     -41.834-122.185 -50.201  0.00  0.00    -0.040 SA
ATOM      4  C   UNL d   1     -41.585-122.948 -49.979  0.00  0.00     0.096 A 
ATOM      5  C   UNL d   1     -41.359-123.275 -51.355  0.00  0.00     0.006 A 
ATOM      6  C   UNL d   1     -41.348-123.491 -50.561  0.00  0.00     0.012 A 
ATOM      7  C   UNL d   1     -41.618-122.296 -52.372  0.00  0.00     0.120 A 
ATOM      8  O   UNL d   1     -42.089-121.215 -51.223  0.00  0.00    -0.279 OA
ATOM      9  C   UNL d   1     -41.382-122.836 -52.946  0.00  0.00     0.116 A 
ATOM     10  C   UNL d   1     -41.123-123.816 -51.930  0.00  0.00     0.002 A 
ATOM     11  C   UNL d   1     -41.136-123.592 -52.727  0.00  0.00     0.026 A 
ENDROOT
BRANCH   4  12
ATOM     12  C   UNL d   1     -41.578-123.156 -49.182  0.00  0.00     0.306 C 
ATOM     13  O   UNL d   1     -41.149-123.817 -48.939  0.00  0.00    -0.258 OA
BRANCH  12  14
ATOM     14  O   UNL d   1     -41.993-122.708 -48.630  0.00  0.00    -0.273 OA
BRANCH  14  15
ATOM     15  C   UNL d   1     -42.082-122.982 -47.857  0.00  0.00     0.103 C 
ATOM     16  C   UNL d   1     -42.635-123.569 -47.688  0.00  0.00     0.027 C 
ATOM     17  C   UNL d   1     -41.615-122.666 -47.252  0.00  0.00     0.027 C 
ENDBRANCH  14  15
ENDBRANCH  12  14
ENDBRANCH   4  12
BRANCH   7  18
ATOM     18  O   UNL d   1     -41.864-121.540 -52.592  0.00  0.00    -0.326 OA
ATOM     19  C   UNL d   1     -42.516-121.449 -53.099  0.00  0.00     0.181 C 
ENDBRANCH   7  18
BRANCH   9  20
ATOM     20  O   UNL d   1     -41.392-122.622 -53.745  0.00  0.00    -0.326 OA
ATOM     21  C   UNL d   1     -41.294-123.195 -54.327  0.00  0.00     0.181 C 
ENDBRANCH   9  20
TORSDOF 5
ENDMDL
MODEL 3
REMARK VINA RESULT:      -2.0      0.987      1.753
REMARK  5 active torsions:
REMARK  status: ('A' for Active; 'I' for Inactive)
REMARK    1  A    between atoms: C_7  and  C_4 
REMARK    2  A    between atoms: O_9  and  C_7 
REMARK    3  A    between atoms: O_15  and  C_8 
REMARK    4  A    between atoms: C_17  and  O_9 
REMARK    5  A    between atoms: O_16  and  C_11 
ROOT
ATOM      1  C   UNL d   1     -41.400-123.120 -53.017  0.00  0.00     0.228 A 
ATOM      2  C   UNL d   1     -41.695-122.480 -53.449  0.00  0.00     0.070 A 
ATOM      3  S   UNL d   1     -41.352-123.073 -52.190  0.00  0.00    -0.040 SA
ATOM      4  C   UNL d   1     -41.602-122.380 -51.801  0.00  0.00     0.096 A 
ATOM      5  C   UNL d   1     -41.942-121.794 -53.063  0.00  0.00     0.006 A 
ATOM      6  C   UNL d   1     -41.897-121.741 -52.243  0.00  0.00     0.012 A 
ATOM      7  C   UNL d   1     -41.738-122.538 -54.273  0.00  0.00     0.120 A 
ATOM      8  O   UNL d   1     -41.152-123.807 -53.402  0.00  0.00    -0.279 OA
ATOM      9  C   UNL d   1     -42.031-121.904 -54.708  0.00  0.00     0.116 A 
ATOM     10  C   UNL d   1     -42.236-121.159 -53.499  0.00  0.00     0.002 A 
ATOM     11  C   UNL d   1     -42.278-121.218 -54.323  0.00  0.00     0.026 A 
ENDROOT
BRANCH   4  12
ATOM     12  C   UNL d   1     -41.554-122.336 -50.980  0.00  0.00     0.306 C 
ATOM     13  O   UNL d   1     -41.123-121.726 -50.631  0.00  0.00    -0.258 OA
BRANCH  12  14
ATOM     14  O   UNL d   1     -41.931-122.896 -50.510  0.00  0.00    -0.273 OA
BRANCH  14  15
ATOM     15  C   UNL d   1     -41.962-122.797 -49.691  0.00  0.00     0.103 C 
ATOM     16  C   UNL d   1     -42.627-122.458 -49.342  0.00  0.00     0.027 C 
ATOM     17  C   UNL d   1     -41.324-123.037 -49.223  0.00  0.00     0.027 C 
ENDBRANCH  14  15
ENDBRANCH  12  14
ENDBRANCH   4  12
BRANCH   7  18
ATOM     18  O   UNL d   1     -41.490-123.224 -54.658  0.00  0.00    -0.326 OA
ATOM     19  C   UNL d   1     -42.026-123.649 -55.129  0.00  0.00     0.181 C 
ENDBRANCH   7  18
BRANCH   9  20
ATOM     20  O   UNL d   1     -42.077-121.953 -55.532  0.00  0.00    -0.326 OA
ATOM     21  C   UNL d   1     -41.946-121.285 -55.993  0.00  0.00     0.181 C 
ENDBRANCH   9  20
TORSDOF 5
ENDMDL
