MODEL 1
REMARK VINA RESULT:      56.4      0.000      0.000
REMARK  5 active torsions:
REMARK  status: ('A' for Active; 'I' for Inactive)
REMARK    1  A    between atoms: C_12  and  N_1 
REMARK    2  A    between atoms: S_9  and  C_2 
REMARK       I    between atoms: N_7  and  C_10 
REMARK    3  A    between atoms: C_19  and  N_8 
REMARK    4  A    between atoms: C_14  and  S_9 
REMARK    5  A    between atoms: C_10  and  C_14 
ROOT
ATOM      1  N   UNL d   1      44.298 -15.536  37.232  0.00  0.00    -0.254 N 
ATOM      2  C   UNL d   1      44.769 -15.989  37.735  0.00  0.00     0.182 A 
ATOM      3  C   UNL d   1      44.623 -14.890  36.835  0.00  0.00     0.274 A 
ATOM      4  C   UNL d   1      45.414 -14.699  36.941  0.00  0.00     0.104 A 
ATOM      5  N   UNL d   1      45.565 -15.796  37.841  0.00  0.00    -0.222 NA
ATOM      6  C   UNL d   1      45.885 -15.152  37.444  0.00  0.00     0.095 A 
ATOM      7  S   UNL d   1      45.884 -14.100  36.627  0.00  0.00    -0.080 SA
ATOM      8  O   UNL d   1      44.151 -14.437  36.331  0.00  0.00    -0.266 OA
ATOM      9  C   UNL d   1      46.646 -14.833  37.441  0.00  0.00     0.027 A 
ATOM     10  C   UNL d   1      46.645 -14.187  36.940  0.00  0.00     0.037 A 
ENDROOT
BRANCH   2  11
ATOM     11  S   UNL d   1      44.447 -16.644  38.140  0.00  0.00    -0.044 SA
BRANCH  11  12
ATOM     12  C   UNL d   1      44.788 -16.894  38.849  0.00  0.00     0.099 C 
BRANCH  12  13
ATOM     13  C   UNL d   1      45.136 -17.641  38.898  0.00  0.00     0.272 C 
ATOM     14  N   UNL d   1      45.388 -17.932  39.628  0.00  0.00    -0.269 N 
ATOM     15  C   UNL d   1      45.292 -17.475  40.309  0.00  0.00     0.102 A 
ATOM     16  C   UNL d   1      45.735 -18.679  39.677  0.00  0.00     0.102 A 
ATOM     17  C   UNL d   1      45.545 -17.771  41.031  0.00  0.00     0.100 A 
ATOM     18  N   UNL d   1      45.890 -18.510  41.084  0.00  0.00    -0.301 N 
ATOM     19  C   UNL d   1      45.986 -18.967  40.404  0.00  0.00     0.100 A 
ATOM     20  O   UNL d   1      45.231 -18.098  38.217  0.00  0.00    -0.266 OA
BRANCH  18  21
ATOM     21  C   UNL d   1      46.142 -18.801  41.814  0.00  0.00     0.064 A 
ATOM     22  C   UNL d   1      46.247 -19.613  41.922  0.00  0.00     0.018 A 
ATOM     23  C   UNL d   1      46.498 -19.903  42.652  0.00  0.00     0.002 A 
ATOM     24  C   UNL d   1      46.646 -19.381  43.274  0.00  0.00     0.000 A 
ATOM     25  C   UNL d   1      46.542 -18.570  43.167  0.00  0.00     0.002 A 
ATOM     26  C   UNL d   1      46.290 -18.279  42.437  0.00  0.00     0.018 A 
ENDBRANCH  18  21
ENDBRANCH  12  13
ENDBRANCH  11  12
ENDBRANCH   2  11
BRANCH   1  27
ATOM     27  C   UNL d   1      43.510 -15.725  37.125  0.00  0.00     0.069 A 
ATOM     28  C   UNL d   1      43.263 -16.105  36.435  0.00  0.00     0.018 A 
ATOM     29  C   UNL d   1      42.466 -16.294  36.331  0.00  0.00     0.002 A 
ATOM     30  C   UNL d   1      41.916 -16.102  36.916  0.00  0.00     0.000 A 
ATOM     31  C   UNL d   1      42.163 -15.723  37.606  0.00  0.00     0.002 A 
ATOM     32  C   UNL d   1      42.960 -15.534  37.710  0.00  0.00     0.018 A 
ENDBRANCH   1  27
TORSDOF 5
ENDMDL
MODEL 2
REMARK VINA RESULT:      57.7      0.721      2.314
REMARK  5 active torsions:
REMARK  status: ('A' for Active; 'I' for Inactive)
REMARK    1  A    between atoms: C_12  and  N_1 
REMARK    2  A    between atoms: S_9  and  C_2 
REMARK       I    between atoms: N_7  and  C_10 
REMARK    3  A    between atoms: C_19  and  N_8 
REMARK    4  A    between atoms: C_14  and  S_9 
REMARK    5  A    between atoms: C_10  and  C_14 
ROOT
ATOM      1  N   UNL d   1      44.469 -15.449  37.165  0.00  0.00    -0.254 N 
ATOM      2  C   UNL d   1      44.369 -16.158  37.576  0.00  0.00     0.182 A 
ATOM      3  C   UNL d   1      43.840 -15.126  36.741  0.00  0.00     0.274 A 
ATOM      4  C   UNL d   1      43.114 -15.509  36.729  0.00  0.00     0.104 A 
ATOM      5  N   UNL d   1      43.638 -16.543  37.562  0.00  0.00    -0.222 NA
ATOM      6  C   UNL d   1      43.013 -16.218  37.139  0.00  0.00     0.095 A 
ATOM      7  S   UNL d   1      42.400 -15.326  36.363  0.00  0.00    -0.080 SA
ATOM      8  O   UNL d   1      43.941 -14.417  36.331  0.00  0.00    -0.266 OA
ATOM      9  C   UNL d   1      42.236 -16.472  37.027  0.00  0.00     0.027 A 
ATOM     10  C   UNL d   1      41.860 -15.925  36.551  0.00  0.00     0.037 A 
ENDROOT
BRANCH   2  11
ATOM     11  S   UNL d   1      45.002 -16.490  38.006  0.00  0.00    -0.044 SA
BRANCH  11  12
ATOM     12  C   UNL d   1      44.844 -16.978  38.653  0.00  0.00     0.099 C 
BRANCH  12  13
ATOM     13  C   UNL d   1      45.264 -17.682  38.752  0.00  0.00     0.272 C 
ATOM     14  N   UNL d   1      45.493 -17.923  39.507  0.00  0.00    -0.269 N 
ATOM     15  C   UNL d   1      45.302 -17.461  40.163  0.00  0.00     0.102 A 
ATOM     16  C   UNL d   1      45.913 -18.627  39.605  0.00  0.00     0.102 A 
ATOM     17  C   UNL d   1      45.534 -17.708  40.911  0.00  0.00     0.100 A 
ATOM     18  N   UNL d   1      45.950 -18.405  41.012  0.00  0.00    -0.301 N 
ATOM     19  C   UNL d   1      46.141 -18.867  40.356  0.00  0.00     0.100 A 
ATOM     20  O   UNL d   1      45.454 -18.144  38.095  0.00  0.00    -0.266 OA
BRANCH  18  21
ATOM     21  C   UNL d   1      46.179 -18.646  41.767  0.00  0.00     0.064 A 
ATOM     22  C   UNL d   1      46.374 -18.084  42.339  0.00  0.00     0.018 A 
ATOM     23  C   UNL d   1      46.603 -18.325  43.094  0.00  0.00     0.002 A 
ATOM     24  C   UNL d   1      46.638 -19.129  43.276  0.00  0.00     0.000 A 
ATOM     25  C   UNL d   1      46.443 -19.692  42.705  0.00  0.00     0.002 A 
ATOM     26  C   UNL d   1      46.214 -19.450  41.950  0.00  0.00     0.018 A 
ENDBRANCH  18  21
ENDBRANCH  12  13
ENDBRANCH  11  12
ENDBRANCH   2  11
BRANCH   1  27
ATOM     27  C   UNL d   1      45.191 -15.066  37.176  0.00  0.00     0.069 A 
ATOM     28  C   UNL d   1      45.827 -15.364  36.743  0.00  0.00     0.018 A 
ATOM     29  C   UNL d   1      46.555 -14.974  36.757  0.00  0.00     0.002 A 
ATOM     30  C   UNL d   1      46.646 -14.286  37.204  0.00  0.00     0.000 A 
ATOM     31  C   UNL d   1      46.010 -13.988  37.638  0.00  0.00     0.002 A 
ATOM     32  C   UNL d   1      45.283 -14.378  37.623  0.00  0.00     0.018 A 
ENDBRANCH   1  27
TORSDOF 5
ENDMDL
