MODEL 1
REMARK VINA RESULT:      25.6      0.000      0.000
REMARK  7 active torsions:
REMARK  status: ('A' for Active; 'I' for Inactive)
REMARK    1  A    between atoms: N_2  and  C_1 
REMARK    2  A    between atoms: N_4  and  C_3 
REMARK       I    between atoms: C_6  and  N_4 
REMARK    3  A    between atoms: C_7  and  C_6 
REMARK    4  A    between atoms: C_10  and  C_7 
REMARK    5  A    between atoms: C_14  and  C_10 
REMARK    6  A    between atoms: O_16  and  C_13 
REMARK    7  A    between atoms: C_17  and  O_16 
ROOT
ATOM      1  C   UNL d   1      13.255  13.346  -3.890  0.00  0.00     0.146 A 
ATOM      2  C   UNL d   1      13.298  12.752  -3.365  0.00  0.00     0.107 A 
ATOM      3  C   UNL d   1      13.168  13.188  -4.693  0.00  0.00     0.050 A 
ATOM      4  C   UNL d   1      13.253  11.961  -3.633  0.00  0.00     0.023 A 
ATOM      5  C   UNL d   1      13.122  12.426  -4.977  0.00  0.00     0.102 A 
ATOM      6  C   UNL d   1      13.166  11.801  -4.427  0.00  0.00     0.026 A 
ENDROOT
BRANCH   2   7
ATOM      7  N   UNL d   1      13.387  12.879  -2.532  0.00  0.00    -0.206 NA
ATOM      8  C   UNL d   1      13.754  12.316  -2.128  0.00  0.00     0.279 C 
ATOM      9  O   UNL d   1      13.995  11.780  -2.326  0.00  0.00    -0.265 OA
BRANCH   8  10
ATOM     10  C   UNL d   1      13.842  12.445  -1.304  0.00  0.00     0.062 C 
BRANCH  10  11
ATOM     11  C   UNL d   1      14.566  12.322  -0.925  0.00  0.00     0.005 C 
BRANCH  11  12
ATOM     12  C   UNL d   1      14.975  12.974  -0.609  0.00  0.00     0.000 A 
ATOM     13  C   UNL d   1      14.593  13.588  -0.334  0.00  0.00     0.000 A 
ATOM     14  C   UNL d   1      15.043  14.218  -0.026  0.00  0.00     0.000 A 
ATOM     15  C   UNL d   1      15.853  14.173  -0.023  0.00  0.00     0.000 A 
ATOM     16  C   UNL d   1      16.235  13.554  -0.301  0.00  0.00     0.000 A 
ATOM     17  C   UNL d   1      15.801  12.926  -0.607  0.00  0.00     0.000 A 
ENDBRANCH  11  12
ENDBRANCH  10  11
ENDBRANCH   8  10
ENDBRANCH   2   7
BRANCH   1  18
ATOM     18  N   UNL d   1      13.303  14.130  -3.591  0.00  0.00    -0.112 N 
ATOM     19  O   UNL d   1      12.777  14.710  -3.819  0.00  0.00    -0.532 OA
ATOM     20  O   UNL d   1      13.920  14.329  -3.030  0.00  0.00    -0.532 OA
ENDBRANCH   1  18
BRANCH   5  21
ATOM     21  O   UNL d   1      13.034  12.283  -5.797  0.00  0.00    -0.305 OA
BRANCH  21  22
ATOM     22  C   UNL d   1      13.564  11.862  -6.212  0.00  0.00     0.123 C 
ATOM     23  C   UNL d   1      14.391  12.080  -6.201  0.00  0.00     0.029 C 
ENDBRANCH  21  22
ENDBRANCH   5  21
TORSDOF 7
ENDMDL
