MODEL 1
REMARK VINA RESULT:      59.3      0.000      0.000
REMARK  8 active torsions:
REMARK  status: ('A' for Active; 'I' for Inactive)
REMARK    1  A    between atoms: N_6  and  S_1 
REMARK    2  A    between atoms: C_18  and  S_1 
REMARK    3  A    between atoms: N_2  and  C_4 
REMARK    4  A    between atoms: C_7  and  N_3 
REMARK    5  A    between atoms: C_4  and  C_5 
REMARK    6  A    between atoms: C_10  and  C_4 
REMARK    7  A    between atoms: C_5  and  N_6 
REMARK    8  A    between atoms: O_23  and  C_19 
ROOT
ATOM      1  N   UNL d   1     -55.218-100.830 -42.639  0.00  0.00    -0.300 N 
ATOM      2  N   UNL d   1     -55.190-101.504 -41.137  0.00  0.00    -0.301 N 
ATOM      3  C   UNL d   1     -55.694-101.478 -42.471  0.00  0.00     0.100 A 
ATOM      4  C   UNL d   1     -54.727-100.518 -42.057  0.00  0.00     0.100 A 
ATOM      5  C   UNL d   1     -54.712-100.853 -41.307  0.00  0.00     0.100 A 
ATOM      6  C   UNL d   1     -55.681-101.816 -41.719  0.00  0.00     0.100 A 
ENDROOT
BRANCH   1   7
ATOM      7  C   UNL d   1     -55.235-100.493 -43.400  0.00  0.00     0.086 C 
BRANCH   7   8
ATOM      8  C   UNL d   1     -55.415 -99.692 -43.489  0.00  0.00     0.130 C 
BRANCH   8   9
ATOM      9  N   UNL d   1     -56.206 -99.453 -43.583  0.00  0.00    -0.155 NA
BRANCH   9  10
ATOM     10  S   UNL d   1     -56.451 -99.107 -44.287  0.00  0.00     0.286 S 
ATOM     11  O   UNL d   1     -57.234 -99.120 -44.016  0.00  0.00    -0.198 OA
ATOM     12  O   UNL d   1     -55.667 -99.096 -44.552  0.00  0.00    -0.198 OA
BRANCH  10  13
ATOM     13  C   UNL d   1     -56.693 -98.760 -44.993  0.00  0.00     0.117 C 
ATOM     14  C   UNL d   1     -57.428 -98.963 -45.326  0.00  0.00     0.014 C 
ENDBRANCH  10  13
ENDBRANCH   9  10
ENDBRANCH   8   9
ENDBRANCH   7   8
BRANCH   7  15
ATOM     15  C   UNL d   1     -55.073-100.954 -44.063  0.00  0.00     0.037 A 
ATOM     16  C   UNL d   1     -55.090-100.614 -44.814  0.00  0.00     0.100 A 
ATOM     17  N   UNL d   1     -54.927-101.078 -45.480  0.00  0.00    -0.242 NA
ATOM     18  C   UNL d   1     -54.748-101.878 -45.390  0.00  0.00     0.099 A 
ATOM     19  C   UNL d   1     -54.731-102.214 -44.641  0.00  0.00     0.021 A 
ATOM     20  C   UNL d   1     -54.894-101.751 -43.975  0.00  0.00     0.005 A 
ENDBRANCH   7  15
ENDBRANCH   1   7
BRANCH   2  21
ATOM     21  C   UNL d   1     -55.175-101.838 -40.387  0.00  0.00     0.064 A 
ATOM     22  C   UNL d   1     -55.578-102.545 -40.240  0.00  0.00     0.020 A 
ATOM     23  C   UNL d   1     -55.563-102.880 -39.490  0.00  0.00     0.026 A 
ATOM     24  C   UNL d   1     -55.143-102.509 -38.878  0.00  0.00     0.094 A 
ATOM     25  C   UNL d   1     -54.740-101.802 -39.026  0.00  0.00     0.026 A 
ATOM     26  C   UNL d   1     -54.755-101.468 -39.775  0.00  0.00     0.020 A 
BRANCH  24  27
ATOM     27  O   UNL d   1     -55.124-102.843 -38.116  0.00  0.00    -0.328 OA
ATOM     28  C   UNL d   1     -55.640-102.574 -37.521  0.00  0.00     0.181 C 
ENDBRANCH  24  27
ENDBRANCH   2  21
TORSDOF 8
ENDMDL
