MODEL 1
REMARK VINA RESULT:      -3.2      0.000      0.000
REMARK  4 active torsions:
REMARK  status: ('A' for Active; 'I' for Inactive)
REMARK    1  A    between atoms: S_3  and  N_1 
REMARK    2  A    between atoms: C_7  and  C_4 
REMARK    3  A    between atoms: C_8  and  C_5 
REMARK    4  A    between atoms: O_19  and  C_17 
ROOT
ATOM      1  N   UNL d   1      31.700  16.055 -24.015  0.00  0.00    -0.155 N 
ATOM      2  N   UNL d   1      31.007  15.588 -23.997  0.00  0.00    -0.155 NA
ATOM      3  C   UNL d   1      30.376  16.096 -23.913  0.00  0.00     0.110 A 
ATOM      4  C   UNL d   1      31.498  16.850 -23.941  0.00  0.00     0.096 A 
ATOM      5  C   UNL d   1      30.660  16.892 -23.875  0.00  0.00     0.041 A 
ENDROOT
BRANCH   4   6
ATOM      6  C   UNL d   1      32.016  17.492 -23.932  0.00  0.00     0.021 A 
ATOM      7  C   UNL d   1      32.337  17.755 -23.228  0.00  0.00     0.026 A 
ATOM      8  C   UNL d   1      32.854  18.397 -23.219  0.00  0.00     0.094 A 
ATOM      9  C   UNL d   1      33.052  18.776 -23.915  0.00  0.00     0.024 A 
ATOM     10  C   UNL d   1      32.731  18.515 -24.628  0.00  0.00     0.002 A 
ATOM     11  C   UNL d   1      32.213  17.873 -24.637  0.00  0.00     0.002 A 
BRANCH   8  12
ATOM     12  O   UNL d   1      33.176  18.658 -22.500  0.00  0.00    -0.328 OA
ATOM     13  C   UNL d   1      33.236  19.460 -22.344  0.00  0.00     0.181 C 
ENDBRANCH   8  12
ENDBRANCH   4   6
BRANCH   1  14
ATOM     14  S   UNL d   1      32.449  15.764 -24.092  0.00  0.00     0.266 S 
ATOM     15  O   UNL d   1      32.498  15.653 -23.264  0.00  0.00    -0.203 OA
ATOM     16  O   UNL d   1      32.437  15.859 -24.901  0.00  0.00    -0.203 OA
ATOM     17  C   UNL d   1      33.235  15.457 -24.151  0.00  0.00     0.165 C 
ENDBRANCH   1  14
BRANCH   3  18
ATOM     18  C   UNL d   1      29.572  15.894 -23.867  0.00  0.00     0.049 A 
ATOM     19  S   UNL d   1      29.115  15.741 -24.529  0.00  0.00    -0.085 SA
ATOM     20  C   UNL d   1      28.356  15.563 -24.256  0.00  0.00     0.035 A 
ATOM     21  C   UNL d   1      28.370  15.613 -23.413  0.00  0.00     0.007 A 
ATOM     22  C   UNL d   1      29.117  15.816 -23.186  0.00  0.00     0.009 A 
ENDBRANCH   3  18
TORSDOF 4
ENDMDL
MODEL 2
REMARK VINA RESULT:      -2.1      1.327      3.720
REMARK  4 active torsions:
REMARK  status: ('A' for Active; 'I' for Inactive)
REMARK    1  A    between atoms: S_3  and  N_1 
REMARK    2  A    between atoms: C_7  and  C_4 
REMARK    3  A    between atoms: C_8  and  C_5 
REMARK    4  A    between atoms: O_19  and  C_17 
ROOT
ATOM      1  N   UNL d   1      32.594  16.957 -23.882  0.00  0.00    -0.155 N 
ATOM      2  N   UNL d   1      33.086  17.586 -23.636  0.00  0.00    -0.155 NA
ATOM      3  C   UNL d   1      32.605  18.227 -23.491  0.00  0.00     0.110 A 
ATOM      4  C   UNL d   1      31.809  17.209 -23.889  0.00  0.00     0.096 A 
ATOM      5  C   UNL d   1      31.801  18.014 -23.642  0.00  0.00     0.041 A 
ENDROOT
BRANCH   4   6
ATOM      6  C   UNL d   1      31.149  16.761 -24.097  0.00  0.00     0.021 A 
ATOM      7  C   UNL d   1      30.628  16.501 -23.524  0.00  0.00     0.026 A 
ATOM      8  C   UNL d   1      29.968  16.053 -23.732  0.00  0.00     0.094 A 
ATOM      9  C   UNL d   1      29.828  15.865 -24.514  0.00  0.00     0.024 A 
ATOM     10  C   UNL d   1      30.350  16.125 -25.097  0.00  0.00     0.002 A 
ATOM     11  C   UNL d   1      31.010  16.573 -24.888  0.00  0.00     0.002 A 
BRANCH   8  12
ATOM     12  O   UNL d   1      29.444  15.792 -23.144  0.00  0.00    -0.328 OA
ATOM     13  C   UNL d   1      28.750  16.204 -23.000  0.00  0.00     0.181 C 
ENDBRANCH   8  12
ENDBRANCH   4   6
BRANCH   1  14
ATOM     14  S   UNL d   1      32.853  16.220 -24.081  0.00  0.00     0.266 S 
ATOM     15  O   UNL d   1      32.903  16.447 -24.885  0.00  0.00    -0.203 OA
ATOM     16  O   UNL d   1      32.817  15.963 -23.309  0.00  0.00    -0.203 OA
ATOM     17  C   UNL d   1      33.127  15.453 -24.311  0.00  0.00     0.165 C 
ENDBRANCH   1  14
BRANCH   3  18
ATOM     18  C   UNL d   1      32.839  18.981 -23.234  0.00  0.00     0.049 A 
ATOM     19  S   UNL d   1      32.981  19.601 -23.749  0.00  0.00    -0.085 SA
ATOM     20  C   UNL d   1      33.199  20.249 -23.285  0.00  0.00     0.035 A 
ATOM     21  C   UNL d   1      33.183  20.002 -22.478  0.00  0.00     0.007 A 
ATOM     22  C   UNL d   1      32.962  19.226 -22.458  0.00  0.00     0.009 A 
ENDBRANCH   3  18
TORSDOF 4
ENDMDL
