MODEL 1
REMARK VINA RESULT:      -8.3      0.000      0.000
REMARK  3 active torsions:
REMARK  status: ('A' for Active; 'I' for Inactive)
REMARK    1  A    between atoms: C_4  and  C_1 
REMARK    2  A    between atoms: C_8  and  C_3 
REMARK    3  A    between atoms: O_20  and  C_16 
ROOT
ATOM      1  C   UNL d   1     -49.183  12.720  23.214  0.00  0.00     0.107 A 
ATOM      2  N   UNL d   1     -49.777  12.218  23.490  0.00  0.00    -0.148 NA
ATOM      3  C   UNL d   1     -48.474  12.313  23.249  0.00  0.00     0.039 A 
ATOM      4  N   UNL d   1     -49.429  11.492  23.698  0.00  0.00    -0.148 NA
ATOM      5  C   UNL d   1     -48.621  11.535  23.554  0.00  0.00     0.104 A 
ATOM      6  C   UNL d   1     -48.072  10.933  23.684  0.00  0.00     0.023 C 
ENDROOT
BRANCH   1   7
ATOM      7  C   UNL d   1     -49.326  13.489  22.958  0.00  0.00     0.059 A 
ATOM      8  C   UNL d   1     -49.708  13.621  22.246  0.00  0.00     0.200 A 
ATOM      9  C   UNL d   1     -49.851  14.387  21.988  0.00  0.00     0.084 A 
ATOM     10  O   UNL d   1     -49.961  12.962  21.765  0.00  0.00    -0.286 OA
ATOM     11  C   UNL d   1     -49.601  15.031  22.465  0.00  0.00     0.199 A 
ATOM     12  C   UNL d   1     -49.219  14.899  23.176  0.00  0.00     0.042 A 
ATOM     13  O   UNL d   1     -49.740  15.835  22.216  0.00  0.00    -0.286 OA
ATOM     14  C   UNL d   1     -49.084  14.115  23.417  0.00  0.00     0.008 A 
ENDBRANCH   1   7
BRANCH   3  15
ATOM     15  C   UNL d   1     -47.753  12.693  22.996  0.00  0.00     0.003 A 
ATOM     16  C   UNL d   1     -47.527  12.687  22.206  0.00  0.00     0.002 A 
ATOM     17  C   UNL d   1     -46.813  13.068  21.975  0.00  0.00     0.024 A 
ATOM     18  C   UNL d   1     -46.356  13.437  22.544  0.00  0.00     0.094 A 
ATOM     19  C   UNL d   1     -46.572  13.452  23.351  0.00  0.00     0.024 A 
ATOM     20  C   UNL d   1     -47.287  13.072  23.582  0.00  0.00     0.002 A 
BRANCH  18  21
ATOM     21  O   UNL d   1     -45.641  13.818  22.313  0.00  0.00    -0.328 OA
ATOM     22  C   UNL d   1     -44.973  13.346  22.140  0.00  0.00     0.181 C 
ENDBRANCH  18  21
ENDBRANCH   3  15
TORSDOF 3
ENDMDL
MODEL 2
REMARK VINA RESULT:      -8.2      1.515      3.320
REMARK  3 active torsions:
REMARK  status: ('A' for Active; 'I' for Inactive)
REMARK    1  A    between atoms: C_4  and  C_1 
REMARK    2  A    between atoms: C_8  and  C_3 
REMARK    3  A    between atoms: O_20  and  C_16 
ROOT
ATOM      1  C   UNL d   1     -47.562  13.051  22.834  0.00  0.00     0.107 A 
ATOM      2  N   UNL d   1     -46.797  12.741  22.830  0.00  0.00    -0.148 NA
ATOM      3  C   UNL d   1     -47.502  13.864  22.761  0.00  0.00     0.039 A 
ATOM      4  N   UNL d   1     -46.260  13.371  22.754  0.00  0.00    -0.148 NA
ATOM      5  C   UNL d   1     -46.682  14.075  22.710  0.00  0.00     0.104 A 
ATOM      6  C   UNL d   1     -46.359  14.830  22.632  0.00  0.00     0.023 C 
ENDROOT
BRANCH   1   7
ATOM      7  C   UNL d   1     -48.237  12.586  22.901  0.00  0.00     0.059 A 
ATOM      8  C   UNL d   1     -48.505  12.156  22.258  0.00  0.00     0.200 A 
ATOM      9  C   UNL d   1     -49.179  11.691  22.322  0.00  0.00     0.084 A 
ATOM     10  O   UNL d   1     -48.086  12.186  21.514  0.00  0.00    -0.286 OA
ATOM     11  C   UNL d   1     -49.586  11.664  23.055  0.00  0.00     0.199 A 
ATOM     12  C   UNL d   1     -49.319  12.093  23.697  0.00  0.00     0.042 A 
ATOM     13  O   UNL d   1     -50.289  11.187  23.143  0.00  0.00    -0.286 OA
ATOM     14  C   UNL d   1     -48.635  12.557  23.610  0.00  0.00     0.008 A 
ENDBRANCH   1   7
BRANCH   3  15
ATOM     15  C   UNL d   1     -48.209  14.342  22.748  0.00  0.00     0.003 A 
ATOM     16  C   UNL d   1     -48.569  14.582  23.448  0.00  0.00     0.002 A 
ATOM     17  C   UNL d   1     -49.266  15.053  23.416  0.00  0.00     0.024 A 
ATOM     18  C   UNL d   1     -49.572  15.263  22.687  0.00  0.00     0.094 A 
ATOM     19  C   UNL d   1     -49.219  15.026  21.968  0.00  0.00     0.024 A 
ATOM     20  C   UNL d   1     -48.521  14.555  22.000  0.00  0.00     0.002 A 
BRANCH  18  21
ATOM     21  O   UNL d   1     -50.270  15.734  22.655  0.00  0.00    -0.328 OA
ATOM     22  C   UNL d   1     -50.944  15.482  23.081  0.00  0.00     0.181 C 
ENDBRANCH  18  21
ENDBRANCH   3  15
TORSDOF 3
ENDMDL
MODEL 3
REMARK VINA RESULT:      -8.2      1.319      3.246
REMARK  3 active torsions:
REMARK  status: ('A' for Active; 'I' for Inactive)
REMARK    1  A    between atoms: C_4  and  C_1 
REMARK    2  A    between atoms: C_8  and  C_3 
REMARK    3  A    between atoms: O_20  and  C_16 
ROOT
ATOM      1  C   UNL d   1     -48.343  12.593  22.111  0.00  0.00     0.107 A 
ATOM      2  N   UNL d   1     -48.314  11.874  21.706  0.00  0.00    -0.148 NA
ATOM      3  C   UNL d   1     -49.101  12.892  22.036  0.00  0.00     0.039 A 
ATOM      4  N   UNL d   1     -49.064  11.729  21.377  0.00  0.00    -0.148 NA
ATOM      5  C   UNL d   1     -49.564  12.352  21.573  0.00  0.00     0.104 A 
ATOM      6  C   UNL d   1     -50.356  12.425  21.356  0.00  0.00     0.023 C 
ENDROOT
BRANCH   1   7
ATOM      7  C   UNL d   1     -47.698  12.914  22.508  0.00  0.00     0.059 A 
ATOM      8  C   UNL d   1     -47.429  12.570  23.201  0.00  0.00     0.200 A 
ATOM      9  C   UNL d   1     -46.785  12.889  23.599  0.00  0.00     0.084 A 
ATOM     10  O   UNL d   1     -47.816  11.877  23.517  0.00  0.00    -0.286 OA
ATOM     11  C   UNL d   1     -46.408  13.569  23.285  0.00  0.00     0.199 A 
ATOM     12  C   UNL d   1     -46.677  13.912  22.592  0.00  0.00     0.042 A 
ATOM     13  O   UNL d   1     -45.738  13.916  23.682  0.00  0.00    -0.286 OA
ATOM     14  C   UNL d   1     -47.330  13.574  22.206  0.00  0.00     0.008 A 
ENDBRANCH   1   7
BRANCH   3  15
ATOM     15  C   UNL d   1     -49.302  13.637  22.400  0.00  0.00     0.003 A 
ATOM     16  C   UNL d   1     -49.093  14.350  22.047  0.00  0.00     0.002 A 
ATOM     17  C   UNL d   1     -49.298  15.075  22.420  0.00  0.00     0.024 A 
ATOM     18  C   UNL d   1     -49.704  15.056  23.131  0.00  0.00     0.094 A 
ATOM     19  C   UNL d   1     -49.923  14.342  23.502  0.00  0.00     0.024 A 
ATOM     20  C   UNL d   1     -49.717  13.616  23.129  0.00  0.00     0.002 A 
BRANCH  18  21
ATOM     21  O   UNL d   1     -49.910  15.783  23.505  0.00  0.00    -0.328 OA
ATOM     22  C   UNL d   1     -50.712  15.922  23.698  0.00  0.00     0.181 C 
ENDBRANCH  18  21
ENDBRANCH   3  15
TORSDOF 3
ENDMDL
MODEL 4
REMARK VINA RESULT:      -8.0      1.521      2.547
REMARK  3 active torsions:
REMARK  status: ('A' for Active; 'I' for Inactive)
REMARK    1  A    between atoms: C_4  and  C_1 
REMARK    2  A    between atoms: C_8  and  C_3 
REMARK    3  A    between atoms: O_20  and  C_16 
ROOT
ATOM      1  C   UNL d   1     -49.102  14.023  22.523  0.00  0.00     0.107 A 
ATOM      2  N   UNL d   1     -49.577  14.660  22.300  0.00  0.00    -0.148 NA
ATOM      3  C   UNL d   1     -48.324  14.276  22.514  0.00  0.00     0.039 A 
ATOM      4  N   UNL d   1     -49.085  15.314  22.152  0.00  0.00    -0.148 NA
ATOM      5  C   UNL d   1     -48.304  15.092  22.281  0.00  0.00     0.104 A 
ATOM      6  C   UNL d   1     -47.641  15.575  22.197  0.00  0.00     0.023 C 
ENDROOT
BRANCH   1   7
ATOM      7  C   UNL d   1     -49.403  13.281  22.712  0.00  0.00     0.059 A 
ATOM      8  C   UNL d   1     -49.692  12.792  22.121  0.00  0.00     0.200 A 
ATOM      9  C   UNL d   1     -49.992  12.051  22.307  0.00  0.00     0.084 A 
ATOM     10  O   UNL d   1     -49.683  13.049  21.306  0.00  0.00    -0.286 OA
ATOM     11  C   UNL d   1     -49.998  11.803  23.108  0.00  0.00     0.199 A 
ATOM     12  C   UNL d   1     -49.710  12.291  23.698  0.00  0.00     0.042 A 
ATOM     13  O   UNL d   1     -50.306  11.037  23.323  0.00  0.00    -0.286 OA
ATOM     14  C   UNL d   1     -49.410  13.037  23.487  0.00  0.00     0.008 A 
ENDBRANCH   1   7
BRANCH   3  15
ATOM     15  C   UNL d   1     -47.699  13.733  22.723  0.00  0.00     0.003 A 
ATOM     16  C   UNL d   1     -47.496  13.605  23.509  0.00  0.00     0.002 A 
ATOM     17  C   UNL d   1     -46.877  13.066  23.697  0.00  0.00     0.024 A 
ATOM     18  C   UNL d   1     -46.489  12.679  23.089  0.00  0.00     0.094 A 
ATOM     19  C   UNL d   1     -46.683  12.799  22.286  0.00  0.00     0.024 A 
ATOM     20  C   UNL d   1     -47.302  13.338  22.098  0.00  0.00     0.002 A 
BRANCH  18  21
ATOM     21  O   UNL d   1     -45.869  12.140  23.276  0.00  0.00    -0.328 OA
ATOM     22  C   UNL d   1     -46.063  11.426  23.668  0.00  0.00     0.181 C 
ENDBRANCH  18  21
ENDBRANCH   3  15
TORSDOF 3
ENDMDL
MODEL 5
REMARK VINA RESULT:      -7.6      1.825      3.783
REMARK  3 active torsions:
REMARK  status: ('A' for Active; 'I' for Inactive)
REMARK    1  A    between atoms: C_4  and  C_1 
REMARK    2  A    between atoms: C_8  and  C_3 
REMARK    3  A    between atoms: O_20  and  C_16 
ROOT
ATOM      1  C   UNL d   1     -47.319  14.121  22.714  0.00  0.00     0.107 A 
ATOM      2  N   UNL d   1     -47.022  14.879  22.579  0.00  0.00    -0.148 NA
ATOM      3  C   UNL d   1     -48.137  14.168  22.707  0.00  0.00     0.039 A 
ATOM      4  N   UNL d   1     -47.664  15.399  22.488  0.00  0.00    -0.148 NA
ATOM      5  C   UNL d   1     -48.363  14.973  22.565  0.00  0.00     0.104 A 
ATOM      6  C   UNL d   1     -49.127  15.280  22.512  0.00  0.00     0.023 C 
ENDROOT
BRANCH   1   7
ATOM      7  C   UNL d   1     -46.841  13.462  22.829  0.00  0.00     0.059 A 
ATOM      8  C   UNL d   1     -46.388  13.170  22.212  0.00  0.00     0.200 A 
ATOM      9  C   UNL d   1     -45.909  12.512  22.324  0.00  0.00     0.084 A 
ATOM     10  O   UNL d   1     -46.410  13.547  21.445  0.00  0.00    -0.286 OA
ATOM     11  C   UNL d   1     -45.891  12.146  23.079  0.00  0.00     0.199 A 
ATOM     12  C   UNL d   1     -46.343  12.438  23.695  0.00  0.00     0.042 A 
ATOM     13  O   UNL d   1     -45.400  11.462  23.218  0.00  0.00    -0.286 OA
ATOM     14  C   UNL d   1     -46.820  13.104  23.559  0.00  0.00     0.008 A 
ENDBRANCH   1   7
BRANCH   3  15
ATOM     15  C   UNL d   1     -48.603  13.464  22.832  0.00  0.00     0.003 A 
ATOM     16  C   UNL d   1     -48.777  13.204  23.593  0.00  0.00     0.002 A 
ATOM     17  C   UNL d   1     -49.239  12.507  23.698  0.00  0.00     0.024 A 
ATOM     18  C   UNL d   1     -49.506  12.103  23.038  0.00  0.00     0.094 A 
ATOM     19  C   UNL d   1     -49.338  12.356  22.260  0.00  0.00     0.024 A 
ATOM     20  C   UNL d   1     -48.876  13.052  22.155  0.00  0.00     0.002 A 
BRANCH  18  21
ATOM     21  O   UNL d   1     -49.968  11.406  23.144  0.00  0.00    -0.328 OA
ATOM     22  C   UNL d   1     -50.599  11.423  23.692  0.00  0.00     0.181 C 
ENDBRANCH  18  21
ENDBRANCH   3  15
TORSDOF 3
ENDMDL
MODEL 6
REMARK VINA RESULT:      -6.2      8.496      9.953
REMARK  3 active torsions:
REMARK  status: ('A' for Active; 'I' for Inactive)
REMARK    1  A    between atoms: C_4  and  C_1 
REMARK    2  A    between atoms: C_8  and  C_3 
REMARK    3  A    between atoms: O_20  and  C_16 
ROOT
ATOM      1  C   UNL d   1     -39.013  14.229  19.475  0.00  0.00     0.107 A 
ATOM      2  N   UNL d   1     -38.390  13.757  19.741  0.00  0.00    -0.148 NA
ATOM      3  C   UNL d   1     -39.031  14.182  18.658  0.00  0.00     0.039 A 
ATOM      4  N   UNL d   1     -38.020  13.416  19.080  0.00  0.00    -0.148 NA
ATOM      5  C   UNL d   1     -38.405  13.669  18.400  0.00  0.00     0.104 A 
ATOM      6  C   UNL d   1     -38.213  13.460  17.625  0.00  0.00     0.023 C 
ENDROOT
BRANCH   1   7
ATOM      7  C   UNL d   1     -39.504  14.655  19.979  0.00  0.00     0.059 A 
ATOM      8  C   UNL d   1     -39.216  15.311  20.375  0.00  0.00     0.200 A 
ATOM      9  C   UNL d   1     -39.704  15.738  20.879  0.00  0.00     0.084 A 
ATOM     10  O   UNL d   1     -38.405  15.558  20.269  0.00  0.00    -0.286 OA
ATOM     11  C   UNL d   1     -40.500  15.491  20.981  0.00  0.00     0.199 A 
ATOM     12  C   UNL d   1     -40.787  14.836  20.585  0.00  0.00     0.042 A 
ATOM     13  O   UNL d   1     -41.024  15.920  21.499  0.00  0.00    -0.286 OA
ATOM     14  C   UNL d   1     -40.276  14.419  20.080  0.00  0.00     0.008 A 
ENDBRANCH   1   7
BRANCH   3  15
ATOM     15  C   UNL d   1     -39.621  14.616  18.220  0.00  0.00     0.003 A 
ATOM     16  C   UNL d   1     -40.374  14.306  18.107  0.00  0.00     0.002 A 
ATOM     17  C   UNL d   1     -40.945  14.748  17.673  0.00  0.00     0.024 A 
ATOM     18  C   UNL d   1     -40.736  15.480  17.372  0.00  0.00     0.094 A 
ATOM     19  C   UNL d   1     -39.976  15.808  17.479  0.00  0.00     0.024 A 
ATOM     20  C   UNL d   1     -39.406  15.366  17.913  0.00  0.00     0.002 A 
BRANCH  18  21
ATOM     21  O   UNL d   1     -41.307  15.922  16.937  0.00  0.00    -0.328 OA
ATOM     22  C   UNL d   1     -41.563  15.629  16.197  0.00  0.00     0.181 C 
ENDBRANCH  18  21
ENDBRANCH   3  15
TORSDOF 3
ENDMDL
MODEL 7
REMARK VINA RESULT:      -5.8      7.946      9.896
REMARK  3 active torsions:
REMARK  status: ('A' for Active; 'I' for Inactive)
REMARK    1  A    between atoms: C_4  and  C_1 
REMARK    2  A    between atoms: C_8  and  C_3 
REMARK    3  A    between atoms: O_20  and  C_16 
ROOT
ATOM      1  C   UNL d   1     -39.003  14.301  18.305  0.00  0.00     0.107 A 
ATOM      2  N   UNL d   1     -38.403  13.841  17.975  0.00  0.00    -0.148 NA
ATOM      3  C   UNL d   1     -38.916  14.280  19.118  0.00  0.00     0.039 A 
ATOM      4  N   UNL d   1     -37.940  13.533  18.593  0.00  0.00    -0.148 NA
ATOM      5  C   UNL d   1     -38.245  13.796  19.309  0.00  0.00     0.104 A 
ATOM      6  C   UNL d   1     -37.949  13.618  20.058  0.00  0.00     0.023 C 
ENDROOT
BRANCH   1   7
ATOM      7  C   UNL d   1     -39.569  14.694  17.856  0.00  0.00     0.059 A 
ATOM      8  C   UNL d   1     -40.192  14.278  17.525  0.00  0.00     0.200 A 
ATOM      9  C   UNL d   1     -40.759  14.668  17.076  0.00  0.00     0.084 A 
ATOM     10  O   UNL d   1     -40.259  13.435  17.644  0.00  0.00    -0.286 OA
ATOM     11  C   UNL d   1     -40.689  15.496  16.962  0.00  0.00     0.199 A 
ATOM     12  C   UNL d   1     -40.067  15.912  17.292  0.00  0.00     0.042 A 
ATOM     13  O   UNL d   1     -41.267  15.921  16.500  0.00  0.00    -0.286 OA
ATOM     14  C   UNL d   1     -39.505  15.497  17.743  0.00  0.00     0.008 A 
ENDBRANCH   1   7
BRANCH   3  15
ATOM     15  C   UNL d   1     -39.462  14.709  19.615  0.00  0.00     0.003 A 
ATOM     16  C   UNL d   1     -39.342  15.504  19.785  0.00  0.00     0.002 A 
ATOM     17  C   UNL d   1     -39.891  15.911  20.277  0.00  0.00     0.024 A 
ATOM     18  C   UNL d   1     -40.535  15.505  20.576  0.00  0.00     0.094 A 
ATOM     19  C   UNL d   1     -40.670  14.697  20.413  0.00  0.00     0.024 A 
ATOM     20  C   UNL d   1     -40.121  14.290  19.921  0.00  0.00     0.002 A 
BRANCH  18  21
ATOM     21  O   UNL d   1     -41.084  15.912  21.069  0.00  0.00    -0.328 OA
ATOM     22  C   UNL d   1     -41.876  15.645  21.093  0.00  0.00     0.181 C 
ENDBRANCH  18  21
ENDBRANCH   3  15
TORSDOF 3
ENDMDL
MODEL 8
REMARK VINA RESULT:      -5.8      8.788     10.021
REMARK  3 active torsions:
REMARK  status: ('A' for Active; 'I' for Inactive)
REMARK    1  A    between atoms: C_4  and  C_1 
REMARK    2  A    between atoms: C_8  and  C_3 
REMARK    3  A    between atoms: O_20  and  C_16 
ROOT
ATOM      1  C   UNL d   1     -40.417  15.386  18.822  0.00  0.00     0.107 A 
ATOM      2  N   UNL d   1     -41.055  15.909  18.821  0.00  0.00    -0.148 NA
ATOM      3  C   UNL d   1     -40.345  15.076  18.068  0.00  0.00     0.039 A 
ATOM      4  N   UNL d   1     -41.381  15.922  18.056  0.00  0.00    -0.148 NA
ATOM      5  C   UNL d   1     -40.951  15.411  17.577  0.00  0.00     0.104 A 
ATOM      6  C   UNL d   1     -41.092  15.261  16.778  0.00  0.00     0.023 C 
ENDROOT
BRANCH   1   7
ATOM      7  C   UNL d   1     -39.960  15.232  19.489  0.00  0.00     0.059 A 
ATOM      8  C   UNL d   1     -40.266  14.784  20.102  0.00  0.00     0.200 A 
ATOM      9  C   UNL d   1     -39.812  14.629  20.769  0.00  0.00     0.084 A 
ATOM     10  O   UNL d   1     -41.060  14.472  20.054  0.00  0.00    -0.286 OA
ATOM     11  C   UNL d   1     -39.033  14.937  20.812  0.00  0.00     0.199 A 
ATOM     12  C   UNL d   1     -38.728  15.385  20.199  0.00  0.00     0.042 A 
ATOM     13  O   UNL d   1     -38.545  14.789  21.495  0.00  0.00    -0.286 OA
ATOM     14  C   UNL d   1     -39.204  15.529  19.534  0.00  0.00     0.008 A 
ENDBRANCH   1   7
BRANCH   3  15
ATOM     15  C   UNL d   1     -39.728  14.513  17.897  0.00  0.00     0.003 A 
ATOM     16  C   UNL d   1     -38.962  14.763  17.732  0.00  0.00     0.002 A 
ATOM     17  C   UNL d   1     -38.365  14.193  17.566  0.00  0.00     0.024 A 
ATOM     18  C   UNL d   1     -38.561  13.399  17.571  0.00  0.00     0.094 A 
ATOM     19  C   UNL d   1     -39.333  13.129  17.736  0.00  0.00     0.024 A 
ATOM     20  C   UNL d   1     -39.930  13.699  17.903  0.00  0.00     0.002 A 
BRANCH  18  21
ATOM     21  O   UNL d   1     -37.963  12.828  17.404  0.00  0.00    -0.328 OA
ATOM     22  C   UNL d   1     -37.940  12.127  17.860  0.00  0.00     0.181 C 
ENDBRANCH  18  21
ENDBRANCH   3  15
TORSDOF 3
ENDMDL
MODEL 9
REMARK VINA RESULT:      -5.5      1.510      2.935
REMARK  3 active torsions:
REMARK  status: ('A' for Active; 'I' for Inactive)
REMARK    1  A    between atoms: C_4  and  C_1 
REMARK    2  A    between atoms: C_8  and  C_3 
REMARK    3  A    between atoms: O_20  and  C_16 
ROOT
ATOM      1  C   UNL d   1     -49.952  12.658  22.140  0.00  0.00     0.107 A 
ATOM      2  N   UNL d   1     -50.677  12.393  21.850  0.00  0.00    -0.148 NA
ATOM      3  C   UNL d   1     -49.887  13.455  21.961  0.00  0.00     0.039 A 
ATOM      4  N   UNL d   1     -51.065  13.034  21.489  0.00  0.00    -0.148 NA
ATOM      5  C   UNL d   1     -50.587  13.700  21.549  0.00  0.00     0.104 A 
ATOM      6  C   UNL d   1     -50.764  14.452  21.261  0.00  0.00     0.023 C 
ENDROOT
BRANCH   1   7
ATOM      7  C   UNL d   1     -49.418  12.172  22.534  0.00  0.00     0.059 A 
ATOM      8  C   UNL d   1     -49.571  11.931  23.302  0.00  0.00     0.200 A 
ATOM      9  C   UNL d   1     -49.040  11.445  23.697  0.00  0.00     0.084 A 
ATOM     10  O   UNL d   1     -50.285  12.182  23.698  0.00  0.00    -0.286 OA
ATOM     11  C   UNL d   1     -48.340  11.202  23.304  0.00  0.00     0.199 A 
ATOM     12  C   UNL d   1     -48.187  11.443  22.537  0.00  0.00     0.042 A 
ATOM     13  O   UNL d   1     -47.775  10.697  23.696  0.00  0.00    -0.286 OA
ATOM     14  C   UNL d   1     -48.738  11.934  22.156  0.00  0.00     0.008 A 
ENDBRANCH   1   7
BRANCH   3  15
ATOM     15  C   UNL d   1     -49.188  13.886  22.193  0.00  0.00     0.003 A 
ATOM     16  C   UNL d   1     -49.163  14.295  22.906  0.00  0.00     0.002 A 
ATOM     17  C   UNL d   1     -48.465  14.716  23.119  0.00  0.00     0.024 A 
ATOM     18  C   UNL d   1     -47.825  14.709  22.610  0.00  0.00     0.094 A 
ATOM     19  C   UNL d   1     -47.835  14.298  21.883  0.00  0.00     0.024 A 
ATOM     20  C   UNL d   1     -48.533  13.877  21.670  0.00  0.00     0.002 A 
BRANCH  18  21
ATOM     21  O   UNL d   1     -47.126  15.130  22.823  0.00  0.00    -0.328 OA
ATOM     22  C   UNL d   1     -46.406  14.708  22.883  0.00  0.00     0.181 C 
ENDBRANCH  18  21
ENDBRANCH   3  15
TORSDOF 3
ENDMDL
