MODEL 1
REMARK VINA RESULT:       7.6      0.000      0.000
REMARK  5 active torsions:
REMARK  status: ('A' for Active; 'I' for Inactive)
REMARK    1  A    between atoms: N_6  and  C_1 
REMARK    2  A    between atoms: S_10  and  C_4 
REMARK       I    between atoms: C_7  and  N_6 
REMARK       I    between atoms: N_8  and  C_7 
REMARK    3  A    between atoms: C_11  and  N_8 
REMARK    4  A    between atoms: C_17  and  S_10 
REMARK    5  A    between atoms: C_19  and  C_17 
ROOT
ATOM      1  N   UNL d   1      45.764 -16.729  44.411  0.00  0.00    -0.321 NA
ATOM      2  C   UNL d   1      45.418 -16.159  44.647  0.00  0.00     0.422 C 
ATOM      3  N   UNL d   1      44.977 -15.468  44.953  0.00  0.00    -0.180 NA
ATOM      4  O   UNL d   1      45.812 -15.735  44.253  0.00  0.00    -0.228 OA
ENDROOT
BRANCH   1   5
ATOM      5  C   UNL d   1      46.079 -17.520  44.226  0.00  0.00     0.271 A 
ATOM      6  S   UNL d   1      46.201 -17.903  43.645  0.00  0.00    -0.006 SA
ATOM      7  C   UNL d   1      46.476 -18.557  43.715  0.00  0.00     0.166 A 
ATOM      8  N   UNL d   1      46.624 -18.817  44.356  0.00  0.00    -0.132 NA
ATOM      9  N   UNL d   1      46.227 -17.780  44.868  0.00  0.00    -0.107 NA
BRANCH   7  10
ATOM     10  S   UNL d   1      46.647 -19.047  43.209  0.00  0.00    -0.059 SA
BRANCH  10  11
ATOM     11  C   UNL d   1      46.176 -19.713  43.107  0.00  0.00     0.037 C 
BRANCH  11  12
ATOM     12  C   UNL d   1      46.433 -20.324  42.623  0.00  0.00     0.007 C 
ATOM     13  C   UNL d   1      46.405 -20.249  41.807  0.00  0.00     0.001 C 
ENDBRANCH  11  12
ENDBRANCH  10  11
ENDBRANCH   7  10
ENDBRANCH   1   5
BRANCH   3  14
ATOM     14  C   UNL d   1      45.177 -14.705  44.690  0.00  0.00     0.087 A 
ATOM     15  C   UNL d   1      44.651 -14.292  44.205  0.00  0.00     0.019 A 
ATOM     16  C   UNL d   1      44.846 -13.535  43.942  0.00  0.00     0.002 A 
ATOM     17  C   UNL d   1      45.571 -13.199  44.169  0.00  0.00     0.000 A 
ATOM     18  C   UNL d   1      46.093 -13.618  44.654  0.00  0.00     0.002 A 
ATOM     19  C   UNL d   1      45.766 -12.442  43.906  0.00  0.00     0.000 C 
ATOM     20  C   UNL d   1      45.893 -14.381  44.917  0.00  0.00     0.019 A 
ENDBRANCH   3  14
TORSDOF 5
ENDMDL
