MODEL 1
REMARK VINA RESULT:      42.9      0.000      0.000
REMARK  4 active torsions:
REMARK  status: ('A' for Active; 'I' for Inactive)
REMARK    1  A    between atoms: N_3  and  S_1 
REMARK    2  A    between atoms: C_4  and  S_1 
REMARK    3  A    between atoms: S_2  and  C_5 
REMARK    4  A    between atoms: C_13  and  N_3 
ROOT
ATOM      1  N   UNL d   1     -56.372 -98.760 -44.604  0.00  0.00    -0.158 NA
ENDROOT
BRANCH   1   2
ATOM      2  S   UNL d   1     -56.044 -99.457 -44.340  0.00  0.00     0.285 S 
ATOM      3  O   UNL d   1     -56.730 -99.632 -43.916  0.00  0.00    -0.198 OA
ATOM      4  O   UNL d   1     -55.344 -99.299 -44.760  0.00  0.00    -0.198 OA
BRANCH   2   5
ATOM      5  C   UNL d   1     -55.694-100.192 -44.063  0.00  0.00     0.105 A 
ATOM      6  C   UNL d   1     -55.947-100.893 -44.379  0.00  0.00     0.015 A 
ATOM      7  C   UNL d   1     -55.625-101.605 -44.128  0.00  0.00     0.022 A 
ATOM      8  C   UNL d   1     -55.045-101.608 -43.555  0.00  0.00     0.103 A 
ATOM      9  C   UNL d   1     -54.787-100.887 -43.232  0.00  0.00     0.022 A 
ATOM     10  N   UNL d   1     -54.719-102.339 -43.302  0.00  0.00    -0.148 N 
ATOM     11  C   UNL d   1     -55.126-100.184 -43.502  0.00  0.00     0.015 A 
ENDBRANCH   2   5
ENDBRANCH   1   2
BRANCH   1  12
ATOM     12  C   UNL d   1     -57.088 -98.762 -45.001  0.00  0.00     0.094 A 
ATOM     13  C   UNL d   1     -57.773 -98.765 -44.578  0.00  0.00     0.021 A 
ATOM     14  C   UNL d   1     -58.500 -98.767 -44.981  0.00  0.00     0.015 A 
ATOM     15  C   UNL d   1     -58.510 -98.767 -45.789  0.00  0.00     0.107 A 
ATOM     16  C   UNL d   1     -57.808 -98.764 -46.229  0.00  0.00     0.015 A 
ATOM     17  C   UNL d   1     -57.081 -98.762 -45.826  0.00  0.00     0.021 A 
BRANCH  15  18
ATOM     18  S   UNL d   1     -59.236 -98.769 -46.191  0.00  0.00     0.302 S 
ATOM     19  O   UNL d   1     -59.643 -98.770 -45.458  0.00  0.00    -0.197 OA
ATOM     20  O   UNL d   1     -58.841 -98.768 -46.904  0.00  0.00    -0.197 OA
ATOM     21  N   UNL d   1     -59.956 -98.771 -46.590  0.00  0.00    -0.043 N 
ENDBRANCH  15  18
ENDBRANCH   1  12
TORSDOF 4
ENDMDL
MODEL 2
REMARK VINA RESULT:      43.9      2.149      3.380
REMARK  4 active torsions:
REMARK  status: ('A' for Active; 'I' for Inactive)
REMARK    1  A    between atoms: N_3  and  S_1 
REMARK    2  A    between atoms: C_4  and  S_1 
REMARK    3  A    between atoms: S_2  and  C_5 
REMARK    4  A    between atoms: C_13  and  N_3 
ROOT
ATOM      1  N   UNL d   1     -54.719-101.803 -43.413  0.00  0.00    -0.158 NA
ENDROOT
BRANCH   1   2
ATOM      2  S   UNL d   1     -54.741-101.911 -42.606  0.00  0.00     0.285 S 
ATOM      3  O   UNL d   1     -54.768-102.730 -42.706  0.00  0.00    -0.198 OA
ATOM      4  O   UNL d   1     -54.714-101.089 -42.485  0.00  0.00    -0.198 OA
BRANCH   2   5
ATOM      5  C   UNL d   1     -54.764-102.021 -41.753  0.00  0.00     0.105 A 
ATOM      6  C   UNL d   1     -54.715-101.373 -41.271  0.00  0.00     0.015 A 
ATOM      7  C   UNL d   1     -54.735-101.457 -40.455  0.00  0.00     0.022 A 
ATOM      8  C   UNL d   1     -54.805-102.200 -40.126  0.00  0.00     0.103 A 
ATOM      9  C   UNL d   1     -54.854-102.864 -40.623  0.00  0.00     0.022 A 
ATOM     10  N   UNL d   1     -54.825-102.280 -39.290  0.00  0.00    -0.148 N 
ATOM     11  C   UNL d   1     -54.832-102.753 -41.442  0.00  0.00     0.015 A 
ENDBRANCH   2   5
ENDBRANCH   1   2
BRANCH   1  12
ATOM     12  C   UNL d   1     -55.142-101.194 -43.762  0.00  0.00     0.094 A 
ATOM     13  C   UNL d   1     -55.933-101.282 -43.880  0.00  0.00     0.021 A 
ATOM     14  C   UNL d   1     -56.363-100.664 -44.234  0.00  0.00     0.015 A 
ATOM     15  C   UNL d   1     -55.982 -99.986 -44.454  0.00  0.00     0.107 A 
ATOM     16  C   UNL d   1     -55.168 -99.891 -44.334  0.00  0.00     0.015 A 
ATOM     17  C   UNL d   1     -54.738-100.508 -43.980  0.00  0.00     0.021 A 
BRANCH  15  18
ATOM     18  S   UNL d   1     -56.411 -99.369 -44.807  0.00  0.00     0.302 S 
ATOM     19  O   UNL d   1     -57.127 -99.710 -44.532  0.00  0.00    -0.197 OA
ATOM     20  O   UNL d   1     -55.715 -99.039 -45.074  0.00  0.00    -0.197 OA
ATOM     21  N   UNL d   1     -56.836 -98.758 -45.157  0.00  0.00    -0.043 N 
ENDBRANCH  15  18
ENDBRANCH   1  12
TORSDOF 4
ENDMDL
