MODEL 1
REMARK VINA RESULT:      53.4      0.000      0.000
REMARK  3 active torsions:
REMARK  status: ('A' for Active; 'I' for Inactive)
REMARK    1  A    between atoms: N_5  and  C_2 
REMARK    2  A    between atoms: C_9  and  C_3 
REMARK       I    between atoms: C_7  and  N_5 
REMARK    3  A    between atoms: C_8  and  C_7 
ROOT
ATOM      1  N   UNL d   1     -49.757  26.556  33.819  0.00  0.00    -0.200 NA
ATOM      2  C   UNL d   1     -49.820  27.371  33.791  0.00  0.00     0.216 A 
ATOM      3  C   UNL d   1     -50.457  26.231  33.527  0.00  0.00     0.172 A 
ATOM      4  N   UNL d   1     -50.954  26.855  33.317  0.00  0.00    -0.187 NA
ATOM      5  S   UNL d   1     -50.562  27.568  33.480  0.00  0.00     0.054 SA
ENDROOT
BRANCH   2   6
ATOM      6  N   UNL d   1     -49.245  27.910  34.030  0.00  0.00    -0.181 NA
ATOM      7  C   UNL d   1     -49.105  28.024  34.829  0.00  0.00     0.281 C 
ATOM      8  O   UNL d   1     -49.537  27.604  35.391  0.00  0.00    -0.265 OA
BRANCH   7   9
ATOM      9  C   UNL d   1     -48.528  28.563  35.069  0.00  0.00     0.058 A 
ATOM     10  C   UNL d   1     -48.687  29.091  35.681  0.00  0.00     0.006 A 
ATOM     11  C   UNL d   1     -48.111  29.630  35.921  0.00  0.00     0.012 A 
ATOM     12  C   UNL d   1     -47.376  29.642  35.549  0.00  0.00     0.058 A 
ATOM     13  C   UNL d   1     -47.218  29.114  34.938  0.00  0.00     0.012 A 
ATOM     14 CL   UNL d   1     -46.799  30.181  35.789  0.00  0.00    -0.082 Cl
ATOM     15  C   UNL d   1     -47.794  28.575  34.698  0.00  0.00     0.006 A 
ENDBRANCH   7   9
ENDBRANCH   2   6
BRANCH   3  16
ATOM     16  C   UNL d   1     -50.631  25.434  33.455  0.00  0.00     0.036 A 
ATOM     17  C   UNL d   1     -50.019  24.885  33.403  0.00  0.00     0.003 A 
ATOM     18  C   UNL d   1     -50.196  24.074  33.330  0.00  0.00     0.000 A 
ATOM     19  C   UNL d   1     -50.987  23.820  33.311  0.00  0.00     0.000 A 
ATOM     20  C   UNL d   1     -51.596  24.380  33.364  0.00  0.00     0.000 A 
ATOM     21  C   UNL d   1     -51.421  25.182  33.436  0.00  0.00     0.003 A 
ENDBRANCH   3  16
TORSDOF 3
ENDMDL
MODEL 2
REMARK VINA RESULT:      53.7      1.532      2.338
REMARK  3 active torsions:
REMARK  status: ('A' for Active; 'I' for Inactive)
REMARK    1  A    between atoms: N_5  and  C_2 
REMARK    2  A    between atoms: C_9  and  C_3 
REMARK       I    between atoms: C_7  and  N_5 
REMARK    3  A    between atoms: C_8  and  C_7 
ROOT
ATOM      1  N   UNL d   1     -51.463  25.462  33.526  0.00  0.00    -0.200 NA
ATOM      2  C   UNL d   1     -50.656  25.557  33.434  0.00  0.00     0.216 A 
ATOM      3  C   UNL d   1     -51.639  24.658  33.457  0.00  0.00     0.172 A 
ATOM      4  N   UNL d   1     -50.930  24.257  33.322  0.00  0.00    -0.187 NA
ATOM      5  S   UNL d   1     -50.314  24.813  33.306  0.00  0.00     0.054 SA
ENDROOT
BRANCH   2   6
ATOM      6  N   UNL d   1     -50.247  26.271  33.462  0.00  0.00    -0.181 NA
ATOM      7  C   UNL d   1     -50.124  26.639  34.184  0.00  0.00     0.281 C 
ATOM      8  O   UNL d   1     -50.407  26.298  34.878  0.00  0.00    -0.265 OA
BRANCH   7   9
ATOM      9  C   UNL d   1     -49.714  27.355  34.212  0.00  0.00     0.058 A 
ATOM     10  C   UNL d   1     -49.849  27.930  33.639  0.00  0.00     0.006 A 
ATOM     11  C   UNL d   1     -49.439  28.645  33.667  0.00  0.00     0.012 A 
ATOM     12  C   UNL d   1     -48.895  28.786  34.270  0.00  0.00     0.058 A 
ATOM     13  C   UNL d   1     -48.761  28.210  34.842  0.00  0.00     0.012 A 
ATOM     14 CL   UNL d   1     -48.485  29.501  34.298  0.00  0.00    -0.082 Cl
ATOM     15  C   UNL d   1     -49.171  27.495  34.814  0.00  0.00     0.006 A 
ENDBRANCH   7   9
ENDBRANCH   2   6
BRANCH   3  16
ATOM     16  C   UNL d   1     -52.380  24.316  33.513  0.00  0.00     0.036 A 
ATOM     17  C   UNL d   1     -53.049  24.752  33.307  0.00  0.00     0.003 A 
ATOM     18  C   UNL d   1     -53.804  24.403  33.364  0.00  0.00     0.000 A 
ATOM     19  C   UNL d   1     -53.882  23.619  33.628  0.00  0.00     0.000 A 
ATOM     20  C   UNL d   1     -53.204  23.188  33.832  0.00  0.00     0.000 A 
ATOM     21  C   UNL d   1     -52.458  23.532  33.776  0.00  0.00     0.003 A 
ENDBRANCH   3  16
TORSDOF 3
ENDMDL
MODEL 3
REMARK VINA RESULT:      55.9      0.852      1.161
REMARK  3 active torsions:
REMARK  status: ('A' for Active; 'I' for Inactive)
REMARK    1  A    between atoms: N_5  and  C_2 
REMARK    2  A    between atoms: C_9  and  C_3 
REMARK       I    between atoms: C_7  and  N_5 
REMARK    3  A    between atoms: C_8  and  C_7 
ROOT
ATOM      1  N   UNL d   1     -50.120  27.073  33.807  0.00  0.00    -0.200 NA
ATOM      2  C   UNL d   1     -49.309  27.177  33.826  0.00  0.00     0.216 A 
ATOM      3  C   UNL d   1     -50.277  26.296  33.579  0.00  0.00     0.172 A 
ATOM      4  N   UNL d   1     -49.553  25.920  33.458  0.00  0.00    -0.187 NA
ATOM      5  S   UNL d   1     -48.946  26.464  33.610  0.00  0.00     0.054 SA
ENDROOT
BRANCH   2   6
ATOM      6  N   UNL d   1     -48.914  27.872  34.027  0.00  0.00    -0.181 NA
ATOM      7  C   UNL d   1     -48.757  28.036  34.814  0.00  0.00     0.281 C 
ATOM      8  O   UNL d   1     -48.992  27.510  35.403  0.00  0.00    -0.265 OA
BRANCH   7   9
ATOM      9  C   UNL d   1     -48.362  28.732  35.014  0.00  0.00     0.058 A 
ATOM     10  C   UNL d   1     -47.770  28.719  35.587  0.00  0.00     0.006 A 
ATOM     11  C   UNL d   1     -47.375  29.415  35.787  0.00  0.00     0.012 A 
ATOM     12  C   UNL d   1     -47.572  30.124  35.415  0.00  0.00     0.058 A 
ATOM     13  C   UNL d   1     -48.164  30.135  34.843  0.00  0.00     0.012 A 
ATOM     14 CL   UNL d   1     -47.177  30.820  35.616  0.00  0.00    -0.082 Cl
ATOM     15  C   UNL d   1     -48.559  29.439  34.643  0.00  0.00     0.006 A 
ENDBRANCH   7   9
ENDBRANCH   2   6
BRANCH   3  16
ATOM     16  C   UNL d   1     -51.016  25.955  33.489  0.00  0.00     0.036 A 
ATOM     17  C   UNL d   1     -51.082  25.138  33.398  0.00  0.00     0.003 A 
ATOM     18  C   UNL d   1     -51.834  24.792  33.306  0.00  0.00     0.000 A 
ATOM     19  C   UNL d   1     -52.515  25.268  33.306  0.00  0.00     0.000 A 
ATOM     20  C   UNL d   1     -52.439  26.088  33.398  0.00  0.00     0.000 A 
ATOM     21  C   UNL d   1     -51.696  26.431  33.489  0.00  0.00     0.003 A 
ENDBRANCH   3  16
TORSDOF 3
ENDMDL
