MODEL 1
REMARK VINA RESULT:      39.3      0.000      0.000
REMARK  7 active torsions:
REMARK  status: ('A' for Active; 'I' for Inactive)
REMARK    1  A    between atoms: S_10  and  C_5 
REMARK    2  A    between atoms: C_11  and  N_8 
REMARK    3  A    between atoms: C_15  and  S_10 
REMARK    4  A    between atoms: C_19  and  C_11 
REMARK    5  A    between atoms: C_14  and  C_15 
REMARK    6  A    between atoms: C_17  and  C_14 
REMARK    7  A    between atoms: C_20  and  C_19 
ROOT
ATOM      1  C   UNL d   1      44.420 -15.407  44.850  0.00  0.00     0.174 A 
ATOM      2  C   UNL d   1      44.800 -14.675  44.867  0.00  0.00     0.159 A 
ATOM      3  N   UNL d   1      44.991 -15.994  44.832  0.00  0.00    -0.203 NA
ATOM      4  N   UNL d   1      43.581 -15.445  44.852  0.00  0.00    -0.239 N 
ATOM      5  C   UNL d   1      45.718 -15.588  44.840  0.00  0.00     0.181 A 
ATOM      6  C   UNL d   1      43.142 -14.780  44.870  0.00  0.00     0.358 A 
ATOM      7  N   UNL d   1      43.537 -14.020  44.889  0.00  0.00    -0.152 NA
ATOM      8  N   UNL d   1      45.597 -14.827  44.861  0.00  0.00    -0.279 N 
ATOM      9  C   UNL d   1      44.348 -13.966  44.887  0.00  0.00     0.302 A 
ATOM     10  O   UNL d   1      42.314 -14.843  44.872  0.00  0.00    -0.244 OA
ATOM     11  O   UNL d   1      44.704 -13.222  44.905  0.00  0.00    -0.263 OA
ATOM     12  C   UNL d   1      43.177 -16.164  44.834  0.00  0.00     0.105 C 
ENDROOT
BRANCH   5  13
ATOM     13  S   UNL d   1      46.470 -15.953  44.828  0.00  0.00    -0.046 SA
BRANCH  13  14
ATOM     14  C   UNL d   1      46.538 -16.771  44.864  0.00  0.00     0.080 C 
BRANCH  14  15
ATOM     15  C   UNL d   1      46.548 -17.221  44.165  0.00  0.00     0.202 C 
ATOM     16  O   UNL d   1      46.621 -16.839  43.454  0.00  0.00    -0.286 OA
BRANCH  15  17
ATOM     17  C   UNL d   1      46.484 -18.042  44.204  0.00  0.00     0.040 A 
ATOM     18  C   UNL d   1      46.556 -18.433  44.913  0.00  0.00     0.003 A 
ATOM     19  C   UNL d   1      46.492 -19.254  44.951  0.00  0.00     0.000 A 
ATOM     20  C   UNL d   1      46.351 -19.699  44.258  0.00  0.00     0.000 A 
ATOM     21  C   UNL d   1      46.280 -19.290  43.549  0.00  0.00     0.000 A 
ATOM     22  C   UNL d   1      46.345 -18.473  43.514  0.00  0.00     0.003 A 
ENDBRANCH  15  17
ENDBRANCH  14  15
ENDBRANCH  13  14
ENDBRANCH   5  13
BRANCH   8  23
ATOM     23  C   UNL d   1      46.215 -14.242  44.873  0.00  0.00     0.082 C 
BRANCH  23  24
ATOM     24  C   UNL d   1      46.468 -13.864  44.187  0.00  0.00     0.019 C 
BRANCH  24  25
ATOM     25  C   UNL d   1      46.417 -13.078  44.104  0.00  0.00     0.002 C 
ATOM     26  C   UNL d   1      46.133 -12.759  43.398  0.00  0.00     0.000 C 
ATOM     27  C   UNL d   1      46.634 -12.588  44.690  0.00  0.00     0.000 C 
ENDBRANCH  24  25
ENDBRANCH  23  24
ENDBRANCH   8  23
TORSDOF 7
ENDMDL
