MODEL 1
REMARK VINA RESULT:      34.0      0.000      0.000
REMARK  4 active torsions:
REMARK  status: ('A' for Active; 'I' for Inactive)
REMARK    1  A    between atoms: S_9  and  C_3 
REMARK    2  A    between atoms: C_12  and  S_9 
REMARK    3  A    between atoms: C_11  and  C_12 
REMARK    4  A    between atoms: O_16  and  C_11 
ROOT
ATOM      1  C   UNL d   1     -51.362  24.146  33.436  0.00  0.00     0.155 A 
ATOM      2  C   UNL d   1     -51.889  24.782  33.370  0.00  0.00     0.107 A 
ATOM      3  C   UNL d   1     -50.786  25.685  33.350  0.00  0.00     0.182 A 
ATOM      4  N   UNL d   1     -50.262  25.058  33.415  0.00  0.00    -0.250 N 
ATOM      5  N   UNL d   1     -51.598  25.557  33.327  0.00  0.00    -0.220 NA
ATOM      6  C   UNL d   1     -50.554  24.282  33.458  0.00  0.00     0.285 A 
ATOM      7  N   UNL d   1     -51.803  23.450  33.468  0.00  0.00    -0.239 NA
ATOM      8  C   UNL d   1     -52.655  24.485  33.361  0.00  0.00     0.037 A 
ATOM      9  C   UNL d   1     -52.606  23.654  33.422  0.00  0.00     0.083 A 
ATOM     10  O   UNL d   1     -50.019  23.650  33.523  0.00  0.00    -0.265 OA
ATOM     11  C   UNL d   1     -49.446  25.198  33.437  0.00  0.00     0.104 C 
ATOM     12  C   UNL d   1     -53.392  24.847  33.307  0.00  0.00     0.003 A 
ATOM     13  C   UNL d   1     -53.295  23.196  33.427  0.00  0.00     0.019 A 
ATOM     14  C   UNL d   1     -54.081  24.389  33.312  0.00  0.00     0.000 A 
ATOM     15  C   UNL d   1     -54.029  23.568  33.372  0.00  0.00     0.002 A 
ENDROOT
BRANCH   3  16
ATOM     16  S   UNL d   1     -50.493  26.457  33.307  0.00  0.00    -0.044 SA
BRANCH  16  17
ATOM     17  C   UNL d   1     -50.919  27.083  33.635  0.00  0.00     0.095 C 
ATOM     18  C   UNL d   1     -51.738  27.032  33.706  0.00  0.00     0.013 C 
BRANCH  17  19
ATOM     19  C   UNL d   1     -50.518  27.757  33.888  0.00  0.00     0.302 C 
ATOM     20  O   UNL d   1     -50.020  27.721  34.527  0.00  0.00    -0.259 OA
BRANCH  19  21
ATOM     21  O   UNL d   1     -50.622  28.477  33.491  0.00  0.00    -0.295 OA
ATOM     22  C   UNL d   1     -49.996  29.020  33.443  0.00  0.00     0.185 C 
ENDBRANCH  19  21
ENDBRANCH  17  19
ENDBRANCH  16  17
ENDBRANCH   3  16
TORSDOF 4
ENDMDL
