MODEL 1
REMARK VINA RESULT:       6.4      0.000      0.000
REMARK  4 active torsions:
REMARK  status: ('A' for Active; 'I' for Inactive)
REMARK       I    between atoms: C_4  and  N_10 
REMARK    1  A    between atoms: C_7  and  C_4 
REMARK    2  A    between atoms: C_11  and  C_5 
REMARK    3  A    between atoms: N_10  and  C_13 
REMARK    4  A    between atoms: C_13  and  C_11 
ROOT
ATOM      1  C   UNL d   1      46.273 -17.847  43.507  0.00  0.00     0.279 C 
ATOM      2  O   UNL d   1      46.384 -17.418  42.812  0.00  0.00    -0.265 OA
ATOM      3  N   UNL d   1      46.058 -17.458  44.207  0.00  0.00    -0.206 NA
ENDROOT
BRANCH   1   4
ATOM      4  C   UNL d   1      46.377 -18.681  43.509  0.00  0.00     0.058 A 
ATOM      5  C   UNL d   1      46.311 -19.107  42.806  0.00  0.00     0.005 A 
ATOM      6  C   UNL d   1      46.410 -19.915  42.801  0.00  0.00     0.000 A 
ATOM      7  C   UNL d   1      46.342 -20.330  42.091  0.00  0.00     0.000 C 
ATOM      8  C   UNL d   1      46.579 -20.309  43.503  0.00  0.00     0.000 A 
ATOM      9  C   UNL d   1      46.647 -19.895  44.210  0.00  0.00     0.000 A 
ATOM     10  C   UNL d   1      46.548 -19.081  44.222  0.00  0.00     0.005 A 
ENDBRANCH   1   4
BRANCH   3  11
ATOM     11  C   UNL d   1      45.957 -16.654  44.208  0.00  0.00     0.104 C 
BRANCH  11  12
ATOM     12  C   UNL d   1      45.714 -16.269  44.900  0.00  0.00     0.040 C 
BRANCH  12  13
ATOM     13  C   UNL d   1      45.487 -15.491  44.876  0.00  0.00     0.090 A 
ATOM     14  N   UNL d   1      46.053 -14.887  44.833  0.00  0.00    -0.238 NA
ATOM     15  C   UNL d   1      45.663 -14.168  44.816  0.00  0.00     0.111 A 
ATOM     16  S   UNL d   1      44.858 -14.310  44.848  0.00  0.00    -0.066 SA
ATOM     17  C   UNL d   1      46.015 -13.408  44.774  0.00  0.00     0.028 C 
ATOM     18  C   UNL d   1      44.742 -15.128  44.884  0.00  0.00     0.056 A 
ENDBRANCH  12  13
ENDBRANCH  11  12
ENDBRANCH   3  11
TORSDOF 4
ENDMDL
MODEL 2
REMARK VINA RESULT:       7.9      1.667      4.917
REMARK  4 active torsions:
REMARK  status: ('A' for Active; 'I' for Inactive)
REMARK       I    between atoms: C_4  and  N_10 
REMARK    1  A    between atoms: C_7  and  C_4 
REMARK    2  A    between atoms: C_11  and  C_5 
REMARK    3  A    between atoms: N_10  and  C_13 
REMARK    4  A    between atoms: C_13  and  C_11 
ROOT
ATOM      1  C   UNL d   1      45.405 -15.509  44.380  0.00  0.00     0.279 C 
ATOM      2  O   UNL d   1      44.649 -15.804  44.524  0.00  0.00    -0.265 OA
ATOM      3  N   UNL d   1      46.030 -16.026  44.212  0.00  0.00    -0.206 NA
ENDROOT
BRANCH   1   4
ATOM      4  C   UNL d   1      45.545 -14.680  44.403  0.00  0.00     0.058 A 
ATOM      5  C   UNL d   1      45.135 -14.177  43.894  0.00  0.00     0.005 A 
ATOM      6  C   UNL d   1      45.267 -13.374  43.911  0.00  0.00     0.000 A 
ATOM      7  C   UNL d   1      44.850 -12.881  43.397  0.00  0.00     0.000 C 
ATOM      8  C   UNL d   1      45.813 -13.062  44.441  0.00  0.00     0.000 A 
ATOM      9  C   UNL d   1      46.227 -13.553  44.953  0.00  0.00     0.000 A 
ATOM     10  C   UNL d   1      46.100 -14.363  44.941  0.00  0.00     0.005 A 
ENDBRANCH   1   4
BRANCH   3  11
ATOM     11  C   UNL d   1      45.897 -16.826  44.189  0.00  0.00     0.104 C 
BRANCH  11  12
ATOM     12  C   UNL d   1      46.251 -17.287  43.598  0.00  0.00     0.040 C 
BRANCH  12  13
ATOM     13  C   UNL d   1      46.354 -18.083  43.709  0.00  0.00     0.090 A 
ATOM     14  N   UNL d   1      46.222 -18.616  43.089  0.00  0.00    -0.238 NA
ATOM     15  C   UNL d   1      46.370 -19.373  43.363  0.00  0.00     0.111 A 
ATOM     16  S   UNL d   1      46.594 -19.324  44.149  0.00  0.00    -0.066 SA
ATOM     17  C   UNL d   1      46.307 -20.086  42.926  0.00  0.00     0.028 C 
ATOM     18  C   UNL d   1      46.586 -18.527  44.369  0.00  0.00     0.056 A 
ENDBRANCH  12  13
ENDBRANCH  11  12
ENDBRANCH   3  11
TORSDOF 4
ENDMDL
