MODEL 1
REMARK VINA RESULT:      -8.2      0.000      0.000
REMARK  6 active torsions:
REMARK  status: ('A' for Active; 'I' for Inactive)
REMARK    1  A    between atoms: C_2  and  S_1 
REMARK    2  A    between atoms: N_5  and  S_1 
REMARK    3  A    between atoms: C_15  and  N_5 
REMARK    4  A    between atoms: C_7  and  C_6 
REMARK    5  A    between atoms: C_20  and  C_15 
REMARK    6  A    between atoms: O_19  and  C_20 
ROOT
ATOM      1  C   UNL d   1      53.014  31.484  53.101  0.00  0.00     0.105 A 
ATOM      2  C   UNL d   1      53.036  33.052  53.635  0.00  0.00     0.000 A 
ATOM      3  C   UNL d   1      53.734  31.843  53.298  0.00  0.00     0.013 A 
ATOM      4  C   UNL d   1      52.309  31.907  53.170  0.00  0.00     0.013 A 
ATOM      5  C   UNL d   1      52.320  32.693  53.438  0.00  0.00     0.001 A 
ATOM      6  C   UNL d   1      53.745  32.630  53.566  0.00  0.00     0.001 A 
ENDROOT
BRANCH   1   7
ATOM      7  S   UNL d   1      52.995  30.703  52.834  0.00  0.00     0.285 S 
ATOM      8  O   UNL d   1      52.978  29.922  52.575  0.00  0.00    -0.198 OA
ATOM      9  O   UNL d   1      52.848  30.959  52.070  0.00  0.00    -0.198 OA
BRANCH   7  10
ATOM     10  N   UNL d   1      53.144  30.437  53.601  0.00  0.00    -0.155 NA
BRANCH  10  11
ATOM     11  C   UNL d   1      53.164  29.627  53.764  0.00  0.00     0.138 C 
BRANCH  11  12
ATOM     12  C   UNL d   1      53.329  29.368  54.531  0.00  0.00     0.138 C 
BRANCH  12  13
ATOM     13  O   UNL d   1      53.347  28.550  54.696  0.00  0.00    -0.325 OA
ATOM     14  C   UNL d   1      53.413  28.300  55.467  0.00  0.00     0.182 C 
ENDBRANCH  12  13
ENDBRANCH  11  12
ENDBRANCH  10  11
ENDBRANCH   7  10
ENDBRANCH   1   7
BRANCH   2  15
ATOM     15  C   UNL d   1      53.038  33.832  53.900  0.00  0.00     0.000 A 
ATOM     16  C   UNL d   1      52.787  34.433  53.395  0.00  0.00     0.001 A 
ATOM     17  C   UNL d   1      52.784  35.212  53.643  0.00  0.00     0.011 A 
ATOM     18  C   UNL d   1      53.038  35.401  54.417  0.00  0.00     0.058 A 
ATOM     19  C   UNL d   1      53.289  34.799  54.922  0.00  0.00     0.011 A 
ATOM     20 CL   UNL d   1      53.038  36.178  54.673  0.00  0.00    -0.082 Cl
ATOM     21  C   UNL d   1      53.289  34.015  54.664  0.00  0.00     0.001 A 
ENDBRANCH   2  15
TORSDOF 6
ENDMDL
MODEL 2
REMARK VINA RESULT:      -8.0      3.123      4.551
REMARK  6 active torsions:
REMARK  status: ('A' for Active; 'I' for Inactive)
REMARK    1  A    between atoms: C_2  and  S_1 
REMARK    2  A    between atoms: N_5  and  S_1 
REMARK    3  A    between atoms: C_15  and  N_5 
REMARK    4  A    between atoms: C_7  and  C_6 
REMARK    5  A    between atoms: C_20  and  C_15 
REMARK    6  A    between atoms: O_19  and  C_20 
ROOT
ATOM      1  C   UNL d   1      51.147  34.130  52.695  0.00  0.00     0.105 A 
ATOM      2  C   UNL d   1      52.507  33.901  53.613  0.00  0.00     0.000 A 
ATOM      3  C   UNL d   1      51.196  33.480  53.206  0.00  0.00     0.013 A 
ATOM      4  C   UNL d   1      51.774  34.663  52.643  0.00  0.00     0.013 A 
ATOM      5  C   UNL d   1      52.456  34.548  53.104  0.00  0.00     0.001 A 
ATOM      6  C   UNL d   1      51.878  33.365  53.666  0.00  0.00     0.001 A 
ENDROOT
BRANCH   1   7
ATOM      7  S   UNL d   1      50.472  34.250  52.234  0.00  0.00     0.285 S 
ATOM      8  O   UNL d   1      49.797  34.374  51.781  0.00  0.00    -0.198 OA
ATOM      9  O   UNL d   1      50.826  33.869  51.601  0.00  0.00    -0.198 OA
BRANCH   7  10
ATOM     10  N   UNL d   1      50.108  34.636  52.867  0.00  0.00    -0.155 NA
BRANCH  10  11
ATOM     11  C   UNL d   1      49.358  34.970  52.775  0.00  0.00     0.138 C 
BRANCH  11  12
ATOM     12  C   UNL d   1      49.041  35.436  53.378  0.00  0.00     0.138 C 
BRANCH  12  13
ATOM     13  O   UNL d   1      48.298  35.802  53.272  0.00  0.00    -0.325 OA
ATOM     14  C   UNL d   1      48.044  36.354  53.812  0.00  0.00     0.182 C 
ENDBRANCH  12  13
ENDBRANCH  11  12
ENDBRANCH  10  11
ENDBRANCH   7  10
ENDBRANCH   1   7
BRANCH   2  15
ATOM     15  C   UNL d   1      53.185  33.795  54.067  0.00  0.00     0.000 A 
ATOM     16  C   UNL d   1      53.315  34.275  54.724  0.00  0.00     0.001 A 
ATOM     17  C   UNL d   1      53.984  34.181  55.184  0.00  0.00     0.011 A 
ATOM     18  C   UNL d   1      54.543  33.592  54.986  0.00  0.00     0.058 A 
ATOM     19  C   UNL d   1      54.414  33.111  54.328  0.00  0.00     0.011 A 
ATOM     20 CL   UNL d   1      55.215  33.492  55.441  0.00  0.00    -0.082 Cl
ATOM     21  C   UNL d   1      53.735  33.212  53.869  0.00  0.00     0.001 A 
ENDBRANCH   2  15
TORSDOF 6
ENDMDL
MODEL 3
REMARK VINA RESULT:      -7.5      2.710      3.491
REMARK  6 active torsions:
REMARK  status: ('A' for Active; 'I' for Inactive)
REMARK    1  A    between atoms: C_2  and  S_1 
REMARK    2  A    between atoms: N_5  and  S_1 
REMARK    3  A    between atoms: C_15  and  N_5 
REMARK    4  A    between atoms: C_7  and  C_6 
REMARK    5  A    between atoms: C_20  and  C_15 
REMARK    6  A    between atoms: O_19  and  C_20 
ROOT
ATOM      1  C   UNL d   1      52.205  33.003  52.958  0.00  0.00     0.105 A 
ATOM      2  C   UNL d   1      50.842  33.924  52.757  0.00  0.00     0.000 A 
ATOM      3  C   UNL d   1      52.235  33.690  52.497  0.00  0.00     0.013 A 
ATOM      4  C   UNL d   1      51.497  32.777  53.317  0.00  0.00     0.013 A 
ATOM      5  C   UNL d   1      50.813  33.239  53.216  0.00  0.00     0.001 A 
ATOM      6  C   UNL d   1      51.551  34.152  52.396  0.00  0.00     0.001 A 
ENDROOT
BRANCH   1   7
ATOM      7  S   UNL d   1      52.880  32.539  53.063  0.00  0.00     0.285 S 
ATOM      8  O   UNL d   1      53.554  32.082  53.173  0.00  0.00    -0.198 OA
ATOM      9  O   UNL d   1      52.643  32.043  52.457  0.00  0.00    -0.198 OA
BRANCH   7  10
ATOM     10  N   UNL d   1      53.126  33.036  53.676  0.00  0.00    -0.155 NA
BRANCH  10  11
ATOM     11  C   UNL d   1      53.824  32.874  54.087  0.00  0.00     0.138 C 
BRANCH  11  12
ATOM     12  C   UNL d   1      54.069  33.381  54.691  0.00  0.00     0.138 C 
BRANCH  12  13
ATOM     13  O   UNL d   1      54.798  33.245  55.075  0.00  0.00    -0.325 OA
ATOM     14  C   UNL d   1      55.187  33.867  55.425  0.00  0.00     0.182 C 
ENDBRANCH  12  13
ENDBRANCH  11  12
ENDBRANCH  10  11
ENDBRANCH   7  10
ENDBRANCH   1   7
BRANCH   2  15
ATOM     15  C   UNL d   1      50.160  34.376  52.662  0.00  0.00     0.000 A 
ATOM     16  C   UNL d   1      49.756  34.355  51.944  0.00  0.00     0.001 A 
ATOM     17  C   UNL d   1      49.078  34.798  51.834  0.00  0.00     0.011 A 
ATOM     18  C   UNL d   1      48.792  35.278  52.455  0.00  0.00     0.058 A 
ATOM     19  C   UNL d   1      49.196  35.299  53.174  0.00  0.00     0.011 A 
ATOM     20 CL   UNL d   1      48.114  35.725  52.353  0.00  0.00    -0.082 Cl
ATOM     21  C   UNL d   1      49.881  34.848  53.277  0.00  0.00     0.001 A 
ENDBRANCH   2  15
TORSDOF 6
ENDMDL
MODEL 4
REMARK VINA RESULT:      -7.3      2.939      3.527
REMARK  6 active torsions:
REMARK  status: ('A' for Active; 'I' for Inactive)
REMARK    1  A    between atoms: C_2  and  S_1 
REMARK    2  A    between atoms: N_5  and  S_1 
REMARK    3  A    between atoms: C_15  and  N_5 
REMARK    4  A    between atoms: C_7  and  C_6 
REMARK    5  A    between atoms: C_20  and  C_15 
REMARK    6  A    between atoms: O_19  and  C_20 
ROOT
ATOM      1  C   UNL d   1      52.088  33.606  53.132  0.00  0.00     0.105 A 
ATOM      2  C   UNL d   1      50.634  34.195  52.599  0.00  0.00     0.000 A 
ATOM      3  C   UNL d   1      51.395  33.439  53.554  0.00  0.00     0.013 A 
ATOM      4  C   UNL d   1      52.055  34.066  52.448  0.00  0.00     0.013 A 
ATOM      5  C   UNL d   1      51.325  34.361  52.181  0.00  0.00     0.001 A 
ATOM      6  C   UNL d   1      50.666  33.734  53.286  0.00  0.00     0.001 A 
ENDROOT
BRANCH   1   7
ATOM      7  S   UNL d   1      52.817  33.316  53.392  0.00  0.00     0.285 S 
ATOM      8  O   UNL d   1      53.540  33.020  53.647  0.00  0.00    -0.198 OA
ATOM      9  O   UNL d   1      53.025  34.060  53.664  0.00  0.00    -0.198 OA
BRANCH   7  10
ATOM     10  N   UNL d   1      52.614  32.563  53.120  0.00  0.00    -0.155 NA
BRANCH  10  11
ATOM     11  C   UNL d   1      53.119  31.923  53.253  0.00  0.00     0.138 C 
BRANCH  11  12
ATOM     12  C   UNL d   1      52.888  31.165  53.019  0.00  0.00     0.138 C 
BRANCH  12  13
ATOM     13  O   UNL d   1      53.318  30.501  53.287  0.00  0.00    -0.325 OA
ATOM     14  C   UNL d   1      52.960  29.771  53.297  0.00  0.00     0.182 C 
ENDBRANCH  12  13
ENDBRANCH  11  12
ENDBRANCH  10  11
ENDBRANCH   7  10
ENDBRANCH   1   7
BRANCH   2  15
ATOM     15  C   UNL d   1      49.916  34.492  52.328  0.00  0.00     0.000 A 
ATOM     16  C   UNL d   1      49.665  34.313  51.564  0.00  0.00     0.001 A 
ATOM     17  C   UNL d   1      48.953  34.599  51.280  0.00  0.00     0.011 A 
ATOM     18  C   UNL d   1      48.476  35.079  51.770  0.00  0.00     0.058 A 
ATOM     19  C   UNL d   1      48.726  35.258  52.535  0.00  0.00     0.011 A 
ATOM     20 CL   UNL d   1      47.763  35.369  51.494  0.00  0.00    -0.082 Cl
ATOM     21  C   UNL d   1      49.446  34.965  52.814  0.00  0.00     0.001 A 
ENDBRANCH   2  15
TORSDOF 6
ENDMDL
MODEL 5
REMARK VINA RESULT:      -7.2      2.979      4.794
REMARK  6 active torsions:
REMARK  status: ('A' for Active; 'I' for Inactive)
REMARK    1  A    between atoms: C_2  and  S_1 
REMARK    2  A    between atoms: N_5  and  S_1 
REMARK    3  A    between atoms: C_15  and  N_5 
REMARK    4  A    between atoms: C_7  and  C_6 
REMARK    5  A    between atoms: C_20  and  C_15 
REMARK    6  A    between atoms: O_19  and  C_20 
ROOT
ATOM      1  C   UNL d   1      54.357  33.118  54.561  0.00  0.00     0.105 A 
ATOM      2  C   UNL d   1      53.743  31.697  53.971  0.00  0.00     0.000 A 
ATOM      3  C   UNL d   1      54.506  32.898  53.776  0.00  0.00     0.013 A 
ATOM      4  C   UNL d   1      53.904  32.630  55.048  0.00  0.00     0.013 A 
ATOM      5  C   UNL d   1      53.596  31.917  54.752  0.00  0.00     0.001 A 
ATOM      6  C   UNL d   1      54.198  32.185  53.481  0.00  0.00     0.001 A 
ENDROOT
BRANCH   1   7
ATOM      7  S   UNL d   1      54.660  33.825  54.862  0.00  0.00     0.285 S 
ATOM      8  O   UNL d   1      54.954  34.533  55.159  0.00  0.00    -0.198 OA
ATOM      9  O   UNL d   1      55.334  33.437  55.119  0.00  0.00    -0.198 OA
BRANCH   7  10
ATOM     10  N   UNL d   1      53.983  34.224  54.607  0.00  0.00    -0.155 NA
BRANCH  10  11
ATOM     11  C   UNL d   1      53.866  35.017  54.808  0.00  0.00     0.138 C 
BRANCH  11  12
ATOM     12  C   UNL d   1      53.229  35.431  54.486  0.00  0.00     0.138 C 
BRANCH  12  13
ATOM     13  O   UNL d   1      53.035  36.187  54.781  0.00  0.00    -0.325 OA
ATOM     14  C   UNL d   1      52.254  36.407  54.833  0.00  0.00     0.182 C 
ENDBRANCH  12  13
ENDBRANCH  11  12
ENDBRANCH  10  11
ENDBRANCH   7  10
ENDBRANCH   1   7
BRANCH   2  15
ATOM     15  C   UNL d   1      53.435  30.989  53.685  0.00  0.00     0.000 A 
ATOM     16  C   UNL d   1      52.956  30.996  53.015  0.00  0.00     0.001 A 
ATOM     17  C   UNL d   1      52.642  30.302  52.718  0.00  0.00     0.011 A 
ATOM     18  C   UNL d   1      52.809  29.577  53.100  0.00  0.00     0.058 A 
ATOM     19  C   UNL d   1      53.288  29.569  53.771  0.00  0.00     0.011 A 
ATOM     20 CL   UNL d   1      52.499  28.878  52.810  0.00  0.00    -0.082 Cl
ATOM     21  C   UNL d   1      53.601  30.275  54.064  0.00  0.00     0.001 A 
ENDBRANCH   2  15
TORSDOF 6
ENDMDL
MODEL 6
REMARK VINA RESULT:      -6.6      2.849      4.693
REMARK  6 active torsions:
REMARK  status: ('A' for Active; 'I' for Inactive)
REMARK    1  A    between atoms: C_2  and  S_1 
REMARK    2  A    between atoms: N_5  and  S_1 
REMARK    3  A    between atoms: C_15  and  N_5 
REMARK    4  A    between atoms: C_7  and  C_6 
REMARK    5  A    between atoms: C_20  and  C_15 
REMARK    6  A    between atoms: O_19  and  C_20 
ROOT
ATOM      1  C   UNL d   1      52.791  33.204  53.283  0.00  0.00     0.105 A 
ATOM      2  C   UNL d   1      53.045  31.609  53.656  0.00  0.00     0.000 A 
ATOM      3  C   UNL d   1      52.571  32.613  52.745  0.00  0.00     0.013 A 
ATOM      4  C   UNL d   1      53.137  32.998  54.003  0.00  0.00     0.013 A 
ATOM      5  C   UNL d   1      53.264  32.198  54.191  0.00  0.00     0.001 A 
ATOM      6  C   UNL d   1      52.698  31.814  52.933  0.00  0.00     0.001 A 
ENDROOT
BRANCH   1   7
ATOM      7  S   UNL d   1      52.668  34.000  53.104  0.00  0.00     0.285 S 
ATOM      8  O   UNL d   1      52.538  34.792  52.925  0.00  0.00    -0.198 OA
ATOM      9  O   UNL d   1      53.472  34.145  53.159  0.00  0.00    -0.198 OA
BRANCH   7  10
ATOM     10  N   UNL d   1      51.856  33.862  53.046  0.00  0.00    -0.155 NA
BRANCH  10  11
ATOM     11  C   UNL d   1      51.331  34.494  52.957  0.00  0.00     0.138 C 
BRANCH  11  12
ATOM     12  C   UNL d   1      50.536  34.345  52.794  0.00  0.00     0.138 C 
BRANCH  12  13
ATOM     13  O   UNL d   1      49.955  34.899  53.025  0.00  0.00    -0.325 OA
ATOM     14  C   UNL d   1      49.233  34.899  52.653  0.00  0.00     0.182 C 
ENDBRANCH  12  13
ENDBRANCH  11  12
ENDBRANCH  10  11
ENDBRANCH   7  10
ENDBRANCH   1   7
BRANCH   2  15
ATOM     15  C   UNL d   1      53.174  30.820  53.849  0.00  0.00     0.000 A 
ATOM     16  C   UNL d   1      53.290  30.607  54.637  0.00  0.00     0.001 A 
ATOM     17  C   UNL d   1      53.419  29.827  54.845  0.00  0.00     0.011 A 
ATOM     18  C   UNL d   1      53.435  29.239  54.251  0.00  0.00     0.058 A 
ATOM     19  C   UNL d   1      53.319  29.450  53.463  0.00  0.00     0.011 A 
ATOM     20 CL   UNL d   1      53.564  28.456  54.450  0.00  0.00    -0.082 Cl
ATOM     21  C   UNL d   1      53.189  30.241  53.261  0.00  0.00     0.001 A 
ENDBRANCH   2  15
TORSDOF 6
ENDMDL
