MODEL 1
REMARK VINA RESULT:      -5.8      0.000      0.000
REMARK  3 active torsions:
REMARK  status: ('A' for Active; 'I' for Inactive)
REMARK    1  A    between atoms: C_8  and  C_2 
REMARK    2  A    between atoms: O_6  and  C_8 
REMARK    3  A    between atoms: C_7  and  O_6 
ROOT
ATOM      1  N   UNL d   1     -41.150-123.502 -51.184  0.00  0.00    -0.224 NA
ATOM      2  C   UNL d   1     -41.481-122.969 -51.717  0.00  0.00     0.188 A 
ATOM      3  N   UNL d   1     -41.996-122.495 -51.283  0.00  0.00    -0.224 NA
ATOM      4  C   UNL d   1     -41.451-123.361 -50.448  0.00  0.00     0.101 A 
ATOM      5  C   UNL d   1     -41.980-122.731 -50.510  0.00  0.00     0.101 A 
ATOM      6  C   UNL d   1     -41.340-123.694 -49.720  0.00  0.00     0.021 A 
ATOM      7  C   UNL d   1     -42.378-122.458 -49.841  0.00  0.00     0.021 A 
ATOM      8  C   UNL d   1     -42.246-122.817 -49.109  0.00  0.00     0.002 A 
ATOM      9  C   UNL d   1     -41.717-123.446 -49.047  0.00  0.00     0.002 A 
ENDROOT
BRANCH   2  10
ATOM     10  C   UNL d   1     -41.617-122.613 -52.424  0.00  0.00     0.161 C 
BRANCH  10  11
ATOM     11  O   UNL d   1     -41.447-122.991 -53.065  0.00  0.00    -0.302 OA
BRANCH  11  12
ATOM     12  C   UNL d   1     -41.660-122.674 -53.825  0.00  0.00     0.100 A 
ATOM     13  C   UNL d   1     -41.496-123.087 -54.489  0.00  0.00     0.023 A 
ATOM     14  C   UNL d   1     -41.122-123.817 -54.453  0.00  0.00     0.002 C 
ATOM     15  C   UNL d   1     -41.708-122.769 -55.226  0.00  0.00     0.002 A 
ATOM     16  C   UNL d   1     -42.083-122.035 -55.262  0.00  0.00     0.000 A 
ATOM     17  C   UNL d   1     -42.259-121.593 -54.564  0.00  0.00     0.002 A 
ATOM     18  C   UNL d   1     -42.034-121.939 -53.832  0.00  0.00     0.025 A 
ENDBRANCH  11  12
ENDBRANCH  10  11
ENDBRANCH   2  10
TORSDOF 3
ENDMDL
MODEL 2
REMARK VINA RESULT:      -5.2      0.449      1.308
REMARK  3 active torsions:
REMARK  status: ('A' for Active; 'I' for Inactive)
REMARK    1  A    between atoms: C_8  and  C_2 
REMARK    2  A    between atoms: O_6  and  C_8 
REMARK    3  A    between atoms: C_7  and  O_6 
ROOT
ATOM      1  N   UNL d   1     -42.095-122.216 -51.138  0.00  0.00    -0.224 NA
ATOM      2  C   UNL d   1     -41.723-122.539 -51.797  0.00  0.00     0.188 A 
ATOM      3  N   UNL d   1     -41.299-123.192 -51.528  0.00  0.00    -0.224 NA
ATOM      4  C   UNL d   1     -41.907-122.655 -50.487  0.00  0.00     0.101 A 
ATOM      5  C   UNL d   1     -41.409-123.265 -50.731  0.00  0.00     0.101 A 
ATOM      6  C   UNL d   1     -42.100-122.611 -49.702  0.00  0.00     0.021 A 
ATOM      7  C   UNL d   1     -41.123-123.809 -50.181  0.00  0.00     0.021 A 
ATOM      8  C   UNL d   1     -41.335-123.742 -49.386  0.00  0.00     0.002 A 
ATOM      9  C   UNL d   1     -41.833-123.131 -49.142  0.00  0.00     0.002 A 
ENDROOT
BRANCH   2  10
ATOM     10  C   UNL d   1     -41.510-122.614 -52.568  0.00  0.00     0.161 C 
BRANCH  10  11
ATOM     11  O   UNL d   1     -41.882-122.206 -53.094  0.00  0.00    -0.302 OA
BRANCH  11  12
ATOM     12  C   UNL d   1     -41.775-122.364 -53.922  0.00  0.00     0.100 A 
ATOM     13  C   UNL d   1     -42.166-121.927 -54.466  0.00  0.00     0.023 A 
ATOM     14  C   UNL d   1     -42.673-121.323 -54.239  0.00  0.00     0.002 C 
ATOM     15  C   UNL d   1     -42.054-122.090 -55.272  0.00  0.00     0.002 A 
ATOM     16  C   UNL d   1     -41.545-122.698 -55.500  0.00  0.00     0.000 A 
ATOM     17  C   UNL d   1     -41.129-123.163 -54.931  0.00  0.00     0.002 A 
ATOM     18  C   UNL d   1     -41.260-122.977 -54.123  0.00  0.00     0.025 A 
ENDBRANCH  11  12
ENDBRANCH  10  11
ENDBRANCH   2  10
TORSDOF 3
ENDMDL
MODEL 3
REMARK VINA RESULT:      -4.6      0.723      1.564
REMARK  3 active torsions:
REMARK  status: ('A' for Active; 'I' for Inactive)
REMARK    1  A    between atoms: C_8  and  C_2 
REMARK    2  A    between atoms: O_6  and  C_8 
REMARK    3  A    between atoms: C_7  and  O_6 
ROOT
ATOM      1  N   UNL d   1     -42.480-122.759 -50.353  0.00  0.00    -0.224 NA
ATOM      2  C   UNL d   1     -41.906-123.021 -50.881  0.00  0.00     0.188 A 
ATOM      3  N   UNL d   1     -41.356-123.443 -50.437  0.00  0.00    -0.224 NA
ATOM      4  C   UNL d   1     -42.290-123.011 -49.610  0.00  0.00     0.101 A 
ATOM      5  C   UNL d   1     -41.587-123.439 -49.662  0.00  0.00     0.101 A 
ATOM      6  C   UNL d   1     -42.633-122.929 -48.882  0.00  0.00     0.021 A 
ATOM      7  C   UNL d   1     -41.253-123.769 -48.984  0.00  0.00     0.021 A 
ATOM      8  C   UNL d   1     -41.623-123.671 -48.253  0.00  0.00     0.002 A 
ATOM      9  C   UNL d   1     -42.327-123.243 -48.200  0.00  0.00     0.002 A 
ENDROOT
BRANCH   2  10
ATOM     10  C   UNL d   1     -41.537-123.122 -51.588  0.00  0.00     0.161 C 
BRANCH  10  11
ATOM     11  O   UNL d   1     -41.653-122.610 -52.140  0.00  0.00    -0.302 OA
BRANCH  11  12
ATOM     12  C   UNL d   1     -41.541-122.819 -52.957  0.00  0.00     0.100 A 
ATOM     13  C   UNL d   1     -41.720-122.294 -53.532  0.00  0.00     0.023 A 
ATOM     14  C   UNL d   1     -42.012-121.548 -53.349  0.00  0.00     0.002 C 
ATOM     15  C   UNL d   1     -41.608-122.508 -54.325  0.00  0.00     0.002 A 
ATOM     16  C   UNL d   1     -41.314-123.257 -54.510  0.00  0.00     0.000 A 
ATOM     17  C   UNL d   1     -41.123-123.817 -53.907  0.00  0.00     0.002 A 
ATOM     18  C   UNL d   1     -41.247-123.574 -53.113  0.00  0.00     0.025 A 
ENDBRANCH  11  12
ENDBRANCH  10  11
ENDBRANCH   2  10
TORSDOF 3
ENDMDL
