MODEL 1
REMARK VINA RESULT:      60.5      0.000      0.000
REMARK  4 active torsions:
REMARK  status: ('A' for Active; 'I' for Inactive)
REMARK    1  A    between atoms: N_5  and  C_9 
REMARK    2  A    between atoms: O_11  and  C_8 
REMARK    3  A    between atoms: C_20  and  O_11 
REMARK    4  A    between atoms: C_21  and  C_20 
ROOT
ATOM      1  C   UNL d   1     -52.058  25.469  33.364  0.00  0.00     0.009 A 
ATOM      2  C   UNL d   1     -51.435  24.935  33.387  0.00  0.00     0.046 A 
ATOM      3  C   UNL d   1     -52.832  25.206  33.338  0.00  0.00     0.064 A 
ATOM      4  C   UNL d   1     -52.989  24.398  33.335  0.00  0.00     0.300 A 
ATOM      5  C   UNL d   1     -51.579  24.125  33.385  0.00  0.00     0.105 A 
ATOM      6  O   UNL d   1     -52.371  23.857  33.359  0.00  0.00    -0.273 OA
ATOM      7  C   UNL d   1     -50.650  25.209  33.414  0.00  0.00     0.102 A 
ATOM      8  C   UNL d   1     -50.965  23.584  33.409  0.00  0.00     0.025 A 
ATOM      9  C   UNL d   1     -50.020  24.661  33.438  0.00  0.00     0.025 A 
ATOM     10  O   UNL d   1     -53.775  24.117  33.309  0.00  0.00    -0.259 OA
ATOM     11  C   UNL d   1     -50.186  23.855  33.435  0.00  0.00     0.004 A 
ATOM     12  C   UNL d   1     -51.901  26.281  33.366  0.00  0.00     0.000 A 
ATOM     13  C   UNL d   1     -53.461  25.741  33.314  0.00  0.00     0.005 A 
ATOM     14  C   UNL d   1     -49.555  23.311  33.459  0.00  0.00     0.000 C 
ATOM     15  C   UNL d   1     -52.517  26.830  33.342  0.00  0.00     0.000 A 
ATOM     16  C   UNL d   1     -53.303  26.553  33.316  0.00  0.00     0.000 A 
ENDROOT
BRANCH   7  17
ATOM     17  O   UNL d   1     -50.499  26.009  33.416  0.00  0.00    -0.305 OA
BRANCH  17  18
ATOM     18  C   UNL d   1     -49.722  26.288  33.307  0.00  0.00     0.122 C 
BRANCH  18  19
ATOM     19  C   UNL d   1     -49.466  26.944  33.731  0.00  0.00     0.025 A 
ATOM     20  C   UNL d   1     -49.597  27.702  33.434  0.00  0.00     0.004 A 
ATOM     21  C   UNL d   1     -49.345  28.362  33.848  0.00  0.00     0.024 A 
ATOM     22  C   UNL d   1     -48.959  28.268  34.569  0.00  0.00     0.127 A 
ATOM     23  C   UNL d   1     -48.821  27.516  34.878  0.00  0.00     0.024 A 
ATOM     24  C   UNL d   1     -49.079  26.845  34.451  0.00  0.00     0.004 A 
BRANCH  22  25
ATOM     25  N   UNL d   1     -48.701  28.927  34.994  0.00  0.00    -0.114 N 
ATOM     26  O   UNL d   1     -48.638  29.658  34.634  0.00  0.00    -0.532 OA
ATOM     27  O   UNL d   1     -48.507  28.839  35.792  0.00  0.00    -0.532 OA
ENDBRANCH  22  25
ENDBRANCH  18  19
ENDBRANCH  17  18
ENDBRANCH   7  17
TORSDOF 4
ENDMDL
