MODEL 1
REMARK VINA RESULT:      40.5      0.000      0.000
REMARK  8 active torsions:
REMARK  status: ('A' for Active; 'I' for Inactive)
REMARK    1  A    between atoms: C_3  and  C_1 
REMARK    2  A    between atoms: N_5  and  C_2 
REMARK    3  A    between atoms: N_4  and  C_3 
REMARK    4  A    between atoms: C_10  and  C_3 
REMARK    5  A    between atoms: C_13  and  N_4 
REMARK       I    between atoms: C_6  and  N_5 
REMARK    6  A    between atoms: C_8  and  C_13 
REMARK    7  A    between atoms: O_16  and  C_8 
REMARK    8  A    between atoms: C_21  and  O_16 
ROOT
ATOM      1  C   UNL d   1      14.411  13.559  -1.797  0.00  0.00     0.083 C 
ENDROOT
BRANCH   1   2
ATOM      2  C   UNL d   1      14.010  13.404  -2.501  0.00  0.00     0.036 A 
ATOM      3  C   UNL d   1      13.993  13.949  -3.103  0.00  0.00     0.086 A 
ATOM      4  C   UNL d   1      13.592  13.793  -3.808  0.00  0.00     0.020 A 
ATOM      5  C   UNL d   1      13.209  13.092  -3.909  0.00  0.00     0.008 A 
ATOM      6  C   UNL d   1      13.219  12.514  -3.290  0.00  0.00     0.035 A 
ATOM      7  C   UNL d   1      13.625  12.687  -2.593  0.00  0.00     0.010 A 
ATOM      8 BR   UNL d   1      12.825  11.779  -3.382  0.00  0.00    -0.049 Br
BRANCH   3   9
ATOM      9  N   UNL d   1      14.393  14.686  -3.002  0.00  0.00    -0.208 NA
ATOM     10  C   UNL d   1      14.296  15.286  -3.565  0.00  0.00     0.279 C 
ATOM     11  O   UNL d   1      14.678  15.989  -3.467  0.00  0.00    -0.265 OA
ATOM     12  C   UNL d   1      13.820  15.181  -4.220  0.00  0.00     0.068 C 
ENDBRANCH   3   9
ENDBRANCH   1   2
BRANCH   1  13
ATOM     13  N   UNL d   1      14.739  14.291  -1.648  0.00  0.00    -0.238 NA
BRANCH  13  14
ATOM     14  C   UNL d   1      14.661  14.604  -0.883  0.00  0.00     0.167 C 
BRANCH  14  15
ATOM     15  C   UNL d   1      15.228  15.172  -0.631  0.00  0.00     0.320 C 
ATOM     16  O   UNL d   1      16.050  14.977  -0.690  0.00  0.00    -0.257 OA
BRANCH  15  17
ATOM     17  O   UNL d   1      14.999  15.906  -0.333  0.00  0.00    -0.270 OA
BRANCH  17  18
ATOM     18  C   UNL d   1      15.535  16.493  -0.253  0.00  0.00     0.126 C 
ATOM     19  C   UNL d   1      15.438  17.233  -0.607  0.00  0.00     0.029 C 
ENDBRANCH  17  18
ENDBRANCH  15  17
ENDBRANCH  14  15
ENDBRANCH  13  14
ENDBRANCH   1  13
BRANCH   1  20
ATOM     20  C   UNL d   1      14.483  12.968  -1.232  0.00  0.00     0.018 A 
ATOM     21  C   UNL d   1      15.106  12.428  -1.261  0.00  0.00     0.002 A 
ATOM     22  C   UNL d   1      15.194  11.834  -0.710  0.00  0.00     0.000 A 
ATOM     23  C   UNL d   1      14.612  11.779  -0.084  0.00  0.00     0.000 A 
ATOM     24  C   UNL d   1      13.987  12.316  -0.049  0.00  0.00     0.000 A 
ATOM     25  C   UNL d   1      13.920  12.908  -0.619  0.00  0.00     0.002 A 
ENDBRANCH   1  20
TORSDOF 8
ENDMDL
MODEL 2
REMARK VINA RESULT:      40.8      1.491      3.783
REMARK  8 active torsions:
REMARK  status: ('A' for Active; 'I' for Inactive)
REMARK    1  A    between atoms: C_3  and  C_1 
REMARK    2  A    between atoms: N_5  and  C_2 
REMARK    3  A    between atoms: N_4  and  C_3 
REMARK    4  A    between atoms: C_10  and  C_3 
REMARK    5  A    between atoms: C_13  and  N_4 
REMARK       I    between atoms: C_6  and  N_5 
REMARK    6  A    between atoms: C_8  and  C_13 
REMARK    7  A    between atoms: O_16  and  C_8 
REMARK    8  A    between atoms: C_21  and  O_16 
ROOT
ATOM      1  C   UNL d   1      14.448  13.745  -1.644  0.00  0.00     0.083 C 
ENDROOT
BRANCH   1   2
ATOM      2  C   UNL d   1      14.393  13.091  -1.143  0.00  0.00     0.036 A 
ATOM      3  C   UNL d   1      15.050  12.655  -0.948  0.00  0.00     0.086 A 
ATOM      4  C   UNL d   1      14.995  12.002  -0.447  0.00  0.00     0.020 A 
ATOM      5  C   UNL d   1      14.283  11.785  -0.141  0.00  0.00     0.008 A 
ATOM      6  C   UNL d   1      13.589  12.230  -0.335  0.00  0.00     0.035 A 
ATOM      7  C   UNL d   1      13.663  12.880  -0.838  0.00  0.00     0.010 A 
ATOM      8 BR   UNL d   1      12.840  12.015  -0.024  0.00  0.00    -0.049 Br
BRANCH   3   9
ATOM      9  N   UNL d   1      15.800  12.878  -1.266  0.00  0.00    -0.208 NA
ATOM     10  C   UNL d   1      16.475  12.436  -1.078  0.00  0.00     0.279 C 
ATOM     11  O   UNL d   1      17.190  12.649  -1.381  0.00  0.00    -0.265 OA
ATOM     12  C   UNL d   1      16.430  11.784  -0.587  0.00  0.00     0.068 C 
ENDBRANCH   3   9
ENDBRANCH   1   2
BRANCH   1  13
ATOM     13  N   UNL d   1      14.317  13.676  -2.446  0.00  0.00    -0.238 NA
BRANCH  13  14
ATOM     14  C   UNL d   1      13.532  13.619  -2.709  0.00  0.00     0.167 C 
BRANCH  14  15
ATOM     15  C   UNL d   1      13.392  13.646  -3.538  0.00  0.00     0.320 C 
ATOM     16  O   UNL d   1      13.711  14.293  -3.981  0.00  0.00    -0.257 OA
BRANCH  15  17
ATOM     17  O   UNL d   1      12.955  13.059  -3.920  0.00  0.00    -0.270 OA
BRANCH  17  18
ATOM     18  C   UNL d   1      13.274  12.654  -4.530  0.00  0.00     0.126 C 
ATOM     19  C   UNL d   1      12.977  11.925  -4.781  0.00  0.00     0.029 C 
ENDBRANCH  17  18
ENDBRANCH  15  17
ENDBRANCH  14  15
ENDBRANCH  13  14
ENDBRANCH   1  13
BRANCH   1  20
ATOM     20  C   UNL d   1      14.637  14.480  -1.332  0.00  0.00     0.018 A 
ATOM     21  C   UNL d   1      14.834  15.111  -1.825  0.00  0.00     0.002 A 
ATOM     22  C   UNL d   1      15.025  15.849  -1.534  0.00  0.00     0.000 A 
ATOM     23  C   UNL d   1      15.018  15.958  -0.684  0.00  0.00     0.000 A 
ATOM     24  C   UNL d   1      14.822  15.330  -0.186  0.00  0.00     0.000 A 
ATOM     25  C   UNL d   1      14.632  14.594  -0.506  0.00  0.00     0.002 A 
ENDBRANCH   1  20
TORSDOF 8
ENDMDL
