MODEL 1
REMARK VINA RESULT:      21.0      0.000      0.000
REMARK  3 active torsions:
REMARK  status: ('A' for Active; 'I' for Inactive)
REMARK    1  A    between atoms: C_6  and  N_1 
REMARK    2  A    between atoms: C_7  and  C_6 
REMARK    3  A    between atoms: C_8  and  C_7 
ROOT
ATOM      1  N   UNL d   1     -58.019 -98.757 -44.227  0.00  0.00    -0.305 N 
ATOM      2  C   UNL d   1     -58.478 -98.757 -43.316  0.00  0.00     0.064 A 
ATOM      3  C   UNL d   1     -59.162 -98.756 -43.770  0.00  0.00     0.018 A 
ATOM      4  C   UNL d   1     -58.371 -98.757 -44.971  0.00  0.00     0.064 A 
ATOM      5  C   UNL d   1     -59.100 -98.756 -44.601  0.00  0.00     0.018 A 
ATOM      6  C   UNL d   1     -58.539 -98.757 -42.494  0.00  0.00     0.018 A 
ATOM      7  C   UNL d   1     -59.897 -98.755 -43.422  0.00  0.00     0.002 A 
ATOM      8  C   UNL d   1     -58.309 -98.757 -45.802  0.00  0.00     0.018 A 
ATOM      9  C   UNL d   1     -59.788 -98.755 -45.056  0.00  0.00     0.002 A 
ATOM     10  C   UNL d   1     -59.959 -98.755 -42.588  0.00  0.00     0.000 A 
ATOM     11  C   UNL d   1     -59.285 -98.756 -42.130  0.00  0.00     0.002 A 
ATOM     12  C   UNL d   1     -59.748 -98.755 -45.880  0.00  0.00     0.000 A 
ATOM     13  C   UNL d   1     -59.015 -98.756 -46.244  0.00  0.00     0.002 A 
ENDROOT
BRANCH   1  14
ATOM     14  C   UNL d   1     -57.191 -98.758 -44.178  0.00  0.00     0.086 C 
BRANCH  14  15
ATOM     15  C   UNL d   1     -56.752 -99.282 -44.664  0.00  0.00     0.089 C 
BRANCH  15  16
ATOM     16  C   UNL d   1     -55.926 -99.313 -44.584  0.00  0.00     0.213 C 
ATOM     17  O   UNL d   1     -55.547-100.038 -44.617  0.00  0.00    -0.644 OA
ATOM     18  O   UNL d   1     -55.121 -99.129 -44.485  0.00  0.00    -0.644 OA
ENDBRANCH  15  16
ENDBRANCH  14  15
ENDBRANCH   1  14
TORSDOF 3
ENDMDL
