MODEL 1
REMARK VINA RESULT:      -5.3      0.000      0.000
REMARK  5 active torsions:
REMARK  status: ('A' for Active; 'I' for Inactive)
REMARK    1  A    between atoms: N_5  and  C_1 
REMARK    2  A    between atoms: N_6  and  C_1 
REMARK       I    between atoms: C_2  and  N_3 
REMARK    3  A    between atoms: C_4  and  C_2 
REMARK    4  A    between atoms: N_3  and  N_5 
REMARK    5  A    between atoms: C_11  and  N_6 
ROOT
ATOM      1  N   UNL d   1     -41.996-122.409 -52.073  0.00  0.00    -0.273 N 
ATOM      2  H   UNL d   1     -42.685-121.981 -52.184  0.00  0.00     0.189 HD
ENDROOT
BRANCH   1   3
ATOM      3  N   UNL d   1     -41.818-122.705 -51.316  0.00  0.00    -0.264 N 
ATOM      4  C   UNL d   1     -42.253-122.474 -50.657  0.00  0.00     0.272 C 
ATOM      5  O   UNL d   1     -42.871-121.944 -50.745  0.00  0.00    -0.266 OA
ATOM      6  H   UNL d   1     -41.186-123.247 -51.226  0.00  0.00     0.190 HD
BRANCH   4   7
ATOM      7  C   UNL d   1     -42.073-122.770 -49.910  0.00  0.00     0.058 A 
ATOM      8  C   UNL d   1     -42.659-123.150 -49.458  0.00  0.00     0.011 A 
ATOM      9  C   UNL d   1     -42.468-123.442 -48.712  0.00  0.00     0.035 A 
ATOM     10 BR   UNL d   1     -43.042-123.817 -48.261  0.00  0.00    -0.049 Br
ATOM     11  C   UNL d   1     -41.708-123.360 -48.417  0.00  0.00     0.007 A 
ATOM     12  C   UNL d   1     -41.125-122.986 -48.860  0.00  0.00     0.001 A 
ATOM     13  C   UNL d   1     -41.313-122.689 -49.615  0.00  0.00     0.005 A 
ENDBRANCH   4   7
ENDBRANCH   1   3
BRANCH   1  14
ATOM     14  C   UNL d   1     -41.484-122.548 -52.696  0.00  0.00     0.191 C 
ATOM     15  S   UNL d   1     -41.129-123.286 -52.795  0.00  0.00    -0.039 SA
BRANCH  14  16
ATOM     16  N   UNL d   1     -41.327-121.933 -53.228  0.00  0.00    -0.331 N 
ATOM     17  H   UNL d   1     -40.869-121.294 -53.000  0.00  0.00     0.168 HD
BRANCH  16  18
ATOM     18  C   UNL d   1     -41.638-121.979 -53.978  0.00  0.00     0.058 A 
ATOM     19  C   UNL d   1     -41.244-122.444 -54.555  0.00  0.00     0.017 A 
ATOM     20  C   UNL d   1     -41.554-122.496 -55.321  0.00  0.00     0.002 A 
ATOM     21  C   UNL d   1     -42.246-122.094 -55.519  0.00  0.00     0.000 A 
ATOM     22  C   UNL d   1     -42.639-121.629 -54.944  0.00  0.00     0.002 A 
ATOM     23  C   UNL d   1     -42.330-121.576 -54.177  0.00  0.00     0.017 A 
ENDBRANCH  16  18
ENDBRANCH  14  16
ENDBRANCH   1  14
TORSDOF 5
ENDMDL
MODEL 2
REMARK VINA RESULT:      -4.8      1.983      5.047
REMARK  5 active torsions:
REMARK  status: ('A' for Active; 'I' for Inactive)
REMARK    1  A    between atoms: N_5  and  C_1 
REMARK    2  A    between atoms: N_6  and  C_1 
REMARK       I    between atoms: C_2  and  N_3 
REMARK    3  A    between atoms: C_4  and  C_2 
REMARK    4  A    between atoms: N_3  and  N_5 
REMARK    5  A    between atoms: C_11  and  N_6 
ROOT
ATOM      1  N   UNL d   1     -41.749-122.385 -50.939  0.00  0.00    -0.273 N 
ATOM      2  H   UNL d   1     -41.362-121.676 -50.802  0.00  0.00     0.189 HD
ENDROOT
BRANCH   1   3
ATOM      3  N   UNL d   1     -41.776-122.691 -51.712  0.00  0.00    -0.264 N 
ATOM      4  C   UNL d   1     -41.465-122.270 -52.347  0.00  0.00     0.272 C 
ATOM      5  O   UNL d   1     -41.123-121.537 -52.218  0.00  0.00    -0.266 OA
ATOM      6  H   UNL d   1     -42.126-123.440 -51.843  0.00  0.00     0.190 HD
BRANCH   4   7
ATOM      7  C   UNL d   1     -41.495-122.578 -53.109  0.00  0.00     0.058 A 
ATOM      8  C   UNL d   1     -41.815-122.126 -53.731  0.00  0.00     0.011 A 
ATOM      9  C   UNL d   1     -41.839-122.444 -54.490  0.00  0.00     0.035 A 
ATOM     10 BR   UNL d   1     -42.153-122.002 -55.108  0.00  0.00    -0.049 Br
ATOM     11  C   UNL d   1     -41.552-123.197 -54.635  0.00  0.00     0.007 A 
ATOM     12  C   UNL d   1     -41.235-123.648 -54.023  0.00  0.00     0.001 A 
ATOM     13  C   UNL d   1     -41.208-123.331 -53.254  0.00  0.00     0.005 A 
ENDBRANCH   4   7
ENDBRANCH   1   3
BRANCH   1  14
ATOM     14  C   UNL d   1     -42.106-122.792 -50.325  0.00  0.00     0.191 C 
ATOM     15  S   UNL d   1     -42.886-122.631 -50.109  0.00  0.00    -0.039 SA
BRANCH  14  16
ATOM     16  N   UNL d   1     -41.670-123.370 -49.923  0.00  0.00    -0.331 N 
ATOM     17  H   UNL d   1     -41.201-123.898 -50.338  0.00  0.00     0.168 HD
BRANCH  16  18
ATOM     18  C   UNL d   1     -41.720-123.400 -49.112  0.00  0.00     0.058 A 
ATOM     19  C   UNL d   1     -41.124-123.028 -48.654  0.00  0.00     0.017 A 
ATOM     20  C   UNL d   1     -41.167-123.055 -47.827  0.00  0.00     0.002 A 
ATOM     21  C   UNL d   1     -41.791-123.444 -47.454  0.00  0.00     0.000 A 
ATOM     22  C   UNL d   1     -42.386-123.815 -47.912  0.00  0.00     0.002 A 
ATOM     23  C   UNL d   1     -42.344-123.789 -48.739  0.00  0.00     0.017 A 
ENDBRANCH  16  18
ENDBRANCH  14  16
ENDBRANCH   1  14
TORSDOF 5
ENDMDL
