MODEL 1
REMARK VINA RESULT:      -8.5      0.000      0.000
REMARK  6 active torsions:
REMARK  status: ('A' for Active; 'I' for Inactive)
REMARK    1  A    between atoms: N_2  and  S_1 
REMARK    2  A    between atoms: C_6  and  S_1 
REMARK    3  A    between atoms: S_9  and  C_3 
REMARK    4  A    between atoms: N_4  and  C_10 
REMARK    5  A    between atoms: C_19  and  S_9 
REMARK    6  A    between atoms: C_21  and  C_19 
ROOT
ATOM      1  N   UNL d   1      53.341  31.858  53.355  0.00  0.00    -0.208 N 
ATOM      2  C   UNL d   1      52.957  32.575  53.529  0.00  0.00     0.189 A 
ATOM      3  N   UNL d   1      53.375  32.952  54.136  0.00  0.00    -0.219 NA
ATOM      4  C   UNL d   1      54.001  31.795  53.859  0.00  0.00     0.114 A 
ATOM      5  C   UNL d   1      54.018  32.469  54.336  0.00  0.00     0.121 A 
ENDROOT
BRANCH   1   6
ATOM      6  S   UNL d   1      53.106  31.308  52.781  0.00  0.00     0.273 S 
ATOM      7  O   UNL d   1      53.055  31.933  52.255  0.00  0.00    -0.200 OA
ATOM      8  O   UNL d   1      52.863  30.969  52.066  0.00  0.00    -0.200 OA
BRANCH   6   9
ATOM      9  C   UNL d   1      53.152  30.665  53.298  0.00  0.00     0.104 A 
ATOM     10  C   UNL d   1      52.473  30.404  53.678  0.00  0.00     0.015 A 
ATOM     11  C   UNL d   1      52.515  29.759  54.196  0.00  0.00     0.024 A 
ATOM     12  C   UNL d   1      53.243  29.391  54.320  0.00  0.00     0.127 A 
ATOM     13  C   UNL d   1      53.919  29.658  53.935  0.00  0.00     0.024 A 
ATOM     14  C   UNL d   1      53.879  30.299  53.420  0.00  0.00     0.015 A 
BRANCH  12  15
ATOM     15  N   UNL d   1      53.287  28.740  54.844  0.00  0.00    -0.114 N 
ATOM     16  O   UNL d   1      52.986  28.813  55.612  0.00  0.00    -0.532 OA
ATOM     17  O   UNL d   1      53.627  28.033  54.595  0.00  0.00    -0.532 OA
ENDBRANCH  12  15
ENDBRANCH   6   9
ENDBRANCH   1   6
BRANCH   2  18
ATOM     18  S   UNL d   1      52.269  32.862  53.156  0.00  0.00    -0.049 SA
BRANCH  18  19
ATOM     19  C   UNL d   1      51.993  33.620  53.333  0.00  0.00     0.038 C 
BRANCH  19  20
ATOM     20  C   UNL d   1      51.304  33.897  52.977  0.00  0.00     0.007 A 
ATOM     21  C   UNL d   1      50.587  33.879  53.380  0.00  0.00     0.003 A 
ATOM     22  C   UNL d   1      49.898  34.163  53.006  0.00  0.00     0.030 A 
ATOM     23  C   UNL d   1      49.937  34.461  52.236  0.00  0.00     0.140 A 
ATOM     24  C   UNL d   1      50.651  34.480  51.831  0.00  0.00     0.030 A 
ATOM     25  F   UNL d   1      49.252  34.741  51.872  0.00  0.00    -0.204 F 
ATOM     26  C   UNL d   1      51.331  34.202  52.194  0.00  0.00     0.003 A 
ENDBRANCH  19  20
ENDBRANCH  18  19
ENDBRANCH   2  18
TORSDOF 6
ENDMDL
MODEL 2
REMARK VINA RESULT:      -8.0      2.641      4.852
REMARK  6 active torsions:
REMARK  status: ('A' for Active; 'I' for Inactive)
REMARK    1  A    between atoms: N_2  and  S_1 
REMARK    2  A    between atoms: C_6  and  S_1 
REMARK    3  A    between atoms: S_9  and  C_3 
REMARK    4  A    between atoms: N_4  and  C_10 
REMARK    5  A    between atoms: C_19  and  S_9 
REMARK    6  A    between atoms: C_21  and  C_19 
ROOT
ATOM      1  N   UNL d   1      53.235  32.685  53.066  0.00  0.00    -0.208 N 
ATOM      2  C   UNL d   1      52.854  31.948  53.128  0.00  0.00     0.189 A 
ATOM      3  N   UNL d   1      52.097  32.021  52.800  0.00  0.00    -0.219 NA
ATOM      4  C   UNL d   1      52.708  33.214  52.698  0.00  0.00     0.114 A 
ATOM      5  C   UNL d   1      52.011  32.802  52.536  0.00  0.00     0.121 A 
ENDROOT
BRANCH   1   6
ATOM      6  S   UNL d   1      54.003  32.857  53.327  0.00  0.00     0.273 S 
ATOM      7  O   UNL d   1      54.256  32.211  52.894  0.00  0.00    -0.200 OA
ATOM      8  O   UNL d   1      54.821  32.825  53.446  0.00  0.00    -0.200 OA
BRANCH   6   9
ATOM      9  C   UNL d   1      53.766  33.513  53.770  0.00  0.00     0.104 A 
ATOM     10  C   UNL d   1      53.716  33.451  54.588  0.00  0.00     0.015 A 
ATOM     11  C   UNL d   1      53.479  34.106  55.035  0.00  0.00     0.024 A 
ATOM     12  C   UNL d   1      53.297  34.812  54.648  0.00  0.00     0.127 A 
ATOM     13  C   UNL d   1      53.350  34.867  53.829  0.00  0.00     0.024 A 
ATOM     14  C   UNL d   1      53.585  34.217  53.383  0.00  0.00     0.015 A 
BRANCH  12  15
ATOM     15  N   UNL d   1      53.058  35.474  55.099  0.00  0.00    -0.114 N 
ATOM     16  O   UNL d   1      53.038  35.420  55.925  0.00  0.00    -0.532 OA
ATOM     17  O   UNL d   1      52.844  36.174  54.723  0.00  0.00    -0.532 OA
ENDBRANCH  12  15
ENDBRANCH   6   9
ENDBRANCH   1   6
BRANCH   2  18
ATOM     18  S   UNL d   1      53.179  31.258  53.461  0.00  0.00    -0.049 SA
BRANCH  18  19
ATOM     19  C   UNL d   1      52.743  30.557  53.459  0.00  0.00     0.038 C 
BRANCH  19  20
ATOM     20  C   UNL d   1      52.998  29.915  53.909  0.00  0.00     0.007 A 
ATOM     21  C   UNL d   1      53.413  29.297  53.558  0.00  0.00     0.003 A 
ATOM     22  C   UNL d   1      53.665  28.655  54.026  0.00  0.00     0.030 A 
ATOM     23  C   UNL d   1      53.498  28.639  54.835  0.00  0.00     0.140 A 
ATOM     24  C   UNL d   1      53.084  29.254  55.187  0.00  0.00     0.030 A 
ATOM     25  F   UNL d   1      53.750  28.001  55.292  0.00  0.00    -0.204 F 
ATOM     26  C   UNL d   1      52.833  29.889  54.732  0.00  0.00     0.003 A 
ENDBRANCH  19  20
ENDBRANCH  18  19
ENDBRANCH   2  18
TORSDOF 6
ENDMDL
MODEL 3
REMARK VINA RESULT:      -7.3      2.518      3.255
REMARK  6 active torsions:
REMARK  status: ('A' for Active; 'I' for Inactive)
REMARK    1  A    between atoms: N_2  and  S_1 
REMARK    2  A    between atoms: C_6  and  S_1 
REMARK    3  A    between atoms: S_9  and  C_3 
REMARK    4  A    between atoms: N_4  and  C_10 
REMARK    5  A    between atoms: C_19  and  S_9 
REMARK    6  A    between atoms: C_21  and  C_19 
ROOT
ATOM      1  N   UNL d   1      52.294  33.523  52.868  0.00  0.00    -0.208 N 
ATOM      2  C   UNL d   1      51.468  33.428  52.868  0.00  0.00     0.189 A 
ATOM      3  N   UNL d   1      51.301  32.619  52.922  0.00  0.00    -0.219 NA
ATOM      4  C   UNL d   1      52.637  32.766  52.922  0.00  0.00     0.114 A 
ATOM      5  C   UNL d   1      52.024  32.215  52.954  0.00  0.00     0.121 A 
ENDROOT
BRANCH   1   6
ATOM      6  S   UNL d   1      52.700  34.245  52.822  0.00  0.00     0.273 S 
ATOM      7  O   UNL d   1      52.235  34.423  52.173  0.00  0.00    -0.200 OA
ATOM      8  O   UNL d   1      52.949  34.996  52.579  0.00  0.00    -0.200 OA
BRANCH   6   9
ATOM      9  C   UNL d   1      53.179  34.082  53.476  0.00  0.00     0.104 A 
ATOM     10  C   UNL d   1      53.843  33.608  53.381  0.00  0.00     0.015 A 
ATOM     11  C   UNL d   1      54.325  33.443  54.033  0.00  0.00     0.024 A 
ATOM     12  C   UNL d   1      54.127  33.759  54.769  0.00  0.00     0.127 A 
ATOM     13  C   UNL d   1      53.460  34.232  54.857  0.00  0.00     0.024 A 
ATOM     14  C   UNL d   1      52.979  34.398  54.209  0.00  0.00     0.015 A 
BRANCH  12  15
ATOM     15  N   UNL d   1      54.613  33.592  55.429  0.00  0.00    -0.114 N 
ATOM     16  O   UNL d   1      55.270  34.073  55.583  0.00  0.00    -0.532 OA
ATOM     17  O   UNL d   1      54.439  32.956  55.920  0.00  0.00    -0.532 OA
ENDBRANCH  12  15
ENDBRANCH   6   9
ENDBRANCH   1   6
BRANCH   2  18
ATOM     18  S   UNL d   1      50.907  34.043  52.823  0.00  0.00    -0.049 SA
BRANCH  18  19
ATOM     19  C   UNL d   1      50.101  33.864  52.845  0.00  0.00     0.038 C 
BRANCH  19  20
ATOM     20  C   UNL d   1      49.547  34.458  52.707  0.00  0.00     0.007 A 
ATOM     21  C   UNL d   1      49.361  35.002  53.296  0.00  0.00     0.003 A 
ATOM     22  C   UNL d   1      48.798  35.597  53.142  0.00  0.00     0.030 A 
ATOM     23  C   UNL d   1      48.431  35.640  52.403  0.00  0.00     0.140 A 
ATOM     24  C   UNL d   1      48.615  35.099  51.814  0.00  0.00     0.030 A 
ATOM     25  F   UNL d   1      47.875  36.231  52.257  0.00  0.00    -0.204 F 
ATOM     26  C   UNL d   1      49.168  34.511  51.960  0.00  0.00     0.003 A 
ENDBRANCH  19  20
ENDBRANCH  18  19
ENDBRANCH   2  18
TORSDOF 6
ENDMDL
MODEL 4
REMARK VINA RESULT:      -6.6      2.577      4.652
REMARK  6 active torsions:
REMARK  status: ('A' for Active; 'I' for Inactive)
REMARK    1  A    between atoms: N_2  and  S_1 
REMARK    2  A    between atoms: C_6  and  S_1 
REMARK    3  A    between atoms: S_9  and  C_3 
REMARK    4  A    between atoms: N_4  and  C_10 
REMARK    5  A    between atoms: C_19  and  S_9 
REMARK    6  A    between atoms: C_21  and  C_19 
ROOT
ATOM      1  N   UNL d   1      53.649  33.483  53.860  0.00  0.00    -0.208 N 
ATOM      2  C   UNL d   1      53.945  32.746  53.615  0.00  0.00     0.189 A 
ATOM      3  N   UNL d   1      54.513  32.878  53.026  0.00  0.00    -0.219 NA
ATOM      4  C   UNL d   1      54.038  34.073  53.419  0.00  0.00     0.114 A 
ATOM      5  C   UNL d   1      54.567  33.697  52.909  0.00  0.00     0.121 A 
ENDROOT
BRANCH   1   6
ATOM      6  S   UNL d   1      53.070  33.605  54.440  0.00  0.00     0.273 S 
ATOM      7  O   UNL d   1      53.636  33.405  54.996  0.00  0.00    -0.200 OA
ATOM      8  O   UNL d   1      52.684  33.661  55.171  0.00  0.00    -0.200 OA
BRANCH   6   9
ATOM      9  C   UNL d   1      52.484  33.810  53.894  0.00  0.00     0.104 A 
ATOM     10  C   UNL d   1      51.874  33.282  53.740  0.00  0.00     0.015 A 
ATOM     11  C   UNL d   1      51.286  33.484  53.194  0.00  0.00     0.024 A 
ATOM     12  C   UNL d   1      51.325  34.215  52.813  0.00  0.00     0.127 A 
ATOM     13  C   UNL d   1      51.940  34.738  52.972  0.00  0.00     0.024 A 
ATOM     14  C   UNL d   1      52.526  34.539  53.515  0.00  0.00     0.015 A 
BRANCH  12  15
ATOM     15  N   UNL d   1      50.732  34.420  52.260  0.00  0.00    -0.114 N 
ATOM     16  O   UNL d   1      50.896  34.374  51.450  0.00  0.00    -0.532 OA
ATOM     17  O   UNL d   1      49.991  34.665  52.522  0.00  0.00    -0.532 OA
ENDBRANCH  12  15
ENDBRANCH   6   9
ENDBRANCH   1   6
BRANCH   2  18
ATOM     18  S   UNL d   1      53.710  32.004  53.911  0.00  0.00    -0.049 SA
BRANCH  18  19
ATOM     19  C   UNL d   1      54.060  31.316  53.617  0.00  0.00     0.038 C 
BRANCH  19  20
ATOM     20  C   UNL d   1      53.679  30.591  53.711  0.00  0.00     0.007 A 
ATOM     21  C   UNL d   1      53.768  30.158  54.405  0.00  0.00     0.003 A 
ATOM     22  C   UNL d   1      53.376  29.427  54.486  0.00  0.00     0.030 A 
ATOM     23  C   UNL d   1      52.903  29.140  53.872  0.00  0.00     0.140 A 
ATOM     24  C   UNL d   1      52.813  29.570  53.179  0.00  0.00     0.030 A 
ATOM     25  F   UNL d   1      52.518  28.416  53.958  0.00  0.00    -0.204 F 
ATOM     26  C   UNL d   1      53.195  30.290  53.094  0.00  0.00     0.003 A 
ENDBRANCH  19  20
ENDBRANCH  18  19
ENDBRANCH   2  18
TORSDOF 6
ENDMDL
MODEL 5
REMARK VINA RESULT:      -6.4      2.906      5.053
REMARK  6 active torsions:
REMARK  status: ('A' for Active; 'I' for Inactive)
REMARK    1  A    between atoms: N_2  and  S_1 
REMARK    2  A    between atoms: C_6  and  S_1 
REMARK    3  A    between atoms: S_9  and  C_3 
REMARK    4  A    between atoms: N_4  and  C_10 
REMARK    5  A    between atoms: C_19  and  S_9 
REMARK    6  A    between atoms: C_21  and  C_19 
ROOT
ATOM      1  N   UNL d   1      51.604  33.210  52.706  0.00  0.00    -0.208 N 
ATOM      2  C   UNL d   1      52.113  32.852  53.258  0.00  0.00     0.189 A 
ATOM      3  N   UNL d   1      51.743  32.169  53.546  0.00  0.00    -0.219 NA
ATOM      4  C   UNL d   1      50.916  32.744  52.656  0.00  0.00     0.114 A 
ATOM      5  C   UNL d   1      51.005  32.107  53.172  0.00  0.00     0.121 A 
ENDROOT
BRANCH   1   6
ATOM      6  S   UNL d   1      51.758  33.907  52.285  0.00  0.00     0.273 S 
ATOM      7  O   UNL d   1      52.477  33.577  52.074  0.00  0.00    -0.200 OA
ATOM      8  O   UNL d   1      52.128  34.479  51.813  0.00  0.00    -0.200 OA
BRANCH   6   9
ATOM      9  C   UNL d   1      51.037  34.256  52.487  0.00  0.00     0.104 A 
ATOM     10  C   UNL d   1      50.969  34.655  53.202  0.00  0.00     0.015 A 
ATOM     11  C   UNL d   1      50.248  35.006  53.408  0.00  0.00     0.024 A 
ATOM     12  C   UNL d   1      49.610  34.948  52.889  0.00  0.00     0.127 A 
ATOM     13  C   UNL d   1      49.686  34.547  52.174  0.00  0.00     0.024 A 
ATOM     14  C   UNL d   1      50.402  34.197  51.968  0.00  0.00     0.015 A 
BRANCH  12  15
ATOM     15  N   UNL d   1      48.881  35.303  53.096  0.00  0.00    -0.114 N 
ATOM     16  O   UNL d   1      48.800  35.665  53.836  0.00  0.00    -0.532 OA
ATOM     17  O   UNL d   1      48.251  35.291  52.567  0.00  0.00    -0.532 OA
ENDBRANCH  12  15
ENDBRANCH   6   9
ENDBRANCH   1   6
BRANCH   2  18
ATOM     18  S   UNL d   1      52.865  33.133  53.481  0.00  0.00    -0.049 SA
BRANCH  18  19
ATOM     19  C   UNL d   1      53.312  32.712  54.033  0.00  0.00     0.038 C 
BRANCH  19  20
ATOM     20  C   UNL d   1      53.960  33.071  54.393  0.00  0.00     0.007 A 
ATOM     21  C   UNL d   1      53.891  33.410  55.140  0.00  0.00     0.003 A 
ATOM     22  C   UNL d   1      54.556  33.770  55.491  0.00  0.00     0.030 A 
ATOM     23  C   UNL d   1      55.278  33.786  55.091  0.00  0.00     0.140 A 
ATOM     24  C   UNL d   1      55.351  33.450  54.346  0.00  0.00     0.030 A 
ATOM     25  F   UNL d   1      55.933  34.144  55.443  0.00  0.00    -0.204 F 
ATOM     26  C   UNL d   1      54.700  33.094  53.995  0.00  0.00     0.003 A 
ENDBRANCH  19  20
ENDBRANCH  18  19
ENDBRANCH   2  18
TORSDOF 6
ENDMDL
