MODEL 1
REMARK VINA RESULT:      81.1      0.000      0.000
REMARK  5 active torsions:
REMARK  status: ('A' for Active; 'I' for Inactive)
REMARK    1  A    between atoms: C_14  and  N_4 
REMARK    2  A    between atoms: C_12  and  N_6 
REMARK    3  A    between atoms: C_10  and  C_12 
REMARK       I    between atoms: N_11  and  C_10 
REMARK    4  A    between atoms: C_13  and  N_11 
REMARK    5  A    between atoms: O_18  and  C_17 
ROOT
ATOM      1  C   UNL d   1      59.385  48.998  50.723  0.00  0.00     0.172 A 
ATOM      2  C   UNL d   1      59.878  49.096  51.377  0.00  0.00     0.113 A 
ATOM      3  N   UNL d   1      59.649  48.583  50.066  0.00  0.00    -0.206 NA
ATOM      4  N   UNL d   1      58.667  49.378  50.894  0.00  0.00    -0.212 N 
ATOM      5  C   UNL d   1      60.634  48.778  51.376  0.00  0.00     0.271 A 
ATOM      6  N   UNL d   1      60.904  48.359  50.715  0.00  0.00    -0.251 N 
ATOM      7  N   UNL d   1      58.728  49.700  51.643  0.00  0.00    -0.162 NA
ATOM      8  C   UNL d   1      60.412  48.261  50.060  0.00  0.00     0.187 A 
ATOM      9  C   UNL d   1      59.456  49.534  51.942  0.00  0.00     0.129 A 
ATOM     10  O   UNL d   1      61.127  48.876  52.030  0.00  0.00    -0.266 OA
ENDROOT
BRANCH   6  11
ATOM     11  C   UNL d   1      61.673  48.033  50.705  0.00  0.00     0.147 C 
BRANCH  11  12
ATOM     12  C   UNL d   1      61.818  47.319  50.302  0.00  0.00     0.297 C 
ATOM     13  N   UNL d   1      61.323  46.674  50.442  0.00  0.00    -0.205 NA
ATOM     14  O   UNL d   1      62.442  47.268  49.777  0.00  0.00    -0.264 OA
BRANCH  13  15
ATOM     15  C   UNL d   1      61.467  45.960  50.038  0.00  0.00     0.107 A 
ATOM     16  C   UNL d   1      61.360  45.255  50.438  0.00  0.00     0.112 A 
ATOM     17  C   UNL d   1      61.504  44.542  50.035  0.00  0.00     0.026 A 
ATOM     18  C   UNL d   1      61.748  44.550  49.255  0.00  0.00     0.002 A 
ATOM     19  C   UNL d   1      61.854  45.255  48.855  0.00  0.00     0.002 A 
ATOM     20  C   UNL d   1      61.710  45.961  49.258  0.00  0.00     0.021 A 
BRANCH  16  21
ATOM     21  O   UNL d   1      61.117  45.247  51.218  0.00  0.00    -0.327 OA
ATOM     22  C   UNL d   1      60.469  44.807  51.451  0.00  0.00     0.181 C 
ENDBRANCH  16  21
ENDBRANCH  13  15
ENDBRANCH  11  12
ENDBRANCH   6  11
BRANCH   4  23
ATOM     23  C   UNL d   1      58.000  49.442  50.430  0.00  0.00     0.085 A 
ATOM     24  C   UNL d   1      58.070  49.643  49.624  0.00  0.00     0.019 A 
ATOM     25  C   UNL d   1      57.396  49.706  49.164  0.00  0.00     0.002 A 
ATOM     26  C   UNL d   1      56.637  49.568  49.500  0.00  0.00     0.000 A 
ATOM     27  C   UNL d   1      56.582  49.372  50.287  0.00  0.00     0.002 A 
ATOM     28  C   UNL d   1      57.254  49.307  50.758  0.00  0.00     0.019 A 
ENDBRANCH   4  23
TORSDOF 5
ENDMDL
