MODEL 1
REMARK VINA RESULT:      56.7      0.000      0.000
REMARK  7 active torsions:
REMARK  status: ('A' for Active; 'I' for Inactive)
REMARK    1  A    between atoms: C_12  and  N_3 
REMARK    2  A    between atoms: C_10  and  C_4 
REMARK    3  A    between atoms: C_15  and  C_12 
REMARK    4  A    between atoms: N_14  and  C_21 
REMARK    5  A    between atoms: C_22  and  N_14 
REMARK    6  A    between atoms: C_21  and  C_15 
REMARK    7  A    between atoms: C_20  and  C_22 
ROOT
ATOM      1  C   UNL d   1     -51.053  25.055  33.325  0.00  0.00     0.137 A 
ATOM      2  N   UNL d   1     -51.835  24.757  33.321  0.00  0.00    -0.259 N 
ATOM      3  N   UNL d   1     -50.923  25.875  33.324  0.00  0.00    -0.287 N 
ATOM      4  C   UNL d   1     -50.411  24.533  33.331  0.00  0.00     0.054 A 
ATOM      5  C   UNL d   1     -51.977  23.936  33.322  0.00  0.00     0.266 A 
ATOM      6  C   UNL d   1     -52.342  26.110  33.314  0.00  0.00     0.084 A 
ATOM      7  C   UNL d   1     -51.565  26.398  33.319  0.00  0.00     0.082 A 
ATOM      8  C   UNL d   1     -50.543  23.707  33.332  0.00  0.00     0.009 A 
ATOM      9  C   UNL d   1     -51.326  23.408  33.327  0.00  0.00     0.061 A 
ATOM     10  O   UNL d   1     -52.747  23.642  33.317  0.00  0.00    -0.267 OA
ATOM     11  C   UNL d   1     -52.981  26.630  33.309  0.00  0.00     0.019 A 
ATOM     12  C   UNL d   1     -49.904  23.188  33.337  0.00  0.00     0.000 C 
ATOM     13  C   UNL d   1     -51.436  27.219  33.318  0.00  0.00     0.019 A 
ATOM     14  C   UNL d   1     -52.850  27.442  33.308  0.00  0.00     0.002 A 
ATOM     15  C   UNL d   1     -52.075  27.737  33.312  0.00  0.00     0.002 A 
ENDROOT
BRANCH   3  16
ATOM     16  C   UNL d   1     -50.151  26.161  33.329  0.00  0.00     0.126 C 
BRANCH  16  17
ATOM     17  C   UNL d   1     -49.857  26.527  34.006  0.00  0.00     0.232 C 
ATOM     18  O   UNL d   1     -49.912  26.156  34.742  0.00  0.00    -0.283 OA
BRANCH  17  19
ATOM     19  C   UNL d   1     -49.504  27.271  33.955  0.00  0.00     0.142 C 
BRANCH  19  20
ATOM     20  N   UNL d   1     -49.219  27.640  34.638  0.00  0.00    -0.239 NA
BRANCH  20  21
ATOM     21  C   UNL d   1     -48.416  27.804  34.713  0.00  0.00     0.099 C 
BRANCH  21  22
ATOM     22  C   UNL d   1     -48.171  28.554  34.950  0.00  0.00     0.019 A 
ATOM     23  C   UNL d   1     -47.827  28.667  35.692  0.00  0.00     0.002 A 
ATOM     24  C   UNL d   1     -47.584  29.416  35.926  0.00  0.00     0.000 A 
ATOM     25  C   UNL d   1     -47.685  30.062  35.414  0.00  0.00     0.000 A 
ATOM     26  C   UNL d   1     -48.029  29.944  34.673  0.00  0.00     0.000 A 
ATOM     27  C   UNL d   1     -48.271  29.196  34.443  0.00  0.00     0.002 A 
ENDBRANCH  21  22
ENDBRANCH  20  21
ENDBRANCH  19  20
ENDBRANCH  17  19
ENDBRANCH  16  17
ENDBRANCH   3  16
BRANCH   4  28
ATOM     28  C   UNL d   1     -49.642  24.826  33.335  0.00  0.00     0.125 C 
ATOM     29  N   UNL d   1     -49.025  24.365  33.648  0.00  0.00    -0.146 N 
ENDBRANCH   4  28
TORSDOF 7
ENDMDL
