MODEL 1
REMARK VINA RESULT:      -9.0      0.000      0.000
REMARK  4 active torsions:
REMARK  status: ('A' for Active; 'I' for Inactive)
REMARK    1  A    between atoms: N_5  and  S_1 
REMARK    2  A    between atoms: C_8  and  S_1 
REMARK    3  A    between atoms: C_2  and  C_11 
REMARK       I    between atoms: C_12  and  N_13 
REMARK    4  A    between atoms: N_13  and  C_21 
ROOT
ATOM      1  N   UNL d   1      50.246  34.446  52.607  0.00  0.00    -0.229 N 
ATOM      2  C   UNL d   1      51.873  33.944  53.255  0.00  0.00     0.039 A 
ATOM      3  C   UNL d   1      51.013  34.735  52.197  0.00  0.00     0.092 A 
ATOM      4  C   UNL d   1      50.295  33.908  53.341  0.00  0.00     0.092 A 
ATOM      5  C   UNL d   1      51.114  33.654  53.669  0.00  0.00     0.023 A 
ATOM      6  C   UNL d   1      51.824  34.483  52.522  0.00  0.00     0.023 A 
ENDROOT
BRANCH   1   7
ATOM      7  S   UNL d   1      49.508  34.677  52.310  0.00  0.00     0.271 S 
ATOM      8  O   UNL d   1      49.629  34.209  51.637  0.00  0.00    -0.200 OA
ATOM      9  O   UNL d   1      49.391  35.143  52.985  0.00  0.00    -0.200 OA
BRANCH   7  10
ATOM     10  C   UNL d   1      48.770  34.915  52.026  0.00  0.00     0.104 A 
ATOM     11  C   UNL d   1      48.498  34.668  51.301  0.00  0.00     0.015 A 
ATOM     12  C   UNL d   1      47.764  34.905  51.020  0.00  0.00     0.033 A 
ATOM     13  C   UNL d   1      47.292  35.411  51.491  0.00  0.00     0.135 A 
ATOM     14  C   UNL d   1      47.563  35.668  52.232  0.00  0.00     0.033 A 
ATOM     15  C   UNL d   1      48.305  35.418  52.499  0.00  0.00     0.015 A 
BRANCH  13  16
ATOM     16  N   UNL d   1      46.554  35.655  51.218  0.00  0.00    -0.365 NA
ATOM     17  C   UNL d   1      45.808  35.895  50.945  0.00  0.00     0.328 C 
ATOM     18  O   UNL d   1      45.498  35.152  51.110  0.00  0.00    -0.251 OA
ATOM     19  C   UNL d   1      45.076  36.144  50.672  0.00  0.00     0.082 C 
ENDBRANCH  13  16
ENDBRANCH   7  10
ENDBRANCH   1   7
BRANCH   2  20
ATOM     20  C   UNL d   1      52.690  33.690  53.583  0.00  0.00     0.163 A 
ATOM     21  N   UNL d   1      52.991  33.934  54.234  0.00  0.00    -0.225 NA
ATOM     22  C   UNL d   1      53.667  33.603  54.313  0.00  0.00     0.101 A 
ATOM     23  C   UNL d   1      54.187  33.663  54.870  0.00  0.00     0.021 A 
ATOM     24  C   UNL d   1      53.784  33.156  53.716  0.00  0.00     0.101 A 
ATOM     25  C   UNL d   1      54.828  33.260  54.807  0.00  0.00     0.002 A 
ATOM     26  C   UNL d   1      54.949  32.810  54.208  0.00  0.00     0.002 A 
ATOM     27  C   UNL d   1      54.430  32.763  53.672  0.00  0.00     0.021 A 
ATOM     28  N   UNL d   1      53.181  33.209  53.262  0.00  0.00    -0.225 NA
ENDBRANCH   2  20
TORSDOF 4
ENDMDL
MODEL 2
REMARK VINA RESULT:      -8.6      1.197      6.697
REMARK  4 active torsions:
REMARK  status: ('A' for Active; 'I' for Inactive)
REMARK    1  A    between atoms: N_5  and  S_1 
REMARK    2  A    between atoms: C_8  and  S_1 
REMARK    3  A    between atoms: C_2  and  C_11 
REMARK       I    between atoms: C_12  and  N_13 
REMARK    4  A    between atoms: N_13  and  C_21 
ROOT
ATOM      1  N   UNL d   1      49.543  34.675  52.370  0.00  0.00    -0.229 N 
ATOM      2  C   UNL d   1      47.875  35.258  51.927  0.00  0.00     0.039 A 
ATOM      3  C   UNL d   1      49.184  34.461  51.555  0.00  0.00     0.092 A 
ATOM      4  C   UNL d   1      49.068  35.181  52.961  0.00  0.00     0.092 A 
ATOM      5  C   UNL d   1      48.228  35.475  52.740  0.00  0.00     0.023 A 
ATOM      6  C   UNL d   1      48.351  34.753  51.336  0.00  0.00     0.023 A 
ENDROOT
BRANCH   1   7
ATOM      7  S   UNL d   1      50.302  34.409  52.568  0.00  0.00     0.271 S 
ATOM      8  O   UNL d   1      50.519  34.418  51.769  0.00  0.00    -0.200 OA
ATOM      9  O   UNL d   1      50.082  34.401  53.367  0.00  0.00    -0.200 OA
BRANCH   7  10
ATOM     10  C   UNL d   1      51.054  34.143  52.781  0.00  0.00     0.104 A 
ATOM     11  C   UNL d   1      51.700  34.636  52.750  0.00  0.00     0.015 A 
ATOM     12  C   UNL d   1      52.447  34.371  52.962  0.00  0.00     0.033 A 
ATOM     13  C   UNL d   1      52.542  33.579  53.214  0.00  0.00     0.135 A 
ATOM     14  C   UNL d   1      51.888  33.069  53.249  0.00  0.00     0.033 A 
ATOM     15  C   UNL d   1      51.142  33.354  53.031  0.00  0.00     0.015 A 
BRANCH  13  16
ATOM     16  N   UNL d   1      53.288  33.303  53.429  0.00  0.00    -0.365 NA
ATOM     17  C   UNL d   1      54.037  33.026  53.652  0.00  0.00     0.328 C 
ATOM     18  O   UNL d   1      53.894  33.238  54.433  0.00  0.00    -0.251 OA
ATOM     19  C   UNL d   1      54.781  32.749  53.860  0.00  0.00     0.082 C 
ENDBRANCH  13  16
ENDBRANCH   7  10
ENDBRANCH   1   7
BRANCH   2  20
ATOM     20  C   UNL d   1      47.036  35.553  51.706  0.00  0.00     0.163 A 
ATOM     21  N   UNL d   1      46.616  35.278  51.138  0.00  0.00    -0.225 NA
ATOM     22  C   UNL d   1      45.962  35.660  51.131  0.00  0.00     0.101 A 
ATOM     23  C   UNL d   1      45.356  35.596  50.672  0.00  0.00     0.021 A 
ATOM     24  C   UNL d   1      45.977  36.167  51.690  0.00  0.00     0.101 A 
ATOM     25  C   UNL d   1      44.765  36.057  50.791  0.00  0.00     0.002 A 
ATOM     26  C   UNL d   1      44.775  36.569  51.352  0.00  0.00     0.002 A 
ATOM     27  C   UNL d   1      45.377  36.618  51.793  0.00  0.00     0.021 A 
ATOM     28  N   UNL d   1      46.641  36.102  52.047  0.00  0.00    -0.225 NA
ENDBRANCH   2  20
TORSDOF 4
ENDMDL
MODEL 3
REMARK VINA RESULT:      -6.3     10.599     11.596
REMARK  4 active torsions:
REMARK  status: ('A' for Active; 'I' for Inactive)
REMARK    1  A    between atoms: N_5  and  S_1 
REMARK    2  A    between atoms: C_8  and  S_1 
REMARK    3  A    between atoms: C_2  and  C_11 
REMARK       I    between atoms: C_12  and  N_13 
REMARK    4  A    between atoms: N_13  and  C_21 
ROOT
ATOM      1  N   UNL d   1      44.715  27.075  57.771  0.00  0.00    -0.229 N 
ATOM      2  C   UNL d   1      44.752  25.750  56.522  0.00  0.00     0.039 A 
ATOM      3  C   UNL d   1      45.078  27.233  56.946  0.00  0.00     0.092 A 
ATOM      4  C   UNL d   1      44.371  26.255  57.970  0.00  0.00     0.092 A 
ATOM      5  C   UNL d   1      44.389  25.586  57.343  0.00  0.00     0.023 A 
ATOM      6  C   UNL d   1      45.096  26.570  56.323  0.00  0.00     0.023 A 
ENDROOT
BRANCH   1   7
ATOM      7  S   UNL d   1      44.700  27.680  58.337  0.00  0.00     0.271 S 
ATOM      8  O   UNL d   1      45.085  27.188  58.880  0.00  0.00    -0.200 OA
ATOM      9  O   UNL d   1      44.314  28.170  57.791  0.00  0.00    -0.200 OA
BRANCH   7  10
ATOM     10  C   UNL d   1      44.677  28.293  58.890  0.00  0.00     0.104 A 
ATOM     11  C   UNL d   1      44.339  28.186  59.622  0.00  0.00     0.015 A 
ATOM     12  C   UNL d   1      44.317  28.796  60.172  0.00  0.00     0.033 A 
ATOM     13  C   UNL d   1      44.649  29.537  59.971  0.00  0.00     0.135 A 
ATOM     14  C   UNL d   1      44.995  29.654  59.226  0.00  0.00     0.033 A 
ATOM     15  C   UNL d   1      45.008  29.028  58.685  0.00  0.00     0.015 A 
BRANCH  13  16
ATOM     16  N   UNL d   1      44.632  30.155  60.516  0.00  0.00    -0.365 NA
ATOM     17  C   UNL d   1      44.618  30.773  61.068  0.00  0.00     0.328 C 
ATOM     18  O   UNL d   1      44.992  30.299  61.624  0.00  0.00    -0.251 OA
ATOM     19  C   UNL d   1      44.598  31.393  61.606  0.00  0.00     0.082 C 
ENDBRANCH  13  16
ENDBRANCH   7  10
ENDBRANCH   1   7
BRANCH   2  20
ATOM     20  C   UNL d   1      44.769  25.082  55.895  0.00  0.00     0.163 A 
ATOM     21  N   UNL d   1      44.448  25.122  55.210  0.00  0.00    -0.225 NA
ATOM     22  C   UNL d   1      44.581  24.466  54.856  0.00  0.00     0.101 A 
ATOM     23  C   UNL d   1      44.378  24.229  54.159  0.00  0.00     0.021 A 
ATOM     24  C   UNL d   1      44.982  24.023  55.317  0.00  0.00     0.101 A 
ATOM     25  C   UNL d   1      44.589  23.533  53.941  0.00  0.00     0.002 A 
ATOM     26  C   UNL d   1      44.992  23.084  54.402  0.00  0.00     0.002 A 
ATOM     27  C   UNL d   1      45.183  23.332  55.082  0.00  0.00     0.021 A 
ATOM     28  N   UNL d   1      45.100  24.402  55.962  0.00  0.00    -0.225 NA
ENDBRANCH   2  20
TORSDOF 4
ENDMDL
MODEL 4
REMARK VINA RESULT:      -6.3     10.724     11.676
REMARK  4 active torsions:
REMARK  status: ('A' for Active; 'I' for Inactive)
REMARK    1  A    between atoms: N_5  and  S_1 
REMARK    2  A    between atoms: C_8  and  S_1 
REMARK    3  A    between atoms: C_2  and  C_11 
REMARK       I    between atoms: C_12  and  N_13 
REMARK    4  A    between atoms: N_13  and  C_21 
ROOT
ATOM      1  N   UNL d   1      44.547  28.356  59.347  0.00  0.00    -0.229 N 
ATOM      2  C   UNL d   1      44.473  29.600  60.675  0.00  0.00     0.039 A 
ATOM      3  C   UNL d   1      44.705  29.238  59.158  0.00  0.00     0.092 A 
ATOM      4  C   UNL d   1      44.352  28.098  60.199  0.00  0.00     0.092 A 
ATOM      5  C   UNL d   1      44.314  28.723  60.869  0.00  0.00     0.023 A 
ATOM      6  C   UNL d   1      44.668  29.858  59.823  0.00  0.00     0.023 A 
ENDROOT
BRANCH   1   7
ATOM      7  S   UNL d   1      44.582  27.792  58.740  0.00  0.00     0.271 S 
ATOM      8  O   UNL d   1      44.814  27.214  59.285  0.00  0.00    -0.200 OA
ATOM      9  O   UNL d   1      44.350  28.374  58.198  0.00  0.00    -0.200 OA
BRANCH   7  10
ATOM     10  C   UNL d   1      44.612  27.242  58.125  0.00  0.00     0.104 A 
ATOM     11  C   UNL d   1      44.817  27.466  57.370  0.00  0.00     0.015 A 
ATOM     12  C   UNL d   1      44.847  26.918  56.760  0.00  0.00     0.033 A 
ATOM     13  C   UNL d   1      44.663  26.119  56.920  0.00  0.00     0.135 A 
ATOM     14  C   UNL d   1      44.453  25.882  57.688  0.00  0.00     0.033 A 
ATOM     15  C   UNL d   1      44.428  26.448  58.292  0.00  0.00     0.015 A 
BRANCH  13  16
ATOM     16  N   UNL d   1      44.690  25.561  56.314  0.00  0.00    -0.365 NA
ATOM     17  C   UNL d   1      44.724  24.999  55.705  0.00  0.00     0.328 C 
ATOM     18  O   UNL d   1      45.524  24.878  55.848  0.00  0.00    -0.251 OA
ATOM     19  C   UNL d   1      44.744  24.445  55.100  0.00  0.00     0.082 C 
ENDBRANCH  13  16
ENDBRANCH   7  10
ENDBRANCH   1   7
BRANCH   2  20
ATOM     20  C   UNL d   1      44.435  30.224  61.345  0.00  0.00     0.163 A 
ATOM     21  N   UNL d   1      44.450  30.067  62.085  0.00  0.00    -0.225 NA
ATOM     22  C   UNL d   1      44.408  30.723  62.461  0.00  0.00     0.101 A 
ATOM     23  C   UNL d   1      44.403  30.866  63.211  0.00  0.00     0.021 A 
ATOM     24  C   UNL d   1      44.367  31.283  61.956  0.00  0.00     0.101 A 
ATOM     25  C   UNL d   1      44.355  31.589  63.438  0.00  0.00     0.002 A 
ATOM     26  C   UNL d   1      44.314  32.155  62.934  0.00  0.00     0.002 A 
ATOM     27  C   UNL d   1      44.320  31.998  62.203  0.00  0.00     0.021 A 
ATOM     28  N   UNL d   1      44.384  30.977  61.265  0.00  0.00    -0.225 NA
ENDBRANCH   2  20
TORSDOF 4
ENDMDL
