MODEL 1
REMARK VINA RESULT:      22.6      0.000      0.000
REMARK  4 active torsions:
REMARK  status: ('A' for Active; 'I' for Inactive)
REMARK    1  A    between atoms: C_14  and  C_4 
REMARK       I    between atoms: C_6  and  N_8 
REMARK    2  A    between atoms: C_9  and  C_6 
REMARK    3  A    between atoms: N_8  and  C_14 
REMARK    4  A    between atoms: O_16  and  C_15 
ROOT
ATOM      1  C   UNL d   1      13.854  11.831  -2.487  0.00  0.00     0.279 C 
ATOM      2  N   UNL d   1      13.118  11.808  -2.854  0.00  0.00    -0.205 NA
ATOM      3  O   UNL d   1      14.541  11.830  -2.946  0.00  0.00    -0.265 OA
ENDROOT
BRANCH   1   4
ATOM      4  C   UNL d   1      13.903  11.855  -1.668  0.00  0.00     0.060 A 
ATOM      5  C   UNL d   1      14.635  11.955  -1.302  0.00  0.00     0.029 A 
ATOM      6  C   UNL d   1      14.674  11.978  -0.475  0.00  0.00     0.094 A 
ATOM      7  C   UNL d   1      13.987  11.903  -0.015  0.00  0.00     0.024 A 
ATOM      8  C   UNL d   1      13.262  11.804  -0.386  0.00  0.00     0.002 A 
ATOM      9  C   UNL d   1      13.207  11.779  -1.212  0.00  0.00     0.005 A 
BRANCH   6  10
ATOM     10  O   UNL d   1      15.403  12.077  -0.113  0.00  0.00    -0.328 OA
ATOM     11  C   UNL d   1      15.726  12.840  -0.037  0.00  0.00     0.181 C 
ENDBRANCH   6  10
ENDBRANCH   1   4
BRANCH   2  12
ATOM     12  C   UNL d   1      13.067  11.784  -3.675  0.00  0.00     0.123 C 
BRANCH  12  13
ATOM     13  C   UNL d   1      13.108  12.478  -4.114  0.00  0.00     0.120 A 
ATOM     14  N   UNL d   1      12.776  13.204  -3.908  0.00  0.00    -0.219 NA
ATOM     15  C   UNL d   1      12.951  13.747  -4.505  0.00  0.00     0.180 A 
ATOM     16  N   UNL d   1      13.398  13.352  -5.089  0.00  0.00    -0.282 N 
ATOM     17  S   UNL d   1      12.856  14.528  -4.749  0.00  0.00    -0.048 SA
ATOM     18  C   UNL d   1      13.492  12.567  -4.842  0.00  0.00     0.103 A 
ATOM     19  C   UNL d   1      13.570  13.894  -5.680  0.00  0.00     0.089 A 
ATOM     20  C   UNL d   1      13.241  14.616  -5.478  0.00  0.00     0.057 A 
ENDBRANCH  12  13
ENDBRANCH   2  12
TORSDOF 4
ENDMDL
MODEL 2
REMARK VINA RESULT:      24.1      1.913      4.346
REMARK  4 active torsions:
REMARK  status: ('A' for Active; 'I' for Inactive)
REMARK    1  A    between atoms: C_14  and  C_4 
REMARK       I    between atoms: C_6  and  N_8 
REMARK    2  A    between atoms: C_9  and  C_6 
REMARK    3  A    between atoms: N_8  and  C_14 
REMARK    4  A    between atoms: O_16  and  C_15 
ROOT
ATOM      1  C   UNL d   1      13.078  12.471  -3.794  0.00  0.00     0.279 C 
ATOM      2  N   UNL d   1      13.161  11.802  -3.324  0.00  0.00    -0.205 NA
ATOM      3  O   UNL d   1      12.776  13.168  -3.468  0.00  0.00    -0.265 OA
ENDROOT
BRANCH   1   4
ATOM      4  C   UNL d   1      13.295  12.444  -4.586  0.00  0.00     0.060 A 
ATOM      5  C   UNL d   1      13.754  13.050  -4.907  0.00  0.00     0.029 A 
ATOM      6  C   UNL d   1      13.968  13.014  -5.706  0.00  0.00     0.094 A 
ATOM      7  C   UNL d   1      13.726  12.378  -6.184  0.00  0.00     0.024 A 
ATOM      8  C   UNL d   1      13.270  11.780  -5.857  0.00  0.00     0.002 A 
ATOM      9  C   UNL d   1      13.048  11.802  -5.059  0.00  0.00     0.005 A 
BRANCH   6  10
ATOM     10  O   UNL d   1      14.424  13.617  -6.025  0.00  0.00    -0.328 OA
ATOM     11  C   UNL d   1      14.429  14.366  -5.663  0.00  0.00     0.181 C 
ENDBRANCH   6  10
ENDBRANCH   1   4
BRANCH   2  12
ATOM     12  C   UNL d   1      12.944  11.827  -2.530  0.00  0.00     0.123 C 
BRANCH  12  13
ATOM     13  C   UNL d   1      13.518  11.909  -1.945  0.00  0.00     0.120 A 
ATOM     14  N   UNL d   1      13.404  11.811  -1.136  0.00  0.00    -0.219 NA
ATOM     15  C   UNL d   1      14.125  11.946  -0.755  0.00  0.00     0.180 A 
ATOM     16  N   UNL d   1      14.693  12.131  -1.338  0.00  0.00    -0.282 N 
ATOM     17  S   UNL d   1      14.501  11.970  -0.023  0.00  0.00    -0.048 SA
ATOM     18  C   UNL d   1      14.312  12.106  -2.073  0.00  0.00     0.103 A 
ATOM     19  C   UNL d   1      15.406  12.264  -0.958  0.00  0.00     0.089 A 
ATOM     20  C   UNL d   1      15.296  12.167  -0.151  0.00  0.00     0.057 A 
ENDBRANCH  12  13
ENDBRANCH   2  12
TORSDOF 4
ENDMDL
