MODEL 1
REMARK VINA RESULT:      26.8      0.000      0.000
REMARK  6 active torsions:
REMARK  status: ('A' for Active; 'I' for Inactive)
REMARK    1  A    between atoms: C_2  and  C_4 
REMARK    2  A    between atoms: C_5  and  C_3 
REMARK    3  A    between atoms: C_16  and  C_15 
REMARK    4  A    between atoms: C_17  and  C_16 
REMARK    5  A    between atoms: C_19  and  C_17 
REMARK    6  A    between atoms: C_18  and  C_19 
ROOT
ATOM      1  N   UNL d   1     -54.714-102.533 -40.997  0.00  0.00    -0.244 NA
ATOM      2  C   UNL d   1     -54.721-101.699 -41.104  0.00  0.00     0.081 A 
ATOM      3  C   UNL d   1     -54.726-101.194 -40.426  0.00  0.00     0.019 A 
ATOM      4  C   UNL d   1     -54.712-102.880 -40.209  0.00  0.00     0.099 A 
ATOM      5  C   UNL d   1     -54.725-101.515 -39.677  0.00  0.00     0.003 A 
ATOM      6  C   UNL d   1     -54.718-102.349 -39.570  0.00  0.00     0.019 A 
ENDROOT
BRANCH   2   7
ATOM      7  C   UNL d   1     -54.722-101.407 -41.838  0.00  0.00     0.018 A 
ATOM      8  C   UNL d   1     -54.717-101.918 -42.473  0.00  0.00     0.002 A 
ATOM      9  C   UNL d   1     -54.719-101.590 -43.254  0.00  0.00     0.006 A 
ATOM     10  C   UNL d   1     -54.724-100.779 -43.363  0.00  0.00     0.064 A 
ATOM     11  C   UNL d   1     -54.729-100.262 -42.686  0.00  0.00     0.006 A 
ATOM     12  C   UNL d   1     -54.727-100.596 -41.942  0.00  0.00     0.002 A 
BRANCH  10  13
ATOM     13  C   UNL d   1     -54.725-100.450 -44.143  0.00  0.00     0.211 C 
ATOM     14  O   UNL d   1     -54.735-100.915 -44.839  0.00  0.00    -0.644 OA
ATOM     15  O   UNL d   1     -54.716 -99.605 -44.246  0.00  0.00    -0.644 OA
ENDBRANCH  10  13
ENDBRANCH   2   7
BRANCH   6  16
ATOM     16  C   UNL d   1     -54.717-102.700 -38.781  0.00  0.00     0.002 C 
BRANCH  16  17
ATOM     17  C   UNL d   1     -55.146-102.325 -38.200  0.00  0.00     0.000 C 
BRANCH  17  18
ATOM     18  C   UNL d   1     -54.921-102.422 -37.388  0.00  0.00     0.000 C 
BRANCH  18  19
ATOM     19  C   UNL d   1     -55.426-102.685 -36.834  0.00  0.00     0.000 C 
ATOM     20  C   UNL d   1     -55.209-102.739 -36.046  0.00  0.00     0.000 C 
ENDBRANCH  18  19
ENDBRANCH  17  18
ENDBRANCH  16  17
ENDBRANCH   6  16
TORSDOF 6
ENDMDL
MODEL 2
REMARK VINA RESULT:      27.6      0.716      1.484
REMARK  6 active torsions:
REMARK  status: ('A' for Active; 'I' for Inactive)
REMARK    1  A    between atoms: C_2  and  C_4 
REMARK    2  A    between atoms: C_5  and  C_3 
REMARK    3  A    between atoms: C_16  and  C_15 
REMARK    4  A    between atoms: C_17  and  C_16 
REMARK    5  A    between atoms: C_19  and  C_17 
REMARK    6  A    between atoms: C_18  and  C_19 
ROOT
ATOM      1  N   UNL d   1     -54.712-101.115 -41.344  0.00  0.00    -0.244 NA
ATOM      2  C   UNL d   1     -54.712-101.480 -42.102  0.00  0.00     0.081 A 
ATOM      3  C   UNL d   1     -54.712-102.324 -42.155  0.00  0.00     0.019 A 
ATOM      4  C   UNL d   1     -54.711-101.585 -40.623  0.00  0.00     0.099 A 
ATOM      5  C   UNL d   1     -54.712-102.777 -41.477  0.00  0.00     0.003 A 
ATOM      6  C   UNL d   1     -54.711-102.411 -40.719  0.00  0.00     0.019 A 
ENDROOT
BRANCH   2   7
ATOM      7  C   UNL d   1     -54.712-101.025 -42.747  0.00  0.00     0.018 A 
ATOM      8  C   UNL d   1     -54.713-100.215 -42.666  0.00  0.00     0.002 A 
ATOM      9  C   UNL d   1     -54.713 -99.739 -43.367  0.00  0.00     0.006 A 
ATOM     10  C   UNL d   1     -54.713-100.091 -44.106  0.00  0.00     0.064 A 
ATOM     11  C   UNL d   1     -54.712-100.940 -44.169  0.00  0.00     0.006 A 
ATOM     12  C   UNL d   1     -54.712-101.381 -43.483  0.00  0.00     0.002 A 
BRANCH  10  13
ATOM     13  C   UNL d   1     -54.713 -99.617 -44.807  0.00  0.00     0.211 C 
ATOM     14  O   UNL d   1     -54.714 -98.779 -44.798  0.00  0.00    -0.644 OA
ATOM     15  O   UNL d   1     -54.712 -99.992 -45.571  0.00  0.00    -0.644 OA
ENDBRANCH  10  13
ENDBRANCH   2   7
BRANCH   6  16
ATOM     16  C   UNL d   1     -54.711-102.880 -39.995  0.00  0.00     0.002 C 
BRANCH  16  17
ATOM     17  C   UNL d   1     -55.081-102.566 -39.341  0.00  0.00     0.000 C 
BRANCH  17  18
ATOM     18  C   UNL d   1     -54.816-102.786 -38.566  0.00  0.00     0.000 C 
BRANCH  18  19
ATOM     19  C   UNL d   1     -55.261-102.678 -37.917  0.00  0.00     0.000 C 
ATOM     20  C   UNL d   1     -54.927-102.623 -37.172  0.00  0.00     0.000 C 
ENDBRANCH  18  19
ENDBRANCH  17  18
ENDBRANCH  16  17
ENDBRANCH   6  16
TORSDOF 6
ENDMDL
