MODEL 1
REMARK VINA RESULT:      50.0      0.000      0.000
REMARK  8 active torsions:
REMARK  status: ('A' for Active; 'I' for Inactive)
REMARK    1  A    between atoms: N_7  and  N_1 
REMARK    2  A    between atoms: S_9  and  C_2 
REMARK       I    between atoms: C_8  and  N_7 
REMARK    3  A    between atoms: C_19  and  C_8 
REMARK    4  A    between atoms: C_18  and  S_9 
REMARK    5  A    between atoms: C_10  and  C_18 
REMARK       I    between atoms: N_13  and  C_10 
REMARK    6  A    between atoms: C_12  and  C_14 
REMARK    7  A    between atoms: C_14  and  N_13 
REMARK    8  A    between atoms: C_22  and  C_19 
ROOT
ATOM      1  N   UNL d   1      46.212 -17.407  42.379  0.00  0.00    -0.168 N 
ATOM      2  C   UNL d   1      45.997 -17.783  41.695  0.00  0.00     0.199 A 
ATOM      3  C   UNL d   1      46.403 -17.848  43.053  0.00  0.00     0.283 A 
ATOM      4  N   UNL d   1      45.964 -18.621  41.657  0.00  0.00    -0.221 NA
ATOM      5  C   UNL d   1      46.372 -18.685  43.021  0.00  0.00     0.076 A 
ATOM      6  C   UNL d   1      46.153 -19.068  42.323  0.00  0.00     0.088 A 
ATOM      7  O   UNL d   1      46.623 -17.471  43.753  0.00  0.00    -0.265 OA
ATOM      8  C   UNL d   1      46.565 -19.122  43.699  0.00  0.00     0.006 A 
ATOM      9  C   UNL d   1      46.126 -19.886  42.301  0.00  0.00     0.019 A 
ATOM     10  C   UNL d   1      46.534 -19.947  43.663  0.00  0.00     0.000 A 
ATOM     11  C   UNL d   1      46.315 -20.330  42.965  0.00  0.00     0.002 A 
ENDROOT
BRANCH   2  12
ATOM     12  S   UNL d   1      45.808 -17.349  41.033  0.00  0.00    -0.043 SA
BRANCH  12  13
ATOM     13  C   UNL d   1      45.647 -17.730  40.320  0.00  0.00     0.101 C 
BRANCH  13  14
ATOM     14  C   UNL d   1      45.102 -17.413  39.800  0.00  0.00     0.286 C 
ATOM     15  N   UNL d   1      45.349 -17.111  39.078  0.00  0.00    -0.206 NA
ATOM     16  O   UNL d   1      44.302 -17.396  40.001  0.00  0.00    -0.265 OA
BRANCH  15  17
ATOM     17  C   UNL d   1      44.803 -16.793  38.557  0.00  0.00     0.103 C 
BRANCH  17  18
ATOM     18  C   UNL d   1      45.044 -16.258  37.984  0.00  0.00     0.030 A 
ATOM     19  C   UNL d   1      44.614 -16.174  37.284  0.00  0.00     0.059 A 
ATOM     20 CL   UNL d   1      43.938 -16.631  37.163  0.00  0.00    -0.082 Cl
ATOM     21  C   UNL d   1      44.855 -15.640  36.711  0.00  0.00     0.011 A 
ATOM     22  C   UNL d   1      45.531 -15.184  36.832  0.00  0.00     0.001 A 
ATOM     23  C   UNL d   1      45.961 -15.269  37.533  0.00  0.00     0.000 A 
ATOM     24  C   UNL d   1      45.720 -15.803  38.105  0.00  0.00     0.002 A 
ENDBRANCH  17  18
ENDBRANCH  15  17
ENDBRANCH  13  14
ENDBRANCH  12  13
ENDBRANCH   2  12
BRANCH   1  25
ATOM     25  N   UNL d   1      46.242 -16.592  42.412  0.00  0.00    -0.119 NA
ATOM     26  C   UNL d   1      46.082 -16.209  43.115  0.00  0.00     0.296 C 
ATOM     27  O   UNL d   1      45.891 -16.636  43.794  0.00  0.00    -0.264 OA
BRANCH  26  28
ATOM     28  C   UNL d   1      46.114 -15.382  43.145  0.00  0.00     0.064 C 
BRANCH  28  29
ATOM     29  C   UNL d   1      45.731 -14.988  43.742  0.00  0.00     0.005 A 
ATOM     30  C   UNL d   1      46.171 -14.540  44.278  0.00  0.00     0.000 A 
ATOM     31  C   UNL d   1      45.782 -14.139  44.885  0.00  0.00     0.000 A 
ATOM     32  C   UNL d   1      44.973 -14.184  44.954  0.00  0.00     0.000 A 
ATOM     33  C   UNL d   1      44.539 -14.637  44.410  0.00  0.00     0.000 A 
ATOM     34  C   UNL d   1      44.923 -15.033  43.811  0.00  0.00     0.000 A 
ENDBRANCH  28  29
ENDBRANCH  26  28
ENDBRANCH   1  25
TORSDOF 8
ENDMDL
MODEL 2
REMARK VINA RESULT:      51.5      1.927      4.704
REMARK  8 active torsions:
REMARK  status: ('A' for Active; 'I' for Inactive)
REMARK    1  A    between atoms: N_7  and  N_1 
REMARK    2  A    between atoms: S_9  and  C_2 
REMARK       I    between atoms: C_8  and  N_7 
REMARK    3  A    between atoms: C_19  and  C_8 
REMARK    4  A    between atoms: C_18  and  S_9 
REMARK    5  A    between atoms: C_10  and  C_18 
REMARK       I    between atoms: N_13  and  C_10 
REMARK    6  A    between atoms: C_12  and  C_14 
REMARK    7  A    between atoms: C_14  and  N_13 
REMARK    8  A    between atoms: C_22  and  C_19 
ROOT
ATOM      1  N   UNL d   1      46.411 -17.932  42.709  0.00  0.00    -0.168 N 
ATOM      2  C   UNL d   1      46.291 -17.505  43.386  0.00  0.00     0.199 A 
ATOM      3  C   UNL d   1      46.524 -18.751  42.748  0.00  0.00     0.283 A 
ATOM      4  N   UNL d   1      46.279 -17.884  44.136  0.00  0.00    -0.221 NA
ATOM      5  C   UNL d   1      46.512 -19.134  43.494  0.00  0.00     0.076 A 
ATOM      6  C   UNL d   1      46.390 -18.699  44.184  0.00  0.00     0.088 A 
ATOM      7  O   UNL d   1      46.647 -19.191  42.061  0.00  0.00    -0.265 OA
ATOM      8  C   UNL d   1      46.626 -19.955  43.527  0.00  0.00     0.006 A 
ATOM      9  C   UNL d   1      46.380 -19.081  44.909  0.00  0.00     0.019 A 
ATOM     10  C   UNL d   1      46.614 -20.328  44.265  0.00  0.00     0.000 A 
ATOM     11  C   UNL d   1      46.491 -19.894  44.955  0.00  0.00     0.002 A 
ENDROOT
BRANCH   2  12
ATOM     12  S   UNL d   1      46.181 -16.700  43.348  0.00  0.00    -0.043 SA
BRANCH  12  13
ATOM     13  C   UNL d   1      46.375 -16.224  43.992  0.00  0.00     0.101 C 
BRANCH  13  14
ATOM     14  C   UNL d   1      45.824 -15.702  44.295  0.00  0.00     0.286 C 
ATOM     15  N   UNL d   1      46.002 -14.902  44.350  0.00  0.00    -0.206 NA
ATOM     16  O   UNL d   1      45.088 -15.977  44.547  0.00  0.00    -0.265 OA
BRANCH  15  17
ATOM     17  C   UNL d   1      45.451 -14.378  44.654  0.00  0.00     0.103 C 
BRANCH  17  18
ATOM     18  C   UNL d   1      45.305 -13.666  44.273  0.00  0.00     0.030 A 
ATOM     19  C   UNL d   1      44.650 -13.584  43.778  0.00  0.00     0.059 A 
ATOM     20 CL   UNL d   1      44.139 -14.222  43.667  0.00  0.00    -0.082 Cl
ATOM     21  C   UNL d   1      44.505 -12.872  43.397  0.00  0.00     0.011 A 
ATOM     22  C   UNL d   1      45.016 -12.235  43.508  0.00  0.00     0.001 A 
ATOM     23  C   UNL d   1      45.672 -12.319  44.004  0.00  0.00     0.000 A 
ATOM     24  C   UNL d   1      45.816 -13.029  44.384  0.00  0.00     0.002 A 
ENDBRANCH  17  18
ENDBRANCH  15  17
ENDBRANCH  13  14
ENDBRANCH  12  13
ENDBRANCH   2  12
BRANCH   1  25
ATOM     25  N   UNL d   1      46.423 -17.560  41.982  0.00  0.00    -0.119 NA
ATOM     26  C   UNL d   1      46.538 -18.000  41.305  0.00  0.00     0.296 C 
ATOM     27  O   UNL d   1      46.643 -18.817  41.344  0.00  0.00    -0.264 OA
BRANCH  26  28
ATOM     28  C   UNL d   1      46.549 -17.621  40.569  0.00  0.00     0.064 C 
BRANCH  28  29
ATOM     29  C   UNL d   1      45.880 -17.615  40.110  0.00  0.00     0.005 A 
ATOM     30  C   UNL d   1      45.912 -17.290  39.353  0.00  0.00     0.000 A 
ATOM     31  C   UNL d   1      45.232 -17.284  38.886  0.00  0.00     0.000 A 
ATOM     32  C   UNL d   1      44.537 -17.596  39.170  0.00  0.00     0.000 A 
ATOM     33  C   UNL d   1      44.514 -17.920  39.933  0.00  0.00     0.000 A 
ATOM     34  C   UNL d   1      45.186 -17.926  40.394  0.00  0.00     0.000 A 
ENDBRANCH  28  29
ENDBRANCH  26  28
ENDBRANCH   1  25
TORSDOF 8
ENDMDL
