MODEL 1
REMARK VINA RESULT:      -7.7      0.000      0.000
REMARK  3 active torsions:
REMARK  status: ('A' for Active; 'I' for Inactive)
REMARK    1  A    between atoms: C_7  and  C_3 
REMARK       I    between atoms: N_10  and  C_7 
REMARK    2  A    between atoms: C_19  and  C_9 
REMARK    3  A    between atoms: C_12  and  N_10 
ROOT
ATOM      1  C   UNL d   1      53.001  33.518  53.886  0.00  0.00     0.059 A 
ATOM      2  C   UNL d   1      53.108  32.729  53.670  0.00  0.00     0.013 A 
ATOM      3  C   UNL d   1      51.878  33.605  53.013  0.00  0.00     0.088 A 
ATOM      4  S   UNL d   1      52.388  33.956  53.559  0.00  0.00    -0.075 SA
ATOM      5  S   UNL d   1      53.509  33.873  54.433  0.00  0.00    -0.080 SA
ATOM      6  C   UNL d   1      51.985  32.817  52.797  0.00  0.00     0.012 A 
ATOM      7  C   UNL d   1      54.226  32.642  54.540  0.00  0.00     0.007 A 
ATOM      8  C   UNL d   1      54.120  33.431  54.756  0.00  0.00     0.030 A 
ENDROOT
BRANCH   3   9
ATOM      9  C   UNL d   1      51.265  34.044  52.686  0.00  0.00     0.285 C 
ATOM     10  N   UNL d   1      50.488  33.931  52.952  0.00  0.00    -0.208 NA
ATOM     11  O   UNL d   1      51.419  34.591  52.101  0.00  0.00    -0.265 OA
BRANCH  10  12
ATOM     12  C   UNL d   1      49.871  34.371  52.626  0.00  0.00     0.085 A 
ATOM     13  C   UNL d   1      49.508  34.947  53.075  0.00  0.00     0.021 A 
ATOM     14  C   UNL d   1      48.893  35.391  52.760  0.00  0.00     0.031 A 
ATOM     15  C   UNL d   1      48.644  35.249  51.984  0.00  0.00     0.140 A 
ATOM     16  C   UNL d   1      49.016  34.664  51.537  0.00  0.00     0.031 A 
ATOM     17  F   UNL d   1      48.027  35.689  51.656  0.00  0.00    -0.204 F 
ATOM     18  C   UNL d   1      49.633  34.223  51.858  0.00  0.00     0.021 A 
ENDBRANCH  10  12
ENDBRANCH   3   9
BRANCH   8  19
ATOM     19  C   UNL d   1      54.633  33.773  55.302  0.00  0.00     0.006 C 
ATOM     20  C   UNL d   1      55.445  33.761  55.175  0.00  0.00     0.001 C 
ENDBRANCH   8  19
TORSDOF 3
ENDMDL
MODEL 2
REMARK VINA RESULT:      -7.7      2.217      5.054
REMARK  3 active torsions:
REMARK  status: ('A' for Active; 'I' for Inactive)
REMARK    1  A    between atoms: C_7  and  C_3 
REMARK       I    between atoms: N_10  and  C_7 
REMARK    2  A    between atoms: C_19  and  C_9 
REMARK    3  A    between atoms: C_12  and  N_10 
ROOT
ATOM      1  C   UNL d   1      50.230  34.633  52.696  0.00  0.00     0.059 A 
ATOM      2  C   UNL d   1      50.136  34.232  51.981  0.00  0.00     0.013 A 
ATOM      3  C   UNL d   1      51.570  34.157  52.787  0.00  0.00     0.088 A 
ATOM      4  S   UNL d   1      50.944  34.596  53.100  0.00  0.00    -0.075 SA
ATOM      5  S   UNL d   1      49.605  35.073  53.013  0.00  0.00    -0.080 SA
ATOM      6  C   UNL d   1      51.477  33.757  52.072  0.00  0.00     0.012 A 
ATOM      7  C   UNL d   1      48.801  34.706  51.891  0.00  0.00     0.007 A 
ATOM      8  C   UNL d   1      48.894  35.106  52.606  0.00  0.00     0.030 A 
ENDROOT
BRANCH   3   9
ATOM      9  C   UNL d   1      52.285  34.121  53.190  0.00  0.00     0.285 C 
ATOM     10  N   UNL d   1      52.492  33.432  53.603  0.00  0.00    -0.208 NA
ATOM     11  O   UNL d   1      52.791  34.761  53.186  0.00  0.00    -0.265 OA
BRANCH  10  12
ATOM     12  C   UNL d   1      53.210  33.394  54.008  0.00  0.00     0.085 A 
ATOM     13  C   UNL d   1      53.840  33.000  53.671  0.00  0.00     0.021 A 
ATOM     14  C   UNL d   1      54.559  32.955  54.066  0.00  0.00     0.031 A 
ATOM     15  C   UNL d   1      54.639  33.312  54.808  0.00  0.00     0.140 A 
ATOM     16  C   UNL d   1      53.997  33.709  55.141  0.00  0.00     0.031 A 
ATOM     17  F   UNL d   1      55.357  33.274  55.214  0.00  0.00    -0.204 F 
ATOM     18  C   UNL d   1      53.279  33.750  54.740  0.00  0.00     0.021 A 
ENDBRANCH  10  12
ENDBRANCH   3   9
BRANCH   8  19
ATOM     19  C   UNL d   1      48.265  35.541  52.911  0.00  0.00     0.006 C 
ATOM     20  C   UNL d   1      47.708  35.877  52.408  0.00  0.00     0.001 C 
ENDBRANCH   8  19
TORSDOF 3
ENDMDL
MODEL 3
REMARK VINA RESULT:      -7.6      2.855      3.874
REMARK  3 active torsions:
REMARK  status: ('A' for Active; 'I' for Inactive)
REMARK    1  A    between atoms: C_7  and  C_3 
REMARK       I    between atoms: N_10  and  C_7 
REMARK    2  A    between atoms: C_19  and  C_9 
REMARK    3  A    between atoms: C_12  and  N_10 
ROOT
ATOM      1  C   UNL d   1      53.208  30.685  53.644  0.00  0.00     0.059 A 
ATOM      2  C   UNL d   1      52.749  30.469  52.994  0.00  0.00     0.013 A 
ATOM      3  C   UNL d   1      53.053  32.058  53.298  0.00  0.00     0.088 A 
ATOM      4  S   UNL d   1      53.361  31.477  53.797  0.00  0.00    -0.075 SA
ATOM      5  S   UNL d   1      53.518  30.105  54.147  0.00  0.00    -0.080 SA
ATOM      6  C   UNL d   1      52.594  31.842  52.647  0.00  0.00     0.012 A 
ATOM      7  C   UNL d   1      52.904  29.100  53.339  0.00  0.00     0.007 A 
ATOM      8  C   UNL d   1      53.363  29.316  53.989  0.00  0.00     0.030 A 
ENDROOT
BRANCH   3   9
ATOM      9  C   UNL d   1      53.206  32.851  53.451  0.00  0.00     0.285 C 
ATOM     10  N   UNL d   1      52.672  33.295  53.904  0.00  0.00    -0.208 NA
ATOM     11  O   UNL d   1      53.882  33.202  53.159  0.00  0.00    -0.265 OA
BRANCH  10  12
ATOM     12  C   UNL d   1      52.823  34.091  54.059  0.00  0.00     0.085 A 
ATOM     13  C   UNL d   1      53.202  34.299  54.750  0.00  0.00     0.021 A 
ATOM     14  C   UNL d   1      53.358  35.089  54.915  0.00  0.00     0.031 A 
ATOM     15  C   UNL d   1      53.128  35.671  54.374  0.00  0.00     0.140 A 
ATOM     16  C   UNL d   1      52.745  35.451  53.677  0.00  0.00     0.031 A 
ATOM     17  F   UNL d   1      53.279  36.468  54.529  0.00  0.00    -0.204 F 
ATOM     18  C   UNL d   1      52.592  34.658  53.518  0.00  0.00     0.021 A 
ENDBRANCH  10  12
ENDBRANCH   3   9
BRANCH   8  19
ATOM     19  C   UNL d   1      53.666  28.730  54.483  0.00  0.00     0.006 C 
ATOM     20  C   UNL d   1      53.271  28.519  55.172  0.00  0.00     0.001 C 
ENDBRANCH   8  19
TORSDOF 3
ENDMDL
MODEL 4
REMARK VINA RESULT:      -5.8     10.173     10.852
REMARK  3 active torsions:
REMARK  status: ('A' for Active; 'I' for Inactive)
REMARK    1  A    between atoms: C_7  and  C_3 
REMARK       I    between atoms: N_10  and  C_7 
REMARK    2  A    between atoms: C_19  and  C_9 
REMARK    3  A    between atoms: C_12  and  N_10 
ROOT
ATOM      1  C   UNL d   1      45.022  29.126  58.149  0.00  0.00     0.059 A 
ATOM      2  C   UNL d   1      44.926  29.702  57.566  0.00  0.00     0.013 A 
ATOM      3  C   UNL d   1      45.047  28.115  57.145  0.00  0.00     0.088 A 
ATOM      4  S   UNL d   1      45.083  28.334  57.941  0.00  0.00    -0.075 SA
ATOM      5  S   UNL d   1      45.058  29.341  58.947  0.00  0.00    -0.080 SA
ATOM      6  C   UNL d   1      44.951  28.691  56.563  0.00  0.00     0.012 A 
ATOM      7  C   UNL d   1      44.901  30.710  58.567  0.00  0.00     0.007 A 
ATOM      8  C   UNL d   1      44.997  30.133  59.149  0.00  0.00     0.030 A 
ENDROOT
BRANCH   3   9
ATOM      9  C   UNL d   1      45.108  27.323  56.937  0.00  0.00     0.285 C 
ATOM     10  N   UNL d   1      44.422  26.865  56.846  0.00  0.00    -0.208 NA
ATOM     11  O   UNL d   1      45.841  26.985  56.818  0.00  0.00    -0.265 OA
BRANCH  10  12
ATOM     12  C   UNL d   1      44.481  26.069  56.637  0.00  0.00     0.085 A 
ATOM     13  C   UNL d   1      44.492  25.501  57.222  0.00  0.00     0.021 A 
ATOM     14  C   UNL d   1      44.550  24.705  57.026  0.00  0.00     0.031 A 
ATOM     15  C   UNL d   1      44.598  24.485  56.230  0.00  0.00     0.140 A 
ATOM     16  C   UNL d   1      44.586  25.066  55.644  0.00  0.00     0.031 A 
ATOM     17  F   UNL d   1      44.657  23.689  56.020  0.00  0.00    -0.204 F 
ATOM     18  C   UNL d   1      44.528  25.862  55.848  0.00  0.00     0.021 A 
ENDBRANCH  10  12
ENDBRANCH   3   9
BRANCH   8  19
ATOM     19  C   UNL d   1      45.031  30.361  59.941  0.00  0.00     0.006 C 
ATOM     20  C   UNL d   1      44.622  31.024  60.202  0.00  0.00     0.001 C 
ENDBRANCH   8  19
TORSDOF 3
ENDMDL
MODEL 5
REMARK VINA RESULT:      -5.6     10.354     11.009
REMARK  3 active torsions:
REMARK  status: ('A' for Active; 'I' for Inactive)
REMARK    1  A    between atoms: C_7  and  C_3 
REMARK       I    between atoms: N_10  and  C_7 
REMARK    2  A    between atoms: C_19  and  C_9 
REMARK    3  A    between atoms: C_12  and  N_10 
ROOT
ATOM      1  C   UNL d   1      44.541  30.190  60.829  0.00  0.00     0.059 A 
ATOM      2  C   UNL d   1      44.605  30.951  60.517  0.00  0.00     0.013 A 
ATOM      3  C   UNL d   1      44.668  29.642  59.520  0.00  0.00     0.088 A 
ATOM      4  S   UNL d   1      44.572  29.536  60.333  0.00  0.00    -0.075 SA
ATOM      5  S   UNL d   1      44.444  30.080  61.643  0.00  0.00    -0.080 SA
ATOM      6  C   UNL d   1      44.733  30.403  59.208  0.00  0.00     0.012 A 
ATOM      7  C   UNL d   1      44.478  31.497  61.821  0.00  0.00     0.007 A 
ATOM      8  C   UNL d   1      44.414  30.736  62.134  0.00  0.00     0.030 A 
ENDROOT
BRANCH   3   9
ATOM      9  C   UNL d   1      44.700  28.988  59.024  0.00  0.00     0.285 C 
ATOM     10  N   UNL d   1      44.880  29.086  58.220  0.00  0.00    -0.208 NA
ATOM     11  O   UNL d   1      44.554  28.241  59.319  0.00  0.00    -0.265 OA
BRANCH  10  12
ATOM     12  C   UNL d   1      44.912  28.431  57.721  0.00  0.00     0.085 A 
ATOM     13  C   UNL d   1      44.319  28.316  57.172  0.00  0.00     0.021 A 
ATOM     14  C   UNL d   1      44.340  27.667  56.669  0.00  0.00     0.031 A 
ATOM     15  C   UNL d   1      44.967  27.130  56.724  0.00  0.00     0.140 A 
ATOM     16  C   UNL d   1      45.562  27.253  57.282  0.00  0.00     0.031 A 
ATOM     17  F   UNL d   1      45.000  26.473  56.224  0.00  0.00    -0.204 F 
ATOM     18  C   UNL d   1      45.535  27.906  57.783  0.00  0.00     0.021 A 
ENDBRANCH  10  12
ENDBRANCH   3   9
BRANCH   8  19
ATOM     19  C   UNL d   1      44.318  30.640  62.946  0.00  0.00     0.006 C 
ATOM     20  C   UNL d   1      44.355  31.288  63.450  0.00  0.00     0.001 C 
ENDBRANCH   8  19
TORSDOF 3
ENDMDL
MODEL 6
REMARK VINA RESULT:      -5.5     10.169     10.861
REMARK  3 active torsions:
REMARK  status: ('A' for Active; 'I' for Inactive)
REMARK    1  A    between atoms: C_7  and  C_3 
REMARK       I    between atoms: N_10  and  C_7 
REMARK    2  A    between atoms: C_19  and  C_9 
REMARK    3  A    between atoms: C_12  and  N_10 
ROOT
ATOM      1  C   UNL d   1      44.792  25.985  56.973  0.00  0.00     0.059 A 
ATOM      2  C   UNL d   1      44.596  25.511  57.619  0.00  0.00     0.013 A 
ATOM      3  C   UNL d   1      44.960  27.101  57.843  0.00  0.00     0.088 A 
ATOM      4  S   UNL d   1      44.974  26.778  57.083  0.00  0.00    -0.075 SA
ATOM      5  S   UNL d   1      44.807  25.665  56.211  0.00  0.00    -0.080 SA
ATOM      6  C   UNL d   1      44.764  26.627  58.489  0.00  0.00     0.012 A 
ATOM      7  C   UNL d   1      44.429  24.398  56.753  0.00  0.00     0.007 A 
ATOM      8  C   UNL d   1      44.625  24.872  56.107  0.00  0.00     0.030 A 
ENDROOT
BRANCH   3   9
ATOM      9  C   UNL d   1      45.141  27.895  57.953  0.00  0.00     0.285 C 
ATOM     10  N   UNL d   1      44.536  28.441  58.102  0.00  0.00    -0.208 NA
ATOM     11  O   UNL d   1      45.916  28.147  57.915  0.00  0.00    -0.265 OA
BRANCH  10  12
ATOM     12  C   UNL d   1      44.716  29.238  58.212  0.00  0.00     0.085 A 
ATOM     13  C   UNL d   1      44.647  29.756  57.585  0.00  0.00     0.021 A 
ATOM     14  C   UNL d   1      44.824  30.552  57.683  0.00  0.00     0.031 A 
ATOM     15  C   UNL d   1      45.073  30.825  58.423  0.00  0.00     0.140 A 
ATOM     16  C   UNL d   1      45.139  30.295  59.052  0.00  0.00     0.031 A 
ATOM     17  F   UNL d   1      45.253  31.623  58.534  0.00  0.00    -0.204 F 
ATOM     18  C   UNL d   1      44.960  29.499  58.947  0.00  0.00     0.021 A 
ENDBRANCH  10  12
ENDBRANCH   3   9
BRANCH   8  19
ATOM     19  C   UNL d   1      44.636  24.542  55.352  0.00  0.00     0.006 C 
ATOM     20  C   UNL d   1      44.770  23.737  55.251  0.00  0.00     0.001 C 
ENDBRANCH   8  19
TORSDOF 3
ENDMDL
MODEL 7
REMARK VINA RESULT:      -4.9     10.120     10.896
REMARK  3 active torsions:
REMARK  status: ('A' for Active; 'I' for Inactive)
REMARK    1  A    between atoms: C_7  and  C_3 
REMARK       I    between atoms: N_10  and  C_7 
REMARK    2  A    between atoms: C_19  and  C_9 
REMARK    3  A    between atoms: C_12  and  N_10 
ROOT
ATOM      1  C   UNL d   1      45.026  28.639  58.079  0.00  0.00     0.059 A 
ATOM      2  C   UNL d   1      45.079  29.057  57.370  0.00  0.00     0.013 A 
ATOM      3  C   UNL d   1      45.066  29.865  58.805  0.00  0.00     0.088 A 
ATOM      4  S   UNL d   1      45.019  29.041  58.795  0.00  0.00    -0.075 SA
ATOM      5  S   UNL d   1      44.979  27.814  58.073  0.00  0.00    -0.080 SA
ATOM      6  C   UNL d   1      45.119  30.283  58.095  0.00  0.00     0.012 A 
ATOM      7  C   UNL d   1      45.039  27.836  56.646  0.00  0.00     0.007 A 
ATOM      8  C   UNL d   1      44.986  27.418  57.355  0.00  0.00     0.030 A 
ENDROOT
BRANCH   3   9
ATOM      9  C   UNL d   1      45.059  30.266  59.521  0.00  0.00     0.285 C 
ATOM     10  N   UNL d   1      44.677  29.934  60.178  0.00  0.00    -0.208 NA
ATOM     11  O   UNL d   1      45.428  30.991  59.589  0.00  0.00    -0.265 OA
BRANCH  10  12
ATOM     12  C   UNL d   1      44.670  30.336  60.898  0.00  0.00     0.085 A 
ATOM     13  C   UNL d   1      44.341  31.082  60.938  0.00  0.00     0.021 A 
ATOM     14  C   UNL d   1      44.328  31.491  61.650  0.00  0.00     0.031 A 
ATOM     15  C   UNL d   1      44.651  31.141  62.327  0.00  0.00     0.140 A 
ATOM     16  C   UNL d   1      44.981  30.386  62.278  0.00  0.00     0.031 A 
ATOM     17  F   UNL d   1      44.643  31.542  63.048  0.00  0.00    -0.204 F 
ATOM     18  C   UNL d   1      44.991  29.981  61.561  0.00  0.00     0.021 A 
ENDBRANCH  10  12
ENDBRANCH   3   9
BRANCH   8  19
ATOM     19  C   UNL d   1      44.940  26.596  57.337  0.00  0.00     0.006 C 
ATOM     20  C   UNL d   1      45.061  26.187  56.634  0.00  0.00     0.001 C 
ENDBRANCH   8  19
TORSDOF 3
ENDMDL
MODEL 8
REMARK VINA RESULT:      -4.9     10.733     11.432
REMARK  3 active torsions:
REMARK  status: ('A' for Active; 'I' for Inactive)
REMARK    1  A    between atoms: C_7  and  C_3 
REMARK       I    between atoms: N_10  and  C_7 
REMARK    2  A    between atoms: C_19  and  C_9 
REMARK    3  A    between atoms: C_12  and  N_10 
ROOT
ATOM      1  C   UNL d   1      44.688  24.619  55.878  0.00  0.00     0.059 A 
ATOM      2  C   UNL d   1      44.354  24.208  56.510  0.00  0.00     0.013 A 
ATOM      3  C   UNL d   1      44.717  25.806  56.665  0.00  0.00     0.088 A 
ATOM      4  S   UNL d   1      44.870  25.416  55.954  0.00  0.00    -0.075 SA
ATOM      5  S   UNL d   1      44.843  24.231  55.164  0.00  0.00    -0.080 SA
ATOM      6  C   UNL d   1      44.382  25.395  57.297  0.00  0.00     0.012 A 
ATOM      7  C   UNL d   1      44.325  23.024  55.726  0.00  0.00     0.007 A 
ATOM      8  C   UNL d   1      44.659  23.435  55.094  0.00  0.00     0.030 A 
ENDROOT
BRANCH   3   9
ATOM      9  C   UNL d   1      44.899  26.604  56.741  0.00  0.00     0.285 C 
ATOM     10  N   UNL d   1      44.328  27.133  57.026  0.00  0.00    -0.208 NA
ATOM     11  O   UNL d   1      45.640  26.877  56.535  0.00  0.00    -0.265 OA
BRANCH  10  12
ATOM     12  C   UNL d   1      44.509  27.934  57.103  0.00  0.00     0.085 A 
ATOM     13  C   UNL d   1      44.317  28.448  56.499  0.00  0.00     0.021 A 
ATOM     14  C   UNL d   1      44.492  29.248  56.564  0.00  0.00     0.031 A 
ATOM     15  C   UNL d   1      44.864  29.529  57.247  0.00  0.00     0.140 A 
ATOM     16  C   UNL d   1      45.055  29.003  57.853  0.00  0.00     0.031 A 
ATOM     17  F   UNL d   1      45.046  30.331  57.324  0.00  0.00    -0.204 F 
ATOM     18  C   UNL d   1      44.876  28.202  57.782  0.00  0.00     0.021 A 
ENDBRANCH  10  12
ENDBRANCH   3   9
BRANCH   8  19
ATOM     19  C   UNL d   1      44.809  23.038  54.388  0.00  0.00     0.006 C 
ATOM     20  C   UNL d   1      44.319  22.424  54.143  0.00  0.00     0.001 C 
ENDBRANCH   8  19
TORSDOF 3
ENDMDL
