MODEL 1
REMARK VINA RESULT:      -9.8      0.000      0.000
REMARK  2 active torsions:
REMARK  status: ('A' for Active; 'I' for Inactive)
REMARK       I    between atoms: N_3  and  C_1 
REMARK    1  A    between atoms: C_4  and  C_1 
REMARK    2  A    between atoms: C_10  and  N_3 
ROOT
ATOM      1  C   UNL d   1      53.728  32.128  53.931  0.00  0.00     0.279 C 
ATOM      2  N   UNL d   1      53.058  31.653  54.027  0.00  0.00    -0.208 NA
ATOM      3  O   UNL d   1      54.406  31.822  53.568  0.00  0.00    -0.265 OA
ENDROOT
BRANCH   1   4
ATOM      4  C   UNL d   1      53.712  32.907  54.202  0.00  0.00     0.059 A 
ATOM      5  C   UNL d   1      53.205  33.449  53.848  0.00  0.00     0.013 A 
ATOM      6  C   UNL d   1      53.179  34.225  54.108  0.00  0.00     0.049 A 
ATOM      7  S   UNL d   1      52.732  34.881  53.862  0.00  0.00    -0.064 SA
ATOM      8  C   UNL d   1      53.675  34.470  54.740  0.00  0.00     0.088 A 
ATOM      9  C   UNL d   1      52.957  35.519  54.343  0.00  0.00     0.135 A 
ATOM     10  N   UNL d   1      53.530  35.281  54.881  0.00  0.00    -0.236 NA
ATOM     11  C   UNL d   1      54.191  33.933  55.105  0.00  0.00     0.020 A 
ATOM     12  C   UNL d   1      54.207  33.153  54.834  0.00  0.00     0.006 A 
ENDBRANCH   1   4
BRANCH   2  13
ATOM     13  C   UNL d   1      53.083  30.847  53.744  0.00  0.00     0.087 A 
ATOM     14  C   UNL d   1      53.310  30.235  54.245  0.00  0.00     0.049 A 
ATOM     15  C   UNL d   1      53.331  29.467  53.968  0.00  0.00     0.142 A 
ATOM     16  F   UNL d   1      53.560  28.843  54.468  0.00  0.00    -0.204 F 
ATOM     17  C   UNL d   1      53.126  29.307  53.193  0.00  0.00     0.030 A 
ATOM     18  C   UNL d   1      52.898  29.916  52.690  0.00  0.00     0.004 A 
ATOM     19  C   UNL d   1      52.875  30.696  52.967  0.00  0.00     0.019 A 
ENDBRANCH   2  13
TORSDOF 2
ENDMDL
MODEL 2
REMARK VINA RESULT:      -9.0      2.217      4.442
REMARK  2 active torsions:
REMARK  status: ('A' for Active; 'I' for Inactive)
REMARK       I    between atoms: N_3  and  C_1 
REMARK    1  A    between atoms: C_4  and  C_1 
REMARK    2  A    between atoms: C_10  and  N_3 
ROOT
ATOM      1  C   UNL d   1      53.326  32.248  53.546  0.00  0.00     0.279 C 
ATOM      2  N   UNL d   1      52.729  32.737  53.844  0.00  0.00    -0.208 NA
ATOM      3  O   UNL d   1      54.042  32.575  53.293  0.00  0.00    -0.265 OA
ENDROOT
BRANCH   1   4
ATOM      4  C   UNL d   1      53.198  31.434  53.504  0.00  0.00     0.059 A 
ATOM      5  C   UNL d   1      53.429  30.955  54.131  0.00  0.00     0.013 A 
ATOM      6  C   UNL d   1      53.308  30.146  54.102  0.00  0.00     0.049 A 
ATOM      7  S   UNL d   1      53.480  29.536  54.640  0.00  0.00    -0.064 SA
ATOM      8  C   UNL d   1      52.944  29.802  53.427  0.00  0.00     0.088 A 
ATOM      9  C   UNL d   1      53.222  28.828  54.291  0.00  0.00     0.135 A 
ATOM     10  N   UNL d   1      52.894  28.978  53.553  0.00  0.00    -0.236 NA
ATOM     11  C   UNL d   1      52.707  30.276  52.788  0.00  0.00     0.020 A 
ATOM     12  C   UNL d   1      52.835  31.090  52.830  0.00  0.00     0.006 A 
ENDBRANCH   1   4
BRANCH   2  13
ATOM     13  C   UNL d   1      52.869  33.579  53.884  0.00  0.00     0.087 A 
ATOM     14  C   UNL d   1      52.710  34.060  53.235  0.00  0.00     0.049 A 
ATOM     15  C   UNL d   1      52.846  34.864  53.280  0.00  0.00     0.142 A 
ATOM     16  F   UNL d   1      52.688  35.357  52.630  0.00  0.00    -0.204 F 
ATOM     17  C   UNL d   1      53.139  35.189  53.971  0.00  0.00     0.030 A 
ATOM     18  C   UNL d   1      53.299  34.712  54.621  0.00  0.00     0.004 A 
ATOM     19  C   UNL d   1      53.162  33.896  54.578  0.00  0.00     0.019 A 
ENDBRANCH   2  13
TORSDOF 2
ENDMDL
MODEL 3
REMARK VINA RESULT:      -8.5      3.056      4.036
REMARK  2 active torsions:
REMARK  status: ('A' for Active; 'I' for Inactive)
REMARK       I    between atoms: N_3  and  C_1 
REMARK    1  A    between atoms: C_4  and  C_1 
REMARK    2  A    between atoms: C_10  and  N_3 
ROOT
ATOM      1  C   UNL d   1      51.779  33.423  53.241  0.00  0.00     0.279 C 
ATOM      2  N   UNL d   1      51.650  34.122  52.819  0.00  0.00    -0.208 NA
ATOM      3  O   UNL d   1      51.150  32.906  53.390  0.00  0.00    -0.265 OA
ENDROOT
BRANCH   1   4
ATOM      4  C   UNL d   1      52.539  33.248  53.509  0.00  0.00     0.059 A 
ATOM      5  C   UNL d   1      52.854  33.671  54.139  0.00  0.00     0.013 A 
ATOM      6  C   UNL d   1      53.607  33.507  54.415  0.00  0.00     0.049 A 
ATOM      7  S   UNL d   1      54.061  33.836  55.029  0.00  0.00    -0.064 SA
ATOM      8  C   UNL d   1      54.063  32.902  54.051  0.00  0.00     0.088 A 
ATOM      9  C   UNL d   1      54.786  33.432  55.036  0.00  0.00     0.135 A 
ATOM     10  N   UNL d   1      54.798  32.861  54.445  0.00  0.00    -0.236 NA
ATOM     11  C   UNL d   1      53.755  32.468  53.414  0.00  0.00     0.020 A 
ATOM     12  C   UNL d   1      52.995  32.643  53.146  0.00  0.00     0.006 A 
ENDBRANCH   1   4
BRANCH   2  13
ATOM     13  C   UNL d   1      50.860  34.297  52.544  0.00  0.00     0.087 A 
ATOM     14  C   UNL d   1      50.315  34.661  53.042  0.00  0.00     0.049 A 
ATOM     15  C   UNL d   1      49.562  34.825  52.773  0.00  0.00     0.142 A 
ATOM     16  F   UNL d   1      49.006  35.193  53.270  0.00  0.00    -0.204 F 
ATOM     17  C   UNL d   1      49.350  34.626  52.009  0.00  0.00     0.030 A 
ATOM     18  C   UNL d   1      49.891  34.262  51.508  0.00  0.00     0.004 A 
ATOM     19  C   UNL d   1      50.656  34.094  51.778  0.00  0.00     0.019 A 
ENDBRANCH   2  13
TORSDOF 2
ENDMDL
MODEL 4
REMARK VINA RESULT:      -8.4      2.747      3.703
REMARK  2 active torsions:
REMARK  status: ('A' for Active; 'I' for Inactive)
REMARK       I    between atoms: N_3  and  C_1 
REMARK    1  A    between atoms: C_4  and  C_1 
REMARK    2  A    between atoms: C_10  and  N_3 
ROOT
ATOM      1  C   UNL d   1      52.410  34.163  53.231  0.00  0.00     0.279 C 
ATOM      2  N   UNL d   1      52.616  33.431  53.558  0.00  0.00    -0.208 NA
ATOM      3  O   UNL d   1      52.927  34.805  53.294  0.00  0.00    -0.265 OA
ENDROOT
BRANCH   1   4
ATOM      4  C   UNL d   1      51.686  34.241  52.844  0.00  0.00     0.059 A 
ATOM      5  C   UNL d   1      51.036  34.533  53.254  0.00  0.00     0.013 A 
ATOM      6  C   UNL d   1      50.312  34.616  52.881  0.00  0.00     0.049 A 
ATOM      7  S   UNL d   1      49.574  34.889  53.149  0.00  0.00    -0.064 SA
ATOM      8  C   UNL d   1      50.232  34.402  52.072  0.00  0.00     0.088 A 
ATOM      9  C   UNL d   1      49.052  34.840  52.506  0.00  0.00     0.135 A 
ATOM     10  N   UNL d   1      49.441  34.546  51.845  0.00  0.00    -0.236 NA
ATOM     11  C   UNL d   1      50.881  34.107  51.648  0.00  0.00     0.020 A 
ATOM     12  C   UNL d   1      51.605  34.028  52.036  0.00  0.00     0.006 A 
ENDBRANCH   1   4
BRANCH   2  13
ATOM     13  C   UNL d   1      53.368  33.357  53.958  0.00  0.00     0.087 A 
ATOM     14  C   UNL d   1      54.032  33.088  53.552  0.00  0.00     0.049 A 
ATOM     15  C   UNL d   1      54.747  33.020  53.940  0.00  0.00     0.142 A 
ATOM     16  F   UNL d   1      55.423  32.749  53.538  0.00  0.00    -0.204 F 
ATOM     17  C   UNL d   1      54.802  33.218  54.732  0.00  0.00     0.030 A 
ATOM     18  C   UNL d   1      54.141  33.487  55.140  0.00  0.00     0.004 A 
ATOM     19  C   UNL d   1      53.414  33.558  54.749  0.00  0.00     0.019 A 
ENDBRANCH   2  13
TORSDOF 2
ENDMDL
MODEL 5
REMARK VINA RESULT:      -7.4      1.884      2.178
REMARK  2 active torsions:
REMARK  status: ('A' for Active; 'I' for Inactive)
REMARK       I    between atoms: N_3  and  C_1 
REMARK    1  A    between atoms: C_4  and  C_1 
REMARK    2  A    between atoms: C_10  and  N_3 
ROOT
ATOM      1  C   UNL d   1      52.455  32.456  52.952  0.00  0.00     0.279 C 
ATOM      2  N   UNL d   1      52.459  31.937  53.596  0.00  0.00    -0.208 NA
ATOM      3  O   UNL d   1      52.857  32.258  52.257  0.00  0.00    -0.265 OA
ENDROOT
BRANCH   1   4
ATOM      4  C   UNL d   1      52.047  33.170  53.012  0.00  0.00     0.059 A 
ATOM      5  C   UNL d   1      51.245  33.196  52.835  0.00  0.00     0.013 A 
ATOM      6  C   UNL d   1      50.829  33.899  52.891  0.00  0.00     0.049 A 
ATOM      7  S   UNL d   1      50.032  34.088  52.750  0.00  0.00    -0.064 SA
ATOM      8  C   UNL d   1      51.225  34.600  53.131  0.00  0.00     0.088 A 
ATOM      9  C   UNL d   1      49.947  34.900  52.905  0.00  0.00     0.135 A 
ATOM     10  N   UNL d   1      50.666  35.221  53.137  0.00  0.00    -0.236 NA
ATOM     11  C   UNL d   1      52.034  34.587  53.312  0.00  0.00     0.020 A 
ATOM     12  C   UNL d   1      52.442  33.872  53.252  0.00  0.00     0.006 A 
ENDBRANCH   1   4
BRANCH   2  13
ATOM     13  C   UNL d   1      52.884  31.199  53.526  0.00  0.00     0.087 A 
ATOM     14  C   UNL d   1      52.506  30.524  53.243  0.00  0.00     0.049 A 
ATOM     15  C   UNL d   1      52.917  29.822  53.179  0.00  0.00     0.142 A 
ATOM     16  F   UNL d   1      52.543  29.137  52.893  0.00  0.00    -0.204 F 
ATOM     17  C   UNL d   1      53.705  29.790  53.396  0.00  0.00     0.030 A 
ATOM     18  C   UNL d   1      54.086  30.462  53.680  0.00  0.00     0.004 A 
ATOM     19  C   UNL d   1      53.671  31.176  53.746  0.00  0.00     0.019 A 
ENDBRANCH   2  13
TORSDOF 2
ENDMDL
MODEL 6
REMARK VINA RESULT:      -7.2      1.145      1.512
REMARK  2 active torsions:
REMARK  status: ('A' for Active; 'I' for Inactive)
REMARK       I    between atoms: N_3  and  C_1 
REMARK    1  A    between atoms: C_4  and  C_1 
REMARK    2  A    between atoms: C_10  and  N_3 
ROOT
ATOM      1  C   UNL d   1      52.755  32.396  53.231  0.00  0.00     0.279 C 
ATOM      2  N   UNL d   1      53.173  31.948  53.787  0.00  0.00    -0.208 NA
ATOM      3  O   UNL d   1      52.446  32.033  52.555  0.00  0.00    -0.265 OA
ENDROOT
BRANCH   1   4
ATOM      4  C   UNL d   1      52.652  33.203  53.359  0.00  0.00     0.059 A 
ATOM      5  C   UNL d   1      53.068  33.575  53.962  0.00  0.00     0.013 A 
ATOM      6  C   UNL d   1      52.975  34.377  54.099  0.00  0.00     0.049 A 
ATOM      7  S   UNL d   1      53.315  34.891  54.657  0.00  0.00    -0.064 SA
ATOM      8  C   UNL d   1      52.448  34.824  53.621  0.00  0.00     0.088 A 
ATOM      9  C   UNL d   1      52.996  35.645  54.515  0.00  0.00     0.135 A 
ATOM     10  N   UNL d   1      52.467  35.615  53.887  0.00  0.00    -0.236 NA
ATOM     11  C   UNL d   1      52.022  34.459  53.009  0.00  0.00     0.020 A 
ATOM     12  C   UNL d   1      52.126  33.651  52.881  0.00  0.00     0.006 A 
ENDBRANCH   1   4
BRANCH   2  13
ATOM     13  C   UNL d   1      53.276  31.111  53.647  0.00  0.00     0.087 A 
ATOM     14  C   UNL d   1      53.940  30.832  53.249  0.00  0.00     0.049 A 
ATOM     15  C   UNL d   1      54.033  30.032  53.119  0.00  0.00     0.142 A 
ATOM     16  F   UNL d   1      54.701  29.742  52.718  0.00  0.00    -0.204 F 
ATOM     17  C   UNL d   1      53.464  29.507  53.385  0.00  0.00     0.030 A 
ATOM     18  C   UNL d   1      52.799  29.782  53.783  0.00  0.00     0.004 A 
ATOM     19  C   UNL d   1      52.702  30.594  53.917  0.00  0.00     0.019 A 
ENDBRANCH   2  13
TORSDOF 2
ENDMDL
