MODEL 1
REMARK VINA RESULT:      -4.9      0.000      0.000
REMARK  4 active torsions:
REMARK  status: ('A' for Active; 'I' for Inactive)
REMARK    1  A    between atoms: N_2  and  C_1 
REMARK       I    between atoms: C_5  and  N_2 
REMARK    2  A    between atoms: C_8  and  C_5 
REMARK    3  A    between atoms: O_16  and  C_10 
REMARK    4  A    between atoms: O_17  and  C_12 
ROOT
ATOM      1  N   UNL d   1     -41.997-123.445 -50.475  0.00  0.00    -0.184 NA
ATOM      2  C   UNL d   1     -41.517-122.922 -50.898  0.00  0.00     0.281 C 
ATOM      3  O   UNL d   1     -41.123-122.330 -50.484  0.00  0.00    -0.265 OA
ENDROOT
BRANCH   2   4
ATOM      4  C   UNL d   1     -41.420-122.967 -51.699  0.00  0.00     0.060 A 
ATOM      5  C   UNL d   1     -41.501-122.297 -52.151  0.00  0.00     0.031 A 
ATOM      6  C   UNL d   1     -41.401-122.346 -52.966  0.00  0.00     0.116 A 
ATOM      7  C   UNL d   1     -41.222-123.060 -53.316  0.00  0.00     0.116 A 
ATOM      8  C   UNL d   1     -41.141-123.731 -52.864  0.00  0.00     0.026 A 
ATOM      9  C   UNL d   1     -41.239-123.706 -52.029  0.00  0.00     0.007 A 
BRANCH   6  10
ATOM     10  O   UNL d   1     -41.484-121.652 -53.438  0.00  0.00    -0.326 OA
ATOM     11  C   UNL d   1     -42.392-121.524 -53.664  0.00  0.00     0.181 C 
ENDBRANCH   6  10
BRANCH   7  12
ATOM     12  O   UNL d   1     -41.123-123.102 -54.139  0.00  0.00    -0.326 OA
ATOM     13  C   UNL d   1     -41.313-123.787 -54.655  0.00  0.00     0.181 C 
ENDBRANCH   7  12
ENDBRANCH   2   4
BRANCH   1  14
ATOM     14  C   UNL d   1     -42.062-123.356 -49.655  0.00  0.00     0.182 A 
ATOM     15  N   UNL d   1     -42.744-123.441 -49.172  0.00  0.00    -0.283 N 
ATOM     16  C   UNL d   1     -42.476-123.283 -48.378  0.00  0.00     0.072 A 
ATOM     17  C   UNL d   1     -43.475-123.629 -49.415  0.00  0.00     0.101 C 
ATOM     18  C   UNL d   1     -42.876-123.275 -47.638  0.00  0.00     0.018 A 
ATOM     19  C   UNL d   1     -41.698-123.121 -48.420  0.00  0.00     0.048 A 
ATOM     20  C   UNL d   1     -42.441-123.092 -46.936  0.00  0.00     0.002 A 
ATOM     21  C   UNL d   1     -41.652-122.930 -46.990  0.00  0.00     0.001 A 
ATOM     22  C   UNL d   1     -41.253-122.937 -47.723  0.00  0.00     0.008 A 
ATOM     23  S   UNL d   1     -41.436-123.160 -49.175  0.00  0.00    -0.048 SA
ENDBRANCH   1  14
TORSDOF 4
ENDMDL
MODEL 2
REMARK VINA RESULT:      -2.6      1.746      5.110
REMARK  4 active torsions:
REMARK  status: ('A' for Active; 'I' for Inactive)
REMARK    1  A    between atoms: N_2  and  C_1 
REMARK       I    between atoms: C_5  and  N_2 
REMARK    2  A    between atoms: C_8  and  C_5 
REMARK    3  A    between atoms: O_16  and  C_10 
REMARK    4  A    between atoms: O_17  and  C_12 
ROOT
ATOM      1  N   UNL d   1     -42.230-122.750 -52.384  0.00  0.00    -0.184 NA
ATOM      2  C   UNL d   1     -41.778-122.349 -51.821  0.00  0.00     0.281 C 
ATOM      3  O   UNL d   1     -41.245-121.776 -52.081  0.00  0.00    -0.265 OA
ENDROOT
BRANCH   2   4
ATOM      4  C   UNL d   1     -41.835-122.493 -51.028  0.00  0.00     0.060 A 
ATOM      5  C   UNL d   1     -42.561-122.451 -50.665  0.00  0.00     0.031 A 
ATOM      6  C   UNL d   1     -42.616-122.599 -49.857  0.00  0.00     0.116 A 
ATOM      7  C   UNL d   1     -41.950-122.786 -49.427  0.00  0.00     0.116 A 
ATOM      8  C   UNL d   1     -41.224-122.828 -49.790  0.00  0.00     0.026 A 
ATOM      9  C   UNL d   1     -41.142-122.681 -50.615  0.00  0.00     0.007 A 
BRANCH   6  10
ATOM     10  O   UNL d   1     -43.368-122.556 -49.478  0.00  0.00    -0.326 OA
ATOM     11  C   UNL d   1     -43.834-123.368 -49.594  0.00  0.00     0.181 C 
ENDBRANCH   6  10
BRANCH   7  12
ATOM     12  O   UNL d   1     -42.014-122.934 -48.613  0.00  0.00    -0.326 OA
ATOM     13  C   UNL d   1     -41.627-122.481 -47.967  0.00  0.00     0.181 C 
ENDBRANCH   7  12
ENDBRANCH   2   4
BRANCH   1  14
ATOM     14  C   UNL d   1     -42.132-122.564 -53.185  0.00  0.00     0.182 A 
ATOM     15  N   UNL d   1     -41.825-123.045 -53.801  0.00  0.00    -0.283 N 
ATOM     16  C   UNL d   1     -41.859-122.560 -54.501  0.00  0.00     0.072 A 
ATOM     17  C   UNL d   1     -41.564-123.791 -53.731  0.00  0.00     0.101 C 
ATOM     18  C   UNL d   1     -41.639-122.705 -55.299  0.00  0.00     0.018 A 
ATOM     19  C   UNL d   1     -42.164-121.857 -54.285  0.00  0.00     0.048 A 
ATOM     20  C   UNL d   1     -41.745-122.093 -55.874  0.00  0.00     0.002 A 
ATOM     21  C   UNL d   1     -42.055-121.384 -55.645  0.00  0.00     0.001 A 
ATOM     22  C   UNL d   1     -42.274-121.238 -54.853  0.00  0.00     0.008 A 
ATOM     23  S   UNL d   1     -42.332-121.843 -53.503  0.00  0.00    -0.048 SA
ENDBRANCH   1  14
TORSDOF 4
ENDMDL
