MODEL 1
REMARK VINA RESULT:      -4.0      0.000      0.000
REMARK  6 active torsions:
REMARK  status: ('A' for Active; 'I' for Inactive)
REMARK    1  A    between atoms: N_5  and  C_1 
REMARK       I    between atoms: C_11  and  N_5 
REMARK    2  A    between atoms: C_22  and  C_7 
REMARK    3  A    between atoms: C_8  and  C_10 
REMARK    4  A    between atoms: C_20  and  C_11 
REMARK    5  A    between atoms: C_13  and  S_15 
REMARK    6  A    between atoms: S_15  and  C_20 
ROOT
ATOM      1  S   UNL d   1      57.329  -0.644  31.093  0.00  0.00    -0.061 SA
ENDROOT
BRANCH   1   2
ATOM      2  C   UNL d   1      56.886  -0.402  31.745  0.00  0.00     0.133 A 
ATOM      3  N   UNL d   1      56.696   0.384  31.850  0.00  0.00    -0.141 NA
ATOM      4  N   UNL d   1      56.258   0.628  32.494  0.00  0.00    -0.147 NA
ATOM      5  C   UNL d   1      56.003   0.071  33.046  0.00  0.00     0.109 A 
ATOM      6  C   UNL d   1      56.191  -0.726  32.946  0.00  0.00     0.024 A 
ATOM      7  C   UNL d   1      56.628  -0.961  32.303  0.00  0.00     0.029 A 
BRANCH   5   8
ATOM      8  C   UNL d   1      55.561   0.308  33.696  0.00  0.00     0.049 A 
ATOM      9  S   UNL d   1      55.845   0.458  34.452  0.00  0.00    -0.085 SA
ATOM     10  C   UNL d   1      55.217   0.682  34.934  0.00  0.00     0.035 A 
ATOM     11  C   UNL d   1      54.527   0.671  34.466  0.00  0.00     0.007 A 
ATOM     12  C   UNL d   1      54.738   0.441  33.702  0.00  0.00     0.009 A 
ENDBRANCH   5   8
ENDBRANCH   1   2
BRANCH   1  13
ATOM     13  C   UNL d   1      57.836  -0.119  30.720  0.00  0.00     0.099 C 
BRANCH  13  14
ATOM     14  C   UNL d   1      58.323  -0.388  30.111  0.00  0.00     0.288 C 
ATOM     15  N   UNL d   1      59.138  -0.412  30.220  0.00  0.00    -0.181 NA
ATOM     16  O   UNL d   1      57.998  -0.630  29.399  0.00  0.00    -0.265 OA
BRANCH  15  17
ATOM     17  C   UNL d   1      59.623  -0.677  29.619  0.00  0.00     0.219 A 
ATOM     18  S   UNL d   1      60.121  -1.336  29.652  0.00  0.00    -0.026 SA
ATOM     19  C   UNL d   1      60.502  -1.397  28.934  0.00  0.00     0.135 A 
ATOM     20  N   UNL d   1      60.246  -0.781  28.455  0.00  0.00    -0.139 NA
ATOM     21  N   UNL d   1      59.707  -0.342  28.880  0.00  0.00    -0.121 NA
BRANCH  19  22
ATOM     22  C   UNL d   1      61.050  -1.977  28.724  0.00  0.00     0.028 C 
ATOM     23  C   UNL d   1      60.828  -2.763  28.688  0.00  0.00     0.002 C 
ENDBRANCH  19  22
ENDBRANCH  15  17
ENDBRANCH  13  14
ENDBRANCH   1  13
TORSDOF 6
ENDMDL
MODEL 2
REMARK VINA RESULT:      -3.0      1.166      5.992
REMARK  6 active torsions:
REMARK  status: ('A' for Active; 'I' for Inactive)
REMARK    1  A    between atoms: N_5  and  C_1 
REMARK       I    between atoms: C_11  and  N_5 
REMARK    2  A    between atoms: C_22  and  C_7 
REMARK    3  A    between atoms: C_8  and  C_10 
REMARK    4  A    between atoms: C_20  and  C_11 
REMARK    5  A    between atoms: C_13  and  S_15 
REMARK    6  A    between atoms: S_15  and  C_20 
ROOT
ATOM      1  S   UNL d   1      57.562   0.531  31.094  0.00  0.00    -0.061 SA
ENDROOT
BRANCH   1   2
ATOM      2  C   UNL d   1      58.151   0.202  30.620  0.00  0.00     0.133 A 
ATOM      3  N   UNL d   1      58.869   0.578  30.529  0.00  0.00    -0.141 NA
ATOM      4  N   UNL d   1      59.455   0.256  30.061  0.00  0.00    -0.147 NA
ATOM      5  C   UNL d   1      59.319  -0.459  29.675  0.00  0.00     0.109 A 
ATOM      6  C   UNL d   1      58.595  -0.845  29.762  0.00  0.00     0.024 A 
ATOM      7  C   UNL d   1      58.017  -0.519  30.229  0.00  0.00     0.029 A 
BRANCH   5   8
ATOM      8  C   UNL d   1      59.904  -0.789  29.202  0.00  0.00     0.049 A 
ATOM      9  S   UNL d   1      59.916  -1.552  28.898  0.00  0.00    -0.085 SA
ATOM     10  C   UNL d   1      60.601  -1.653  28.455  0.00  0.00     0.035 A 
ATOM     11  C   UNL d   1      61.026  -0.936  28.485  0.00  0.00     0.007 A 
ATOM     12  C   UNL d   1      60.597  -0.402  28.945  0.00  0.00     0.009 A 
ENDBRANCH   5   8
ENDBRANCH   1   2
BRANCH   1  13
ATOM     13  C   UNL d   1      57.531   0.360  31.894  0.00  0.00     0.099 C 
BRANCH  13  14
ATOM     14  C   UNL d   1      56.812   0.419  32.295  0.00  0.00     0.288 C 
ATOM     15  N   UNL d   1      56.771   0.217  33.091  0.00  0.00    -0.181 NA
ATOM     16  O   UNL d   1      56.141   0.679  31.904  0.00  0.00    -0.265 OA
BRANCH  15  17
ATOM     17  C   UNL d   1      56.062   0.275  33.491  0.00  0.00     0.219 A 
ATOM     18  S   UNL d   1      55.966   0.503  34.280  0.00  0.00    -0.026 SA
ATOM     19  C   UNL d   1      55.170   0.484  34.451  0.00  0.00     0.135 A 
ATOM     20  N   UNL d   1      54.768   0.246  33.776  0.00  0.00    -0.139 NA
ATOM     21  N   UNL d   1      55.320   0.119  33.189  0.00  0.00    -0.121 NA
BRANCH  19  22
ATOM     22  C   UNL d   1      54.825   0.671  35.178  0.00  0.00     0.028 C 
ATOM     23  C   UNL d   1      55.247   0.577  35.871  0.00  0.00     0.002 C 
ENDBRANCH  19  22
ENDBRANCH  15  17
ENDBRANCH  13  14
ENDBRANCH   1  13
TORSDOF 6
ENDMDL
MODEL 3
REMARK VINA RESULT:      -1.5      8.743     10.169
REMARK  6 active torsions:
REMARK  status: ('A' for Active; 'I' for Inactive)
REMARK    1  A    between atoms: N_5  and  C_1 
REMARK       I    between atoms: C_11  and  N_5 
REMARK    2  A    between atoms: C_22  and  C_7 
REMARK    3  A    between atoms: C_8  and  C_10 
REMARK    4  A    between atoms: C_20  and  C_11 
REMARK    5  A    between atoms: C_13  and  S_15 
REMARK    6  A    between atoms: S_15  and  C_20 
ROOT
ATOM      1  S   UNL d   1      59.270  -9.818  33.210  0.00  0.00    -0.061 SA
ENDROOT
BRANCH   1   2
ATOM      2  C   UNL d   1      58.935  -9.800  32.458  0.00  0.00     0.133 A 
ATOM      3  N   UNL d   1      58.124  -9.782  32.364  0.00  0.00    -0.141 NA
ATOM      4  N   UNL d   1      57.788  -9.764  31.621  0.00  0.00    -0.147 NA
ATOM      5  C   UNL d   1      58.274  -9.763  30.955  0.00  0.00     0.109 A 
ATOM      6  C   UNL d   1      59.094  -9.781  31.042  0.00  0.00     0.024 A 
ATOM      7  C   UNL d   1      59.421  -9.799  31.785  0.00  0.00     0.029 A 
BRANCH   5   8
ATOM      8  C   UNL d   1      57.942  -9.745  30.204  0.00  0.00     0.049 A 
ATOM      9  S   UNL d   1      57.145  -9.818  30.019  0.00  0.00    -0.085 SA
ATOM     10  C   UNL d   1      57.055  -9.769  29.202  0.00  0.00     0.035 A 
ATOM     11  C   UNL d   1      57.814  -9.663  28.873  0.00  0.00     0.007 A 
ATOM     12  C   UNL d   1      58.362  -9.649  29.490  0.00  0.00     0.009 A 
ENDBRANCH   5   8
ENDBRANCH   1   2
BRANCH   1  13
ATOM     13  C   UNL d   1      58.852  -9.538  33.856  0.00  0.00     0.099 C 
BRANCH  13  14
ATOM     14  C   UNL d   1      59.261  -9.239  34.507  0.00  0.00     0.288 C 
ATOM     15  N   UNL d   1      59.491  -8.450  34.519  0.00  0.00    -0.181 NA
ATOM     16  O   UNL d   1      59.440  -9.726  35.142  0.00  0.00    -0.265 OA
BRANCH  15  17
ATOM     17  C   UNL d   1      59.896  -8.151  35.161  0.00  0.00     0.219 A 
ATOM     18  S   UNL d   1      60.121  -7.362  35.270  0.00  0.00    -0.026 SA
ATOM     19  C   UNL d   1      60.511  -7.310  35.984  0.00  0.00     0.135 A 
ATOM     20  N   UNL d   1      60.531  -8.058  36.320  0.00  0.00    -0.139 NA
ATOM     21  N   UNL d   1      60.152  -8.571  35.812  0.00  0.00    -0.121 NA
BRANCH  19  22
ATOM     22  C   UNL d   1      60.831  -6.623  36.312  0.00  0.00     0.028 C 
ATOM     23  C   UNL d   1      60.405  -5.926  36.309  0.00  0.00     0.002 C 
ENDBRANCH  19  22
ENDBRANCH  15  17
ENDBRANCH  13  14
ENDBRANCH   1  13
TORSDOF 6
ENDMDL
MODEL 4
REMARK VINA RESULT:      -1.4      1.824      6.228
REMARK  6 active torsions:
REMARK  status: ('A' for Active; 'I' for Inactive)
REMARK    1  A    between atoms: N_5  and  C_1 
REMARK       I    between atoms: C_11  and  N_5 
REMARK    2  A    between atoms: C_22  and  C_7 
REMARK    3  A    between atoms: C_8  and  C_10 
REMARK    4  A    between atoms: C_20  and  C_11 
REMARK    5  A    between atoms: C_13  and  S_15 
REMARK    6  A    between atoms: S_15  and  C_20 
ROOT
ATOM      1  S   UNL d   1      57.043  -0.083  32.380  0.00  0.00    -0.061 SA
ENDROOT
BRANCH   1   2
ATOM      2  C   UNL d   1      57.464  -0.130  31.673  0.00  0.00     0.133 A 
ATOM      3  N   UNL d   1      57.300  -0.716  31.130  0.00  0.00    -0.141 NA
ATOM      4  N   UNL d   1      57.714  -0.766  30.428  0.00  0.00    -0.147 NA
ATOM      5  C   UNL d   1      58.307  -0.217  30.267  0.00  0.00     0.109 A 
ATOM      6  C   UNL d   1      58.478   0.379  30.811  0.00  0.00     0.024 A 
ATOM      7  C   UNL d   1      58.062   0.422  31.507  0.00  0.00     0.029 A 
BRANCH   5   8
ATOM      8  C   UNL d   1      58.727  -0.261  29.563  0.00  0.00     0.049 A 
ATOM      9  S   UNL d   1      59.043   0.369  29.141  0.00  0.00    -0.085 SA
ATOM     10  C   UNL d   1      59.420   0.079  28.469  0.00  0.00     0.035 A 
ATOM     11  C   UNL d   1      59.337  -0.751  28.475  0.00  0.00     0.007 A 
ATOM     12  C   UNL d   1      58.910  -0.962  29.149  0.00  0.00     0.009 A 
ENDBRANCH   5   8
ENDBRANCH   1   2
BRANCH   1  13
ATOM     13  C   UNL d   1      56.324   0.306  32.408  0.00  0.00     0.099 C 
BRANCH  13  14
ATOM     14  C   UNL d   1      55.904   0.335  33.118  0.00  0.00     0.288 C 
ATOM     15  N   UNL d   1      55.121   0.584  33.120  0.00  0.00    -0.181 NA
ATOM     16  O   UNL d   1      56.266   0.118  33.821  0.00  0.00    -0.265 OA
BRANCH  15  17
ATOM     17  C   UNL d   1      54.703   0.614  33.820  0.00  0.00     0.219 A 
ATOM     18  S   UNL d   1      53.879   0.606  33.896  0.00  0.00    -0.026 SA
ATOM     19  C   UNL d   1      53.700   0.645  34.690  0.00  0.00     0.135 A 
ATOM     20  N   UNL d   1      54.405   0.677  35.110  0.00  0.00    -0.139 NA
ATOM     21  N   UNL d   1      55.018   0.658  34.572  0.00  0.00    -0.121 NA
BRANCH  19  22
ATOM     22  C   UNL d   1      52.942   0.651  35.016  0.00  0.00     0.028 C 
ATOM     23  C   UNL d   1      52.285   0.571  34.537  0.00  0.00     0.002 C 
ENDBRANCH  19  22
ENDBRANCH  15  17
ENDBRANCH  13  14
ENDBRANCH   1  13
TORSDOF 6
ENDMDL
