MODEL 1
REMARK VINA RESULT:      18.6      0.000      0.000
REMARK  4 active torsions:
REMARK  status: ('A' for Active; 'I' for Inactive)
REMARK    1  A    between atoms: N_8  and  C_1 
REMARK    2  A    between atoms: C_13  and  N_4 
REMARK    3  A    between atoms: C_6  and  N_8 
REMARK    4  A    between atoms: C_14  and  C_9 
ROOT
ATOM      1  C   UNL d   1      45.468 -15.708  44.777  0.00  0.00     0.135 A 
ATOM      2  C   UNL d   1      45.840 -14.995  44.569  0.00  0.00     0.296 A 
ATOM      3  N   UNL d   1      44.524 -14.796  44.576  0.00  0.00    -0.238 N 
ATOM      4  N   UNL d   1      45.254 -14.432  44.446  0.00  0.00    -0.209 N 
ATOM      5  C   UNL d   1      44.666 -15.574  44.778  0.00  0.00     0.102 A 
ATOM      6  O   UNL d   1      46.647 -14.877  44.501  0.00  0.00    -0.264 OA
ATOM      7  C   UNL d   1      43.790 -14.437  44.514  0.00  0.00     0.120 C 
ATOM      8  C   UNL d   1      44.081 -16.138  44.955  0.00  0.00     0.022 C 
ENDROOT
BRANCH   1   9
ATOM      9  N   UNL d   1      45.851 -16.418  44.949  0.00  0.00    -0.329 N 
ATOM     10  H   UNL d   1      45.992 -16.628  45.738  0.00  0.00     0.168 HD
BRANCH   9  11
ATOM     11  C   UNL d   1      46.092 -16.915  44.346  0.00  0.00     0.172 A 
ATOM     12  N   UNL d   1      45.955 -17.720  44.293  0.00  0.00    -0.222 NA
ATOM     13  C   UNL d   1      46.297 -17.994  43.592  0.00  0.00     0.090 A 
ATOM     14  C   UNL d   1      46.644 -17.356  43.217  0.00  0.00     0.057 A 
ATOM     15  S   UNL d   1      46.519 -16.681  43.682  0.00  0.00    -0.048 SA
BRANCH  13  16
ATOM     16  C   UNL d   1      46.287 -18.771  43.327  0.00  0.00     0.018 A 
ATOM     17  C   UNL d   1      46.188 -19.398  43.855  0.00  0.00     0.002 A 
ATOM     18  C   UNL d   1      46.179 -20.173  43.578  0.00  0.00     0.000 A 
ATOM     19  C   UNL d   1      46.269 -20.322  42.778  0.00  0.00     0.000 A 
ATOM     20  C   UNL d   1      46.367 -19.713  42.252  0.00  0.00     0.000 A 
ATOM     21  C   UNL d   1      46.378 -18.928  42.513  0.00  0.00     0.002 A 
ENDBRANCH  13  16
ENDBRANCH   9  11
ENDBRANCH   1   9
BRANCH   4  22
ATOM     22  C   UNL d   1      45.369 -13.649  44.231  0.00  0.00     0.085 A 
ATOM     23  C   UNL d   1      45.680 -13.111  44.773  0.00  0.00     0.019 A 
ATOM     24  C   UNL d   1      45.792 -12.327  44.548  0.00  0.00     0.002 A 
ATOM     25  C   UNL d   1      45.594 -12.081  43.787  0.00  0.00     0.000 A 
ATOM     26  C   UNL d   1      45.282 -12.620  43.244  0.00  0.00     0.002 A 
ATOM     27  C   UNL d   1      45.169 -13.403  43.464  0.00  0.00     0.019 A 
ENDBRANCH   4  22
TORSDOF 4
ENDMDL
