MODEL 1
REMARK VINA RESULT:      16.3      0.000      0.000
REMARK  4 active torsions:
REMARK  status: ('A' for Active; 'I' for Inactive)
REMARK    1  A    between atoms: C_6  and  C_1 
REMARK    2  A    between atoms: C_13  and  C_2 
REMARK    3  A    between atoms: P_4  and  C_3 
REMARK    4  A    between atoms: C_17  and  C_13 
ROOT
ATOM      1  C   UNL d   1      13.269  12.296  -3.748  0.00  0.00     0.112 A 
ATOM      2  C   UNL d   1      13.140  13.053  -4.035  0.00  0.00     0.052 A 
ATOM      3  N   UNL d   1      13.296  11.779  -4.396  0.00  0.00    -0.217 NA
ATOM      4  C   UNL d   1      13.183  12.226  -5.083  0.00  0.00     0.215 A 
ATOM      5  S   UNL d   1      13.088  13.009  -4.859  0.00  0.00    -0.045 SA
ATOM      6  N   UNL d   1      13.169  11.932  -5.869  0.00  0.00    -0.120 N 
ENDROOT
BRANCH   1   7
ATOM      7  C   UNL d   1      13.352  12.116  -2.944  0.00  0.00     0.119 A 
ATOM      8  O   UNL d   1      14.075  12.130  -2.550  0.00  0.00    -0.297 OA
ATOM      9  C   UNL d   1      13.942  11.921  -1.762  0.00  0.00     0.191 A 
ATOM     10  C   UNL d   1      13.136  11.779  -1.671  0.00  0.00     0.036 A 
ATOM     11  C   UNL d   1      12.773  11.900  -2.399  0.00  0.00     0.029 A 
BRANCH   9  12
ATOM     12  P   UNL d   1      14.514  11.863  -1.163  0.00  0.00     0.321 P 
ATOM     13  O   UNL d   1      13.909  11.835  -0.594  0.00  0.00    -0.635 OA
ATOM     14  O   UNL d   1      15.114  11.891  -1.733  0.00  0.00    -0.635 OA
ATOM     15  O   UNL d   1      15.086  11.805  -0.567  0.00  0.00    -0.635 OA
ENDBRANCH   9  12
ENDBRANCH   1   7
BRANCH   2  16
ATOM     16  C   UNL d   1      13.075  13.739  -3.578  0.00  0.00     0.008 C 
BRANCH  16  17
ATOM     17  C   UNL d   1      13.275  14.471  -3.901  0.00  0.00     0.001 C 
ATOM     18  C   UNL d   1      13.981  14.852  -3.670  0.00  0.00     0.000 C 
ATOM     19  C   UNL d   1      12.776  14.827  -4.454  0.00  0.00     0.000 C 
ENDBRANCH  16  17
ENDBRANCH   2  16
TORSDOF 4
ENDMDL
