MODEL 1
REMARK VINA RESULT:      11.7      0.000      0.000
REMARK  4 active torsions:
REMARK  status: ('A' for Active; 'I' for Inactive)
REMARK       I    between atoms: N_2  and  C_1 
REMARK    1  A    between atoms: O_3  and  C_1 
REMARK    2  A    between atoms: C_5  and  O_3 
REMARK    3  A    between atoms: O_8  and  C_7 
REMARK    4  A    between atoms: C_10  and  O_8 
ROOT
ATOM      1  C   UNL d   1      45.862 -16.260  44.150  0.00  0.00     0.107 A 
ATOM      2  C   UNL d   1      46.258 -15.536  44.154  0.00  0.00     0.050 A 
ATOM      3  C   UNL d   1      45.929 -14.884  44.542  0.00  0.00     0.102 A 
ATOM      4  C   UNL d   1      44.806 -15.680  44.923  0.00  0.00     0.004 A 
ATOM      5  C   UNL d   1      45.135 -16.331  44.535  0.00  0.00     0.025 A 
ATOM      6  C   UNL d   1      45.202 -14.957  44.926  0.00  0.00     0.025 A 
ENDROOT
BRANCH   1   7
ATOM      7  O   UNL d   1      46.191 -16.911  43.763  0.00  0.00    -0.259 OA
BRANCH   7   8
ATOM      8  C   UNL d   1      46.199 -17.654  44.111  0.00  0.00     0.378 C 
ATOM      9  N   UNL d   1      46.333 -18.343  43.658  0.00  0.00    -0.247 N 
ATOM     10  C   UNL d   1      46.459 -18.271  42.838  0.00  0.00     0.112 A 
ATOM     11  C   UNL d   1      46.339 -19.087  44.020  0.00  0.00     0.112 A 
ATOM     12  C   UNL d   1      46.592 -18.948  42.383  0.00  0.00     0.142 A 
ATOM     13  O   UNL d   1      46.600 -19.696  42.737  0.00  0.00    -0.300 OA
ATOM     14  C   UNL d   1      46.471 -19.763  43.564  0.00  0.00     0.142 A 
ATOM     15  O   UNL d   1      46.068 -17.716  44.951  0.00  0.00    -0.237 OA
ENDBRANCH   7   8
ENDBRANCH   1   7
BRANCH   3  16
ATOM     16  O   UNL d   1      46.325 -14.161  44.545  0.00  0.00    -0.307 OA
BRANCH  16  17
ATOM     17  C   UNL d   1      45.950 -13.482  44.260  0.00  0.00     0.100 A 
ATOM     18  C   UNL d   1      45.614 -13.480  43.507  0.00  0.00     0.025 A 
ATOM     19  C   UNL d   1      45.239 -12.801  43.222  0.00  0.00     0.002 A 
ATOM     20  C   UNL d   1      45.200 -12.123  43.691  0.00  0.00     0.000 A 
ATOM     21  C   UNL d   1      45.540 -12.132  44.447  0.00  0.00     0.002 A 
ATOM     22  C   UNL d   1      45.911 -12.804  44.729  0.00  0.00     0.025 A 
ENDBRANCH  16  17
ENDBRANCH   3  16
TORSDOF 4
ENDMDL
