MODEL 1
REMARK VINA RESULT:       2.6      0.000      0.000
REMARK  1 active torsions:
REMARK  status: ('A' for Active; 'I' for Inactive)
REMARK    1  A    between atoms: C_7  and  C_1 
ROOT
ATOM      1  C   UNL d   1      43.755 -15.452  36.880  0.00  0.00     0.122 A 
ATOM      2  C   UNL d   1      44.150 -16.111  36.549  0.00  0.00     0.285 A 
ATOM      3  C   UNL d   1      44.196 -14.793  37.095  0.00  0.00     0.012 A 
ATOM      4  N   UNL d   1      44.967 -16.106  36.439  0.00  0.00    -0.208 NA
ATOM      5  C   UNL d   1      45.402 -15.432  36.661  0.00  0.00     0.085 A 
ATOM      6  C   UNL d   1      45.020 -14.774  36.990  0.00  0.00     0.018 A 
ATOM      7  O   UNL d   1      43.713 -16.778  36.330  0.00  0.00    -0.265 OA
ATOM      8  C   UNL d   1      46.219 -15.421  36.553  0.00  0.00     0.019 A 
ATOM      9  C   UNL d   1      45.446 -14.111  37.209  0.00  0.00     0.002 A 
ATOM     10  C   UNL d   1      46.266 -14.102  37.099  0.00  0.00     0.000 A 
ATOM     11  C   UNL d   1      46.646 -14.752  36.775  0.00  0.00     0.002 A 
ENDROOT
BRANCH   1  12
ATOM     12  C   UNL d   1      42.946 -15.463  36.987  0.00  0.00     0.216 C 
ATOM     13  O   UNL d   1      42.632 -15.442  37.763  0.00  0.00    -0.644 OA
ATOM     14  O   UNL d   1      42.438 -15.494  36.340  0.00  0.00    -0.644 OA
ENDBRANCH   1  12
TORSDOF 1
ENDMDL
MODEL 2
REMARK VINA RESULT:       2.7      7.541      7.845
REMARK  1 active torsions:
REMARK  status: ('A' for Active; 'I' for Inactive)
REMARK    1  A    between atoms: C_7  and  C_1 
ROOT
ATOM      1  C   UNL d   1      46.093 -19.571  43.774  0.00  0.00     0.122 A 
ATOM      2  C   UNL d   1      46.161 -18.739  43.838  0.00  0.00     0.285 A 
ATOM      3  C   UNL d   1      46.166 -19.918  43.032  0.00  0.00     0.012 A 
ATOM      4  N   UNL d   1      46.297 -18.271  43.173  0.00  0.00    -0.208 NA
ATOM      5  C   UNL d   1      46.369 -18.635  42.429  0.00  0.00     0.085 A 
ATOM      6  C   UNL d   1      46.304 -19.458  42.354  0.00  0.00     0.018 A 
ATOM      7  O   UNL d   1      46.089 -18.383  44.581  0.00  0.00    -0.265 OA
ATOM      8  C   UNL d   1      46.505 -18.172  41.761  0.00  0.00     0.019 A 
ATOM      9  C   UNL d   1      46.374 -19.818  41.623  0.00  0.00     0.002 A 
ATOM     10  C   UNL d   1      46.511 -19.351  40.954  0.00  0.00     0.000 A 
ATOM     11  C   UNL d   1      46.576 -18.537  41.025  0.00  0.00     0.002 A 
ENDROOT
BRANCH   1  12
ATOM     12  C   UNL d   1      45.958 -20.029  44.436  0.00  0.00     0.216 C 
ATOM     13  O   UNL d   1      46.592 -20.201  44.955  0.00  0.00    -0.644 OA
ATOM     14  O   UNL d   1      45.206 -20.323  44.596  0.00  0.00    -0.644 OA
ENDBRANCH   1  12
TORSDOF 1
ENDMDL
MODEL 3
REMARK VINA RESULT:       4.5      1.843      2.834
REMARK  1 active torsions:
REMARK  status: ('A' for Active; 'I' for Inactive)
REMARK    1  A    between atoms: C_7  and  C_1 
ROOT
ATOM      1  C   UNL d   1      45.687 -14.740  37.032  0.00  0.00     0.122 A 
ATOM      2  C   UNL d   1      45.850 -15.416  36.566  0.00  0.00     0.285 A 
ATOM      3  C   UNL d   1      44.909 -14.590  37.254  0.00  0.00     0.012 A 
ATOM      4  N   UNL d   1      45.247 -15.926  36.331  0.00  0.00    -0.208 NA
ATOM      5  C   UNL d   1      44.465 -15.763  36.562  0.00  0.00     0.085 A 
ATOM      6  C   UNL d   1      44.292 -15.096  37.024  0.00  0.00     0.018 A 
ATOM      7  O   UNL d   1      46.629 -15.573  36.339  0.00  0.00    -0.265 OA
ATOM      8  C   UNL d   1      43.857 -16.270  36.330  0.00  0.00     0.019 A 
ATOM      9  C   UNL d   1      43.523 -14.934  37.252  0.00  0.00     0.002 A 
ATOM     10  C   UNL d   1      42.916 -15.444  37.018  0.00  0.00     0.000 A 
ATOM     11  C   UNL d   1      43.083 -16.105  36.562  0.00  0.00     0.002 A 
ENDROOT
BRANCH   1  12
ATOM     12  C   UNL d   1      46.288 -14.238  37.262  0.00  0.00     0.216 C 
ATOM     13  O   UNL d   1      46.592 -13.682  36.715  0.00  0.00    -0.644 OA
ATOM     14  O   UNL d   1      46.596 -14.274  38.024  0.00  0.00    -0.644 OA
ENDBRANCH   1  12
TORSDOF 1
ENDMDL
