MODEL 1
REMARK VINA RESULT:      51.6      0.000      0.000
REMARK  4 active torsions:
REMARK  status: ('A' for Active; 'I' for Inactive)
REMARK    1  A    between atoms: N_2  and  S_1 
REMARK    2  A    between atoms: C_4  and  S_1 
REMARK    3  A    between atoms: C_5  and  N_3 
REMARK    4  A    between atoms: C_12  and  C_13 
ROOT
ATOM      1  N   UNL d   1     -55.184-101.965 -40.350  0.00  0.00    -0.226 N 
ATOM      2  N   UNL d   1     -55.325-102.266 -38.734  0.00  0.00    -0.299 N 
ATOM      3  C   UNL d   1     -55.712-102.536 -40.082  0.00  0.00     0.111 A 
ATOM      4  C   UNL d   1     -54.720-101.538 -39.810  0.00  0.00     0.111 A 
ATOM      5  C   UNL d   1     -55.783-102.686 -39.274  0.00  0.00     0.100 A 
ATOM      6  C   UNL d   1     -54.791-101.689 -39.002  0.00  0.00     0.100 A 
ENDROOT
BRANCH   1   7
ATOM      7  S   UNL d   1     -55.114-101.814 -41.162  0.00  0.00     0.271 S 
ATOM      8  O   UNL d   1     -55.186-101.005 -41.018  0.00  0.00    -0.200 OA
ATOM      9  O   UNL d   1     -55.041-102.624 -41.307  0.00  0.00    -0.200 OA
BRANCH   7  10
ATOM     10  C   UNL d   1     -55.044-101.665 -41.967  0.00  0.00     0.104 A 
ATOM     11  C   UNL d   1     -54.905-102.284 -42.491  0.00  0.00     0.013 A 
ATOM     12  C   UNL d   1     -54.834-102.134 -43.299  0.00  0.00    -0.004 A 
ATOM     13  C   UNL d   1     -54.903-101.364 -43.583  0.00  0.00    -0.023 A 
ATOM     14  C   UNL d   1     -55.041-100.748 -43.060  0.00  0.00    -0.004 A 
ATOM     15  C   UNL d   1     -55.111-100.899 -42.252  0.00  0.00     0.013 A 
BRANCH  13  16
ATOM     16  C   UNL d   1     -54.832-101.213 -44.395  0.00  0.00     0.019 C 
ATOM     17  C   UNL d   1     -54.722-102.019 -44.535  0.00  0.00     0.004 C 
ATOM     18  C   UNL d   1     -54.942-100.408 -44.255  0.00  0.00     0.004 C 
ATOM     19  C   UNL d   1     -54.762-101.064 -45.199  0.00  0.00     0.004 C 
ENDBRANCH  13  16
ENDBRANCH   7  10
ENDBRANCH   1   7
BRANCH   2  20
ATOM     20  C   UNL d   1     -55.396-102.418 -37.918  0.00  0.00     0.092 A 
ATOM     21  C   UNL d   1     -56.107-102.726 -37.612  0.00  0.00     0.156 A 
ATOM     22  F   UNL d   1     -56.698-102.871 -38.086  0.00  0.00    -0.203 F 
ATOM     23  C   UNL d   1     -56.177-102.876 -36.807  0.00  0.00     0.031 A 
ATOM     24  C   UNL d   1     -55.537-102.719 -36.298  0.00  0.00     0.002 A 
ATOM     25  C   UNL d   1     -54.835-102.414 -36.605  0.00  0.00     0.002 A 
ATOM     26  C   UNL d   1     -54.765-102.264 -37.409  0.00  0.00     0.020 A 
ENDBRANCH   2  20
TORSDOF 4
ENDMDL
