MODEL 1
REMARK VINA RESULT:      -7.8      0.000      0.000
REMARK  4 active torsions:
REMARK  status: ('A' for Active; 'I' for Inactive)
REMARK    1  A    between atoms: C_8  and  N_1 
REMARK    2  A    between atoms: C_6  and  C_3 
REMARK       I    between atoms: N_9  and  C_6 
REMARK    3  A    between atoms: C_13  and  N_9 
REMARK    4  A    between atoms: C_14  and  C_13 
ROOT
ATOM      1  N   UNL d   1     -48.337  12.883  22.720  0.00  0.00    -0.276 N 
ATOM      2  C   UNL d   1     -47.597  13.235  22.605  0.00  0.00     0.181 A 
ATOM      3  C   UNL d   1     -47.085  12.960  23.182  0.00  0.00     0.126 A 
ATOM      4  C   UNL d   1     -48.274  12.384  23.381  0.00  0.00     0.152 A 
ATOM      5  S   UNL d   1     -47.499  12.432  23.667  0.00  0.00    -0.051 SA
ATOM      6  S   UNL d   1     -48.884  11.918  23.698  0.00  0.00    -0.052 SA
ATOM      7  N   UNL d   1     -47.409  13.773  22.007  0.00  0.00    -0.128 N 
ENDROOT
BRANCH   3   8
ATOM      8  C   UNL d   1     -46.289  13.169  23.274  0.00  0.00     0.288 C 
ATOM      9  N   UNL d   1     -45.716  12.580  23.353  0.00  0.00    -0.204 NA
ATOM     10  O   UNL d   1     -46.064  13.962  23.286  0.00  0.00    -0.265 OA
BRANCH   9  11
ATOM     11  C   UNL d   1     -45.937  11.780  23.342  0.00  0.00     0.127 C 
BRANCH  11  12
ATOM     12  C   UNL d   1     -45.371  11.188  23.418  0.00  0.00     0.119 A 
ATOM     13  O   UNL d   1     -44.572  11.261  23.234  0.00  0.00    -0.304 OA
ATOM     14  C   UNL d   1     -44.198  10.536  23.391  0.00  0.00     0.123 A 
ATOM     15  C   UNL d   1     -44.783  10.017  23.675  0.00  0.00     0.029 A 
ATOM     16  C   UNL d   1     -45.503  10.418  23.691  0.00  0.00     0.028 A 
ENDBRANCH  11  12
ENDBRANCH   9  11
ENDBRANCH   3   8
BRANCH   1  17
ATOM     17  C   UNL d   1     -49.019  13.002  22.265  0.00  0.00     0.067 A 
ATOM     18  C   UNL d   1     -49.166  12.525  21.617  0.00  0.00     0.018 A 
ATOM     19  C   UNL d   1     -49.847  12.643  21.162  0.00  0.00     0.002 A 
ATOM     20  C   UNL d   1     -50.375  13.242  21.366  0.00  0.00     0.000 A 
ATOM     21  C   UNL d   1     -50.220  13.727  22.031  0.00  0.00     0.002 A 
ATOM     22  C   UNL d   1     -49.543  13.601  22.473  0.00  0.00     0.018 A 
ENDBRANCH   1  17
TORSDOF 4
ENDMDL
MODEL 2
REMARK VINA RESULT:      -7.6      1.432      1.721
REMARK  4 active torsions:
REMARK  status: ('A' for Active; 'I' for Inactive)
REMARK    1  A    between atoms: C_8  and  N_1 
REMARK    2  A    between atoms: C_6  and  C_3 
REMARK       I    between atoms: N_9  and  C_6 
REMARK    3  A    between atoms: C_13  and  N_9 
REMARK    4  A    between atoms: C_14  and  C_13 
ROOT
ATOM      1  N   UNL d   1     -48.018  12.784  22.892  0.00  0.00    -0.276 N 
ATOM      2  C   UNL d   1     -47.606  13.467  22.675  0.00  0.00     0.181 A 
ATOM      3  C   UNL d   1     -46.854  13.432  23.000  0.00  0.00     0.126 A 
ATOM      4  C   UNL d   1     -47.508  12.324  23.358  0.00  0.00     0.152 A 
ATOM      5  S   UNL d   1     -46.788  12.724  23.425  0.00  0.00    -0.051 SA
ATOM      6  S   UNL d   1     -47.690  11.588  23.698  0.00  0.00    -0.052 SA
ATOM      7  N   UNL d   1     -47.904  14.081  22.209  0.00  0.00    -0.128 N 
ENDROOT
BRANCH   3   8
ATOM      8  C   UNL d   1     -46.257  14.001  22.922  0.00  0.00     0.288 C 
ATOM      9  N   UNL d   1     -45.536  13.796  22.579  0.00  0.00    -0.204 NA
ATOM     10  O   UNL d   1     -46.380  14.772  23.185  0.00  0.00    -0.265 OA
BRANCH   9  11
ATOM     11  C   UNL d   1     -45.408  13.020  22.313  0.00  0.00     0.127 C 
BRANCH  11  12
ATOM     12  C   UNL d   1     -44.668  12.789  22.034  0.00  0.00     0.119 A 
ATOM     13  O   UNL d   1     -44.248  12.127  22.281  0.00  0.00    -0.304 OA
ATOM     14  C   UNL d   1     -43.531  12.098  21.862  0.00  0.00     0.123 A 
ATOM     15  C   UNL d   1     -43.520  12.756  21.353  0.00  0.00     0.029 A 
ATOM     16  C   UNL d   1     -44.219  13.180  21.459  0.00  0.00     0.028 A 
ENDBRANCH  11  12
ENDBRANCH   9  11
ENDBRANCH   3   8
BRANCH   1  17
ATOM     17  C   UNL d   1     -48.796  12.588  22.687  0.00  0.00     0.067 A 
ATOM     18  C   UNL d   1     -49.413  12.777  23.191  0.00  0.00     0.018 A 
ATOM     19  C   UNL d   1     -50.191  12.582  22.986  0.00  0.00     0.002 A 
ATOM     20  C   UNL d   1     -50.339  12.196  22.274  0.00  0.00     0.000 A 
ATOM     21  C   UNL d   1     -49.705  12.004  21.762  0.00  0.00     0.002 A 
ATOM     22  C   UNL d   1     -48.940  12.202  21.974  0.00  0.00     0.018 A 
ENDBRANCH   1  17
TORSDOF 4
ENDMDL
MODEL 3
REMARK VINA RESULT:      -6.8      1.798      4.417
REMARK  4 active torsions:
REMARK  status: ('A' for Active; 'I' for Inactive)
REMARK    1  A    between atoms: C_8  and  N_1 
REMARK    2  A    between atoms: C_6  and  C_3 
REMARK       I    between atoms: N_9  and  C_6 
REMARK    3  A    between atoms: C_13  and  N_9 
REMARK    4  A    between atoms: C_14  and  C_13 
ROOT
ATOM      1  N   UNL d   1     -47.151  12.826  22.693  0.00  0.00    -0.276 N 
ATOM      2  C   UNL d   1     -47.077  13.628  22.880  0.00  0.00     0.181 A 
ATOM      3  C   UNL d   1     -47.632  14.049  22.448  0.00  0.00     0.126 A 
ATOM      4  C   UNL d   1     -47.763  12.756  22.136  0.00  0.00     0.152 A 
ATOM      5  S   UNL d   1     -48.061  13.513  21.985  0.00  0.00    -0.051 SA
ATOM      6  S   UNL d   1     -48.029  12.049  21.792  0.00  0.00    -0.052 SA
ATOM      7  N   UNL d   1     -46.534  13.949  23.414  0.00  0.00    -0.128 N 
ENDROOT
BRANCH   3   8
ATOM      8  C   UNL d   1     -47.751  14.868  22.465  0.00  0.00     0.288 C 
ATOM      9  N   UNL d   1     -48.476  15.173  22.715  0.00  0.00    -0.204 NA
ATOM     10  O   UNL d   1     -47.150  15.382  22.234  0.00  0.00    -0.265 OA
BRANCH   9  11
ATOM     11  C   UNL d   1     -49.085  14.659  22.948  0.00  0.00     0.127 C 
BRANCH  11  12
ATOM     12  C   UNL d   1     -49.797  14.957  23.236  0.00  0.00     0.119 A 
ATOM     13  O   UNL d   1     -49.945  15.743  23.429  0.00  0.00    -0.304 OA
ATOM     14  C   UNL d   1     -50.729  15.805  23.698  0.00  0.00     0.123 A 
ATOM     15  C   UNL d   1     -51.058  15.042  23.666  0.00  0.00     0.029 A 
ATOM     16  C   UNL d   1     -50.485  14.521  23.382  0.00  0.00     0.028 A 
ENDBRANCH  11  12
ENDBRANCH   9  11
ENDBRANCH   3   8
BRANCH   1  17
ATOM     17  C   UNL d   1     -46.702  12.201  23.000  0.00  0.00     0.067 A 
ATOM     18  C   UNL d   1     -45.888  12.201  22.914  0.00  0.00     0.018 A 
ATOM     19  C   UNL d   1     -45.438  11.578  23.221  0.00  0.00     0.002 A 
ATOM     20  C   UNL d   1     -45.816  10.959  23.612  0.00  0.00     0.000 A 
ATOM     21  C   UNL d   1     -46.648  10.963  23.698  0.00  0.00     0.002 A 
ATOM     22  C   UNL d   1     -47.082  11.585  23.391  0.00  0.00     0.018 A 
ENDBRANCH   1  17
TORSDOF 4
ENDMDL
MODEL 4
REMARK VINA RESULT:      -6.5      7.933      9.316
REMARK  4 active torsions:
REMARK  status: ('A' for Active; 'I' for Inactive)
REMARK    1  A    between atoms: C_8  and  N_1 
REMARK    2  A    between atoms: C_6  and  C_3 
REMARK       I    between atoms: N_9  and  C_6 
REMARK    3  A    between atoms: C_13  and  N_9 
REMARK    4  A    between atoms: C_14  and  C_13 
ROOT
ATOM      1  N   UNL d   1     -39.233  14.772  21.488  0.00  0.00    -0.276 N 
ATOM      2  C   UNL d   1     -40.018  14.742  21.228  0.00  0.00     0.181 A 
ATOM      3  C   UNL d   1     -40.191  15.444  20.842  0.00  0.00     0.126 A 
ATOM      4  C   UNL d   1     -38.923  15.506  21.256  0.00  0.00     0.152 A 
ATOM      5  S   UNL d   1     -39.516  15.922  20.856  0.00  0.00    -0.051 SA
ATOM      6  S   UNL d   1     -38.151  15.776  21.401  0.00  0.00    -0.052 SA
ATOM      7  N   UNL d   1     -40.537  14.109  21.341  0.00  0.00    -0.128 N 
ENDROOT
BRANCH   3   8
ATOM      8  C   UNL d   1     -40.915  15.648  20.494  0.00  0.00     0.288 C 
ATOM      9  N   UNL d   1     -40.997  15.629  19.674  0.00  0.00    -0.204 NA
ATOM     10  O   UNL d   1     -41.555  15.871  20.964  0.00  0.00    -0.265 OA
BRANCH   9  11
ATOM     11  C   UNL d   1     -40.355  15.405  19.197  0.00  0.00     0.127 C 
BRANCH  11  12
ATOM     12  C   UNL d   1     -40.448  15.317  18.384  0.00  0.00     0.119 A 
ATOM     13  O   UNL d   1     -40.358  14.615  17.964  0.00  0.00    -0.304 OA
ATOM     14  C   UNL d   1     -40.500  14.769  17.160  0.00  0.00     0.123 A 
ATOM     15  C   UNL d   1     -40.679  15.579  17.095  0.00  0.00     0.029 A 
ATOM     16  C   UNL d   1     -40.647  15.915  17.847  0.00  0.00     0.028 A 
ENDBRANCH  11  12
ENDBRANCH   9  11
ENDBRANCH   3   8
BRANCH   1  17
ATOM     17  C   UNL d   1     -38.826  14.183  21.904  0.00  0.00     0.067 A 
ATOM     18  C   UNL d   1     -38.898  14.132  22.718  0.00  0.00     0.018 A 
ATOM     19  C   UNL d   1     -38.491  13.543  23.134  0.00  0.00     0.002 A 
ATOM     20  C   UNL d   1     -38.013  13.012  22.724  0.00  0.00     0.000 A 
ATOM     21  C   UNL d   1     -37.942  13.069  21.892  0.00  0.00     0.002 A 
ATOM     22  C   UNL d   1     -38.349  13.654  21.491  0.00  0.00     0.018 A 
ENDBRANCH   1  17
TORSDOF 4
ENDMDL
MODEL 5
REMARK VINA RESULT:      -6.3      8.579     10.044
REMARK  4 active torsions:
REMARK  status: ('A' for Active; 'I' for Inactive)
REMARK    1  A    between atoms: C_8  and  N_1 
REMARK    2  A    between atoms: C_6  and  C_3 
REMARK       I    between atoms: N_9  and  C_6 
REMARK    3  A    between atoms: C_13  and  N_9 
REMARK    4  A    between atoms: C_14  and  C_13 
ROOT
ATOM      1  N   UNL d   1     -39.294  14.874  19.843  0.00  0.00    -0.276 N 
ATOM      2  C   UNL d   1     -39.822  14.683  19.235  0.00  0.00     0.181 A 
ATOM      3  C   UNL d   1     -39.709  15.211  18.618  0.00  0.00     0.126 A 
ATOM      4  C   UNL d   1     -38.852  15.530  19.592  0.00  0.00     0.152 A 
ATOM      5  S   UNL d   1     -39.109  15.739  18.834  0.00  0.00    -0.051 SA
ATOM      6  S   UNL d   1     -38.255  15.910  20.027  0.00  0.00    -0.052 SA
ATOM      7  N   UNL d   1     -40.369  14.065  19.250  0.00  0.00    -0.128 N 
ENDROOT
BRANCH   3   8
ATOM      8  C   UNL d   1     -40.121  15.222  17.899  0.00  0.00     0.288 C 
ATOM      9  N   UNL d   1     -39.754  14.952  17.212  0.00  0.00    -0.204 NA
ATOM     10  O   UNL d   1     -40.895  15.503  17.866  0.00  0.00    -0.265 OA
BRANCH   9  11
ATOM     11  C   UNL d   1     -38.974  14.668  17.240  0.00  0.00     0.127 C 
BRANCH  11  12
ATOM     12  C   UNL d   1     -38.587  14.438  16.551  0.00  0.00     0.119 A 
ATOM     13  O   UNL d   1     -38.391  14.931  15.923  0.00  0.00    -0.304 OA
ATOM     14  C   UNL d   1     -38.007  14.479  15.342  0.00  0.00     0.123 A 
ATOM     15  C   UNL d   1     -37.970  13.698  15.626  0.00  0.00     0.029 A 
ATOM     16  C   UNL d   1     -38.327  13.673  16.369  0.00  0.00     0.028 A 
ENDBRANCH  11  12
ENDBRANCH   9  11
ENDBRANCH   3   8
BRANCH   1  17
ATOM     17  C   UNL d   1     -39.216  14.487  20.571  0.00  0.00     0.067 A 
ATOM     18  C   UNL d   1     -38.584  13.983  20.701  0.00  0.00     0.018 A 
ATOM     19  C   UNL d   1     -38.505  13.595  21.428  0.00  0.00     0.002 A 
ATOM     20  C   UNL d   1     -39.066  13.721  22.018  0.00  0.00     0.000 A 
ATOM     21  C   UNL d   1     -39.710  14.237  21.881  0.00  0.00     0.002 A 
ATOM     22  C   UNL d   1     -39.778  14.615  21.159  0.00  0.00     0.018 A 
ENDBRANCH   1  17
TORSDOF 4
ENDMDL
MODEL 6
REMARK VINA RESULT:      -6.3      8.176      9.102
REMARK  4 active torsions:
REMARK  status: ('A' for Active; 'I' for Inactive)
REMARK    1  A    between atoms: C_8  and  N_1 
REMARK    2  A    between atoms: C_6  and  C_3 
REMARK       I    between atoms: N_9  and  C_6 
REMARK    3  A    between atoms: C_13  and  N_9 
REMARK    4  A    between atoms: C_14  and  C_13 
ROOT
ATOM      1  N   UNL d   1     -39.515  15.020  18.974  0.00  0.00    -0.276 N 
ATOM      2  C   UNL d   1     -40.100  14.856  19.535  0.00  0.00     0.181 A 
ATOM      3  C   UNL d   1     -39.961  15.317  20.199  0.00  0.00     0.126 A 
ATOM      4  C   UNL d   1     -39.010  15.592  19.302  0.00  0.00     0.152 A 
ATOM      5  S   UNL d   1     -39.286  15.775  20.060  0.00  0.00    -0.051 SA
ATOM      6  S   UNL d   1     -38.344  15.921  18.932  0.00  0.00    -0.052 SA
ATOM      7  N   UNL d   1     -40.720  14.318  19.440  0.00  0.00    -0.128 N 
ENDROOT
BRANCH   3   8
ATOM      8  C   UNL d   1     -40.412  15.328  20.893  0.00  0.00     0.288 C 
ATOM      9  N   UNL d   1     -40.116  14.982  21.581  0.00  0.00    -0.204 NA
ATOM     10  O   UNL d   1     -41.156  15.683  20.902  0.00  0.00    -0.265 OA
BRANCH   9  11
ATOM     11  C   UNL d   1     -39.368  14.623  21.578  0.00  0.00     0.127 C 
BRANCH  11  12
ATOM     12  C   UNL d   1     -39.063  14.282  22.263  0.00  0.00     0.119 A 
ATOM     13  O   UNL d   1     -38.820  14.691  22.934  0.00  0.00    -0.304 OA
ATOM     14  C   UNL d   1     -38.550  14.139  23.494  0.00  0.00     0.123 A 
ATOM     15  C   UNL d   1     -38.633  13.385  23.153  0.00  0.00     0.029 A 
ATOM     16  C   UNL d   1     -38.948  13.474  22.396  0.00  0.00     0.028 A 
ENDBRANCH  11  12
ENDBRANCH   9  11
ENDBRANCH   3   8
BRANCH   1  17
ATOM     17  C   UNL d   1     -39.441  14.682  18.222  0.00  0.00     0.067 A 
ATOM     18  C   UNL d   1     -39.790  15.041  17.575  0.00  0.00     0.018 A 
ATOM     19  C   UNL d   1     -39.716  14.703  16.823  0.00  0.00     0.002 A 
ATOM     20  C   UNL d   1     -39.289  14.005  16.731  0.00  0.00     0.000 A 
ATOM     21  C   UNL d   1     -38.934  13.641  17.396  0.00  0.00     0.002 A 
ATOM     22  C   UNL d   1     -39.014  13.983  18.134  0.00  0.00     0.018 A 
ENDBRANCH   1  17
TORSDOF 4
ENDMDL
MODEL 7
REMARK VINA RESULT:      -5.6      8.996      9.585
REMARK  4 active torsions:
REMARK  status: ('A' for Active; 'I' for Inactive)
REMARK    1  A    between atoms: C_8  and  N_1 
REMARK    2  A    between atoms: C_6  and  C_3 
REMARK       I    between atoms: N_9  and  C_6 
REMARK    3  A    between atoms: C_13  and  N_9 
REMARK    4  A    between atoms: C_14  and  C_13 
ROOT
ATOM      1  N   UNL d   1     -39.168  14.965  18.623  0.00  0.00    -0.276 N 
ATOM      2  C   UNL d   1     -39.189  14.407  19.234  0.00  0.00     0.181 A 
ATOM      3  C   UNL d   1     -38.464  14.413  19.617  0.00  0.00     0.126 A 
ATOM      4  C   UNL d   1     -38.416  15.316  18.634  0.00  0.00     0.152 A 
ATOM      5  S   UNL d   1     -37.980  14.975  19.249  0.00  0.00    -0.051 SA
ATOM      6  S   UNL d   1     -38.148  15.909  18.117  0.00  0.00    -0.052 SA
ATOM      7  N   UNL d   1     -39.833  13.927  19.424  0.00  0.00    -0.128 N 
ENDROOT
BRANCH   3   8
ATOM      8  C   UNL d   1     -38.244  13.941  20.261  0.00  0.00     0.288 C 
ATOM      9  N   UNL d   1     -38.254  14.256  21.023  0.00  0.00    -0.204 NA
ATOM     10  O   UNL d   1     -38.015  13.158  20.146  0.00  0.00    -0.265 OA
BRANCH   9  11
ATOM     11  C   UNL d   1     -38.484  15.045  21.145  0.00  0.00     0.127 C 
BRANCH  11  12
ATOM     12  C   UNL d   1     -38.549  15.350  21.907  0.00  0.00     0.119 A 
ATOM     13  O   UNL d   1     -39.236  15.366  22.360  0.00  0.00    -0.304 OA
ATOM     14  C   UNL d   1     -39.061  15.719  23.091  0.00  0.00     0.123 A 
ATOM     15  C   UNL d   1     -38.253  15.920  23.078  0.00  0.00     0.029 A 
ATOM     16  C   UNL d   1     -37.940  15.692  22.349  0.00  0.00     0.028 A 
ENDBRANCH  11  12
ENDBRANCH   9  11
ENDBRANCH   3   8
BRANCH   1  17
ATOM     17  C   UNL d   1     -39.779  15.144  18.094  0.00  0.00     0.067 A 
ATOM     18  C   UNL d   1     -39.820  14.764  17.371  0.00  0.00     0.018 A 
ATOM     19  C   UNL d   1     -40.430  14.943  16.842  0.00  0.00     0.002 A 
ATOM     20  C   UNL d   1     -40.996  15.506  17.049  0.00  0.00     0.000 A 
ATOM     21  C   UNL d   1     -40.950  15.892  17.790  0.00  0.00     0.002 A 
ATOM     22  C   UNL d   1     -40.342  15.707  18.305  0.00  0.00     0.018 A 
ENDBRANCH   1  17
TORSDOF 4
ENDMDL
MODEL 8
REMARK VINA RESULT:      -5.6      8.726      9.743
REMARK  4 active torsions:
REMARK  status: ('A' for Active; 'I' for Inactive)
REMARK    1  A    between atoms: C_8  and  N_1 
REMARK    2  A    between atoms: C_6  and  C_3 
REMARK       I    between atoms: N_9  and  C_6 
REMARK    3  A    between atoms: C_13  and  N_9 
REMARK    4  A    between atoms: C_14  and  C_13 
ROOT
ATOM      1  N   UNL d   1     -39.132  14.841  19.784  0.00  0.00    -0.276 N 
ATOM      2  C   UNL d   1     -39.607  14.287  19.394  0.00  0.00     0.181 A 
ATOM      3  C   UNL d   1     -39.372  14.248  18.610  0.00  0.00     0.126 A 
ATOM      4  C   UNL d   1     -38.597  15.145  19.226  0.00  0.00     0.152 A 
ATOM      5  S   UNL d   1     -38.746  14.779  18.499  0.00  0.00    -0.051 SA
ATOM      6  S   UNL d   1     -38.014  15.718  19.373  0.00  0.00    -0.052 SA
ATOM      7  N   UNL d   1     -40.216  13.848  19.740  0.00  0.00    -0.128 N 
ENDROOT
BRANCH   3   8
ATOM      8  C   UNL d   1     -39.699  13.766  18.022  0.00  0.00     0.288 C 
ATOM      9  N   UNL d   1     -40.290  14.062  17.528  0.00  0.00    -0.204 NA
ATOM     10  O   UNL d   1     -39.439  12.990  17.927  0.00  0.00    -0.265 OA
BRANCH   9  11
ATOM     11  C   UNL d   1     -40.556  14.843  17.619  0.00  0.00     0.127 C 
BRANCH  11  12
ATOM     12  C   UNL d   1     -41.057  15.184  17.062  0.00  0.00     0.119 A 
ATOM     13  O   UNL d   1     -41.044  15.038  16.253  0.00  0.00    -0.304 OA
ATOM     14  C   UNL d   1     -41.640  15.492  15.893  0.00  0.00     0.123 A 
ATOM     15  C   UNL d   1     -42.018  15.919  16.498  0.00  0.00     0.029 A 
ATOM     16  C   UNL d   1     -41.660  15.729  17.217  0.00  0.00     0.028 A 
ENDBRANCH  11  12
ENDBRANCH   9  11
ENDBRANCH   3   8
BRANCH   1  17
ATOM     17  C   UNL d   1     -39.174  15.057  20.582  0.00  0.00     0.067 A 
ATOM     18  C   UNL d   1     -39.754  15.575  20.835  0.00  0.00     0.018 A 
ATOM     19  C   UNL d   1     -39.798  15.792  21.633  0.00  0.00     0.002 A 
ATOM     20  C   UNL d   1     -39.254  15.482  22.168  0.00  0.00     0.000 A 
ATOM     21  C   UNL d   1     -38.662  14.952  21.905  0.00  0.00     0.002 A 
ATOM     22  C   UNL d   1     -38.629  14.745  21.114  0.00  0.00     0.018 A 
ENDBRANCH   1  17
TORSDOF 4
ENDMDL
MODEL 9
REMARK VINA RESULT:      -5.0      8.519      9.907
REMARK  4 active torsions:
REMARK  status: ('A' for Active; 'I' for Inactive)
REMARK    1  A    between atoms: C_8  and  N_1 
REMARK    2  A    between atoms: C_6  and  C_3 
REMARK       I    between atoms: N_9  and  C_6 
REMARK    3  A    between atoms: C_13  and  N_9 
REMARK    4  A    between atoms: C_14  and  C_13 
ROOT
ATOM      1  N   UNL d   1     -38.967  15.140  17.629  0.00  0.00    -0.276 N 
ATOM      2  C   UNL d   1     -38.627  15.056  18.379  0.00  0.00     0.181 A 
ATOM      3  C   UNL d   1     -39.066  15.495  18.914  0.00  0.00     0.126 A 
ATOM      4  C   UNL d   1     -39.625  15.640  17.710  0.00  0.00     0.152 A 
ATOM      5  S   UNL d   1     -39.687  15.859  18.505  0.00  0.00    -0.051 SA
ATOM      6  S   UNL d   1     -40.133  15.878  17.097  0.00  0.00    -0.052 SA
ATOM      7  N   UNL d   1     -37.958  14.604  18.555  0.00  0.00    -0.128 N 
ENDROOT
BRANCH   3   8
ATOM      8  C   UNL d   1     -38.922  15.566  19.727  0.00  0.00     0.288 C 
ATOM      9  N   UNL d   1     -39.474  15.281  20.269  0.00  0.00    -0.204 NA
ATOM     10  O   UNL d   1     -38.229  15.922  19.997  0.00  0.00    -0.265 OA
BRANCH   9  11
ATOM     11  C   UNL d   1     -40.173  14.922  20.001  0.00  0.00     0.127 C 
BRANCH  11  12
ATOM     12  C   UNL d   1     -40.682  14.550  20.530  0.00  0.00     0.119 A 
ATOM     13  O   UNL d   1     -40.499  13.893  20.991  0.00  0.00    -0.304 OA
ATOM     14  C   UNL d   1     -41.166  13.696  21.445  0.00  0.00     0.123 A 
ATOM     15  C   UNL d   1     -41.762  14.244  21.254  0.00  0.00     0.029 A 
ATOM     16  C   UNL d   1     -41.464  14.768  20.692  0.00  0.00     0.028 A 
ENDBRANCH  11  12
ENDBRANCH   9  11
ENDBRANCH   3   8
BRANCH   1  17
ATOM     17  C   UNL d   1     -38.704  14.794  16.924  0.00  0.00     0.067 A 
ATOM     18  C   UNL d   1     -38.202  15.207  16.427  0.00  0.00     0.018 A 
ATOM     19  C   UNL d   1     -37.940  14.862  15.722  0.00  0.00     0.002 A 
ATOM     20  C   UNL d   1     -38.187  14.101  15.525  0.00  0.00     0.000 A 
ATOM     21  C   UNL d   1     -38.701  13.683  16.037  0.00  0.00     0.002 A 
ATOM     22  C   UNL d   1     -38.954  14.034  16.731  0.00  0.00     0.018 A 
ENDBRANCH   1  17
TORSDOF 4
ENDMDL
