MODEL 1
REMARK VINA RESULT:      44.4      0.000      0.000
REMARK  5 active torsions:
REMARK  status: ('A' for Active; 'I' for Inactive)
REMARK    1  A    between atoms: C_9  and  C_1 
REMARK    2  A    between atoms: C_6  and  C_4 
REMARK    3  A    between atoms: C_5  and  C_6 
REMARK    4  A    between atoms: C_8  and  C_5 
REMARK    5  A    between atoms: C_11  and  C_8 
ROOT
ATOM      1  C   UNL d   1     -55.833-102.639 -40.812  0.00  0.00     0.100 A 
ATOM      2  O   UNL d   1     -55.101-102.368 -41.147  0.00  0.00    -0.307 OA
ATOM      3  C   UNL d   1     -56.344-102.747 -41.388  0.00  0.00     0.027 A 
ATOM      4  C   UNL d   1     -55.235-102.330 -41.971  0.00  0.00     0.100 A 
ATOM      5  C   UNL d   1     -56.000-102.565 -42.103  0.00  0.00     0.027 A 
ENDROOT
BRANCH   4   6
ATOM      6  C   UNL d   1     -54.742-102.109 -42.594  0.00  0.00     0.028 C 
BRANCH   6   7
ATOM      7  C   UNL d   1     -54.712-101.335 -42.828  0.00  0.00     0.044 C 
BRANCH   7   8
ATOM      8  C   UNL d   1     -54.855-101.138 -43.616  0.00  0.00     0.196 C 
ATOM      9  O   UNL d   1     -54.999-101.756 -44.168  0.00  0.00    -0.287 OA
BRANCH   8  10
ATOM     10  C   UNL d   1     -54.855-100.356 -43.846  0.00  0.00     0.039 A 
ATOM     11  C   UNL d   1     -54.908-100.142 -44.650  0.00  0.00     0.003 A 
ATOM     12  C   UNL d   1     -54.908 -99.354 -44.880  0.00  0.00     0.000 A 
ATOM     13  C   UNL d   1     -54.854 -98.760 -44.302  0.00  0.00     0.000 A 
ATOM     14  C   UNL d   1     -54.801 -98.972 -43.503  0.00  0.00     0.000 A 
ATOM     15  C   UNL d   1     -54.802 -99.755 -43.288  0.00  0.00     0.003 A 
ENDBRANCH   8  10
ENDBRANCH   7   8
ENDBRANCH   6   7
ENDBRANCH   4   6
BRANCH   1  16
ATOM     16  C   UNL d   1     -55.826-102.717 -39.989  0.00  0.00     0.023 A 
ATOM     17  C   UNL d   1     -55.095-102.773 -39.584  0.00  0.00     0.002 A 
ATOM     18  C   UNL d   1     -55.093-102.852 -38.758  0.00  0.00     0.000 A 
ATOM     19  C   UNL d   1     -55.790-102.875 -38.348  0.00  0.00     0.000 A 
ATOM     20  C   UNL d   1     -56.527-102.819 -38.751  0.00  0.00     0.000 A 
ATOM     21  C   UNL d   1     -56.528-102.740 -39.578  0.00  0.00     0.002 A 
ENDBRANCH   1  16
TORSDOF 5
ENDMDL
