MODEL 1
REMARK VINA RESULT:      -4.1      0.000      0.000
REMARK  6 active torsions:
REMARK  status: ('A' for Active; 'I' for Inactive)
REMARK    1  A    between atoms: C_9  and  N_1 
REMARK    2  A    between atoms: C_2  and  C_3 
REMARK    3  A    between atoms: C_4  and  C_6 
REMARK    4  A    between atoms: C_7  and  C_5 
REMARK       I    between atoms: C_6  and  N_8 
REMARK    5  A    between atoms: N_8  and  N_12 
REMARK    6  A    between atoms: N_12  and  C_17 
ROOT
ATOM      1  C   UNL d   1     -41.423-122.005 -53.046  0.00  0.00     0.005 A 
ATOM      2  C   UNL d   1     -41.402-122.246 -52.257  0.00  0.00     0.059 A 
ATOM      3  C   UNL d   1     -41.370-121.197 -53.202  0.00  0.00     0.000 A 
ATOM      4  C   UNL d   1     -41.330-121.707 -51.657  0.00  0.00     0.005 A 
ATOM      5  C   UNL d   1     -41.297-120.646 -52.588  0.00  0.00     0.000 A 
ATOM      6  C   UNL d   1     -41.279-120.914 -51.829  0.00  0.00     0.000 A 
ENDROOT
BRANCH   2   7
ATOM      7  C   UNL d   1     -41.456-123.068 -52.088  0.00  0.00     0.297 C 
ATOM      8  N   UNL d   1     -41.563-123.302 -51.305  0.00  0.00    -0.106 NA
ATOM      9  O   UNL d   1     -41.402-123.628 -52.700  0.00  0.00    -0.264 OA
BRANCH   8  10
ATOM     10  N   UNL d   1     -41.616-122.744 -50.695  0.00  0.00    -0.145 NA
BRANCH  10  11
ATOM     11  C   UNL d   1     -41.832-122.979 -49.945  0.00  0.00     0.103 A 
ATOM     12  C   UNL d   1     -42.614-123.129 -49.774  0.00  0.00     0.023 A 
ATOM     13  C   UNL d   1     -42.840-123.369 -49.014  0.00  0.00     0.025 A 
ATOM     14  C   UNL d   1     -42.272-123.453 -48.433  0.00  0.00     0.127 A 
ATOM     15  C   UNL d   1     -41.481-123.303 -48.596  0.00  0.00     0.025 A 
ATOM     16  C   UNL d   1     -41.255-123.064 -49.356  0.00  0.00     0.023 A 
BRANCH  14  17
ATOM     17  N   UNL d   1     -42.508-123.692 -47.678  0.00  0.00    -0.114 N 
ATOM     18  O   UNL d   1     -41.975-123.810 -47.080  0.00  0.00    -0.532 OA
ATOM     19  O   UNL d   1     -43.321-123.817 -47.517  0.00  0.00    -0.532 OA
ENDBRANCH  14  17
ENDBRANCH  10  11
ENDBRANCH   8  10
ENDBRANCH   2   7
BRANCH   1  20
ATOM     20  C   UNL d   1     -41.495-122.543 -53.645  0.00  0.00     0.006 A 
ATOM     21  C   UNL d   1     -41.939-122.363 -54.306  0.00  0.00     0.064 A 
ATOM     22  C   UNL d   1     -42.012-122.913 -54.919  0.00  0.00     0.006 A 
ATOM     23  C   UNL d   1     -41.640-123.636 -54.865  0.00  0.00     0.000 A 
ATOM     24  C   UNL d   1     -41.210-123.817 -54.233  0.00  0.00     0.000 A 
ATOM     25  C   UNL d   1     -41.124-123.279 -53.605  0.00  0.00     0.000 A 
BRANCH  21  26
ATOM     26  C   UNL d   1     -42.324-121.625 -54.370  0.00  0.00     0.211 C 
ATOM     27  O   UNL d   1     -43.093-121.523 -54.052  0.00  0.00    -0.644 OA
ATOM     28  O   UNL d   1     -41.957-120.986 -54.746  0.00  0.00    -0.644 OA
ENDBRANCH  21  26
ENDBRANCH   1  20
TORSDOF 6
ENDMDL
