MODEL 1
REMARK VINA RESULT:      31.1      0.000      0.000
REMARK  4 active torsions:
REMARK  status: ('A' for Active; 'I' for Inactive)
REMARK    1  A    between atoms: C_11  and  N_4 
REMARK    2  A    between atoms: C_18  and  C_7 
REMARK    3  A    between atoms: C_19  and  C_11 
REMARK    4  A    between atoms: O_20  and  C_16 
ROOT
ATOM      1  C   UNL d   1     -41.698-122.162 -52.548  0.00  0.00     0.137 A 
ATOM      2  C   UNL d   1     -42.057-122.894 -52.649  0.00  0.00     0.192 A 
ATOM      3  C   UNL d   1     -41.547-121.683 -53.202  0.00  0.00     0.272 A 
ATOM      4  N   UNL d   1     -41.754-121.935 -53.954  0.00  0.00    -0.258 N 
ATOM      5  N   UNL d   1     -42.268-123.155 -53.399  0.00  0.00    -0.204 NA
ATOM      6  C   UNL d   1     -41.488-121.903 -51.791  0.00  0.00     0.205 A 
ATOM      7  C   UNL d   1     -42.117-122.675 -54.060  0.00  0.00     0.152 A 
ATOM      8  C   UNL d   1     -41.640-122.383 -51.147  0.00  0.00     0.062 A 
ATOM      9  O   UNL d   1     -42.210-123.376 -51.996  0.00  0.00    -0.289 OA
ATOM     10  C   UNL d   1     -41.999-123.117 -51.243  0.00  0.00     0.107 A 
ATOM     11  C   UNL d   1     -42.150-123.596 -50.582  0.00  0.00     0.049 A 
ATOM     12  C   UNL d   1     -41.430-122.124 -50.389  0.00  0.00     0.007 A 
ATOM     13  O   UNL d   1     -41.188-120.951 -53.097  0.00  0.00    -0.266 OA
ATOM     14  O   UNL d   1     -41.129-121.169 -51.695  0.00  0.00    -0.286 OA
ATOM     15  C   UNL d   1     -41.940-123.336 -49.832  0.00  0.00     0.096 A 
ATOM     16  C   UNL d   1     -41.579-122.598 -49.736  0.00  0.00     0.024 A 
ENDROOT
BRANCH   4  17
ATOM     17  C   UNL d   1     -41.601-121.450 -54.615  0.00  0.00     0.084 C 
BRANCH  17  18
ATOM     18  C   UNL d   1     -41.731-120.638 -54.567  0.00  0.00     0.018 A 
ATOM     19  C   UNL d   1     -41.268-120.101 -54.994  0.00  0.00     0.002 A 
ATOM     20  C   UNL d   1     -41.405-119.289 -54.941  0.00  0.00     0.000 A 
ATOM     21  C   UNL d   1     -42.022-119.006 -54.447  0.00  0.00     0.000 A 
ATOM     22  C   UNL d   1     -42.488-119.544 -54.018  0.00  0.00     0.000 A 
ATOM     23  C   UNL d   1     -42.341-120.355 -54.079  0.00  0.00     0.002 A 
ENDBRANCH  17  18
ENDBRANCH   4  17
BRANCH   7  24
ATOM     24  C   UNL d   1     -42.324-122.927 -54.813  0.00  0.00     0.038 C 
ATOM     25  C   UNL d   1     -43.007-122.639 -55.170  0.00  0.00     0.003 C 
ENDBRANCH   7  24
BRANCH  15  26
ATOM     26  O   UNL d   1     -42.086-123.806 -49.178  0.00  0.00    -0.328 OA
ATOM     27  C   UNL d   1     -41.705-123.648 -48.467  0.00  0.00     0.181 C 
ENDBRANCH  15  26
TORSDOF 4
ENDMDL
