MODEL 1
REMARK VINA RESULT:      25.1      0.000      0.000
REMARK  4 active torsions:
REMARK  status: ('A' for Active; 'I' for Inactive)
REMARK    1  A    between atoms: C_2  and  C_1 
REMARK    2  A    between atoms: C_3  and  C_1 
REMARK       I    between atoms: N_7  and  C_2 
REMARK    3  A    between atoms: C_4  and  C_3 
REMARK    4  A    between atoms: C_13  and  N_7 
ROOT
ATOM      1  C   UNL d   1      45.477 -15.595  44.177  0.00  0.00     0.128 C 
ATOM      2  C   UNL d   1      44.741 -15.526  44.528  0.00  0.00     0.106 C 
ATOM      3  N   UNL d   1      43.993 -15.454  44.890  0.00  0.00    -0.191 NA
ENDROOT
BRANCH   1   4
ATOM      4  C   UNL d   1      46.164 -15.329  44.568  0.00  0.00     0.289 C 
ATOM      5  N   UNL d   1      46.350 -14.528  44.562  0.00  0.00    -0.207 NA
ATOM      6  O   UNL d   1      46.647 -15.875  44.954  0.00  0.00    -0.264 OA
BRANCH   5   7
ATOM      7  C   UNL d   1      45.867 -13.981  44.175  0.00  0.00     0.085 A 
ATOM      8  C   UNL d   1      45.120 -13.806  44.478  0.00  0.00     0.019 A 
ATOM      9  C   UNL d   1      44.637 -13.259  44.092  0.00  0.00     0.002 A 
ATOM     10  C   UNL d   1      44.900 -12.889  43.404  0.00  0.00     0.000 A 
ATOM     11  C   UNL d   1      45.647 -13.065  43.102  0.00  0.00     0.002 A 
ATOM     12  C   UNL d   1      44.409 -12.340  43.021  0.00  0.00     0.000 C 
ATOM     13  C   UNL d   1      46.130 -13.610  43.487  0.00  0.00     0.019 A 
ENDBRANCH   5   7
ENDBRANCH   1   4
BRANCH   1  14
ATOM     14  C   UNL d   1      45.542 -15.932  43.427  0.00  0.00     0.040 C 
BRANCH  14  15
ATOM     15  C   UNL d   1      45.716 -16.738  43.340  0.00  0.00     0.101 A 
ATOM     16  O   UNL d   1      46.280 -17.226  43.683  0.00  0.00    -0.307 OA
ATOM     17  C   UNL d   1      46.175 -17.983  43.371  0.00  0.00     0.100 A 
ATOM     18  C   UNL d   1      46.629 -18.661  43.563  0.00  0.00     0.027 C 
ATOM     19  C   UNL d   1      45.555 -17.967  42.843  0.00  0.00     0.027 A 
ATOM     20  C   UNL d   1      45.265 -17.191  42.821  0.00  0.00     0.027 A 
ENDBRANCH  14  15
ENDBRANCH   1  14
TORSDOF 4
ENDMDL
MODEL 2
REMARK VINA RESULT:      27.4      1.583      2.485
REMARK  4 active torsions:
REMARK  status: ('A' for Active; 'I' for Inactive)
REMARK    1  A    between atoms: C_2  and  C_1 
REMARK    2  A    between atoms: C_3  and  C_1 
REMARK       I    between atoms: N_7  and  C_2 
REMARK    3  A    between atoms: C_4  and  C_3 
REMARK    4  A    between atoms: C_13  and  N_7 
ROOT
ATOM      1  C   UNL d   1      45.954 -17.830  43.616  0.00  0.00     0.128 C 
ATOM      2  C   UNL d   1      45.146 -17.760  43.518  0.00  0.00     0.106 C 
ATOM      3  N   UNL d   1      44.320 -17.689  43.423  0.00  0.00    -0.191 NA
ENDROOT
BRANCH   1   4
ATOM      4  C   UNL d   1      46.284 -17.969  44.369  0.00  0.00     0.289 C 
ATOM      5  N   UNL d   1      46.317 -17.357  44.917  0.00  0.00    -0.207 NA
ATOM      6  O   UNL d   1      46.573 -18.720  44.552  0.00  0.00    -0.264 OA
BRANCH   5   7
ATOM      7  C   UNL d   1      46.028 -16.606  44.734  0.00  0.00     0.085 A 
ATOM      8  C   UNL d   1      45.259 -16.397  44.946  0.00  0.00     0.019 A 
ATOM      9  C   UNL d   1      44.970 -15.646  44.763  0.00  0.00     0.002 A 
ATOM     10  C   UNL d   1      45.450 -15.104  44.369  0.00  0.00     0.000 A 
ATOM     11  C   UNL d   1      46.220 -15.313  44.156  0.00  0.00     0.002 A 
ATOM     12  C   UNL d   1      45.153 -14.351  44.188  0.00  0.00     0.000 C 
ATOM     13  C   UNL d   1      46.508 -16.063  44.339  0.00  0.00     0.019 A 
ENDBRANCH   5   7
ENDBRANCH   1   4
BRANCH   1  14
ATOM     14  C   UNL d   1      46.454 -17.764  42.962  0.00  0.00     0.040 C 
BRANCH  14  15
ATOM     15  C   UNL d   1      46.508 -18.379  42.409  0.00  0.00     0.101 A 
ATOM     16  O   UNL d   1      46.482 -19.196  42.480  0.00  0.00    -0.307 OA
ATOM     17  C   UNL d   1      46.567 -19.514  41.723  0.00  0.00     0.100 A 
ATOM     18  C   UNL d   1      46.573 -20.330  41.531  0.00  0.00     0.027 C 
ATOM     19  C   UNL d   1      46.646 -18.905  41.189  0.00  0.00     0.027 A 
ATOM     20  C   UNL d   1      46.609 -18.194  41.613  0.00  0.00     0.027 A 
ENDBRANCH  14  15
ENDBRANCH   1  14
TORSDOF 4
ENDMDL
MODEL 3
REMARK VINA RESULT:      27.6      2.366      3.647
REMARK  4 active torsions:
REMARK  status: ('A' for Active; 'I' for Inactive)
REMARK    1  A    between atoms: C_2  and  C_1 
REMARK    2  A    between atoms: C_3  and  C_1 
REMARK       I    between atoms: N_7  and  C_2 
REMARK    3  A    between atoms: C_4  and  C_3 
REMARK    4  A    between atoms: C_13  and  N_7 
ROOT
ATOM      1  C   UNL d   1      46.084 -18.876  43.074  0.00  0.00     0.128 C 
ATOM      2  C   UNL d   1      45.291 -18.860  42.878  0.00  0.00     0.106 C 
ATOM      3  N   UNL d   1      44.480 -18.844  42.682  0.00  0.00    -0.191 NA
ENDROOT
BRANCH   1   4
ATOM      4  C   UNL d   1      46.339 -19.192  43.803  0.00  0.00     0.289 C 
ATOM      5  N   UNL d   1      46.390 -18.702  44.461  0.00  0.00    -0.207 NA
ATOM      6  O   UNL d   1      46.535 -19.992  43.851  0.00  0.00    -0.264 OA
BRANCH   5   7
ATOM      7  C   UNL d   1      46.194 -17.902  44.413  0.00  0.00     0.085 A 
ATOM      8  C   UNL d   1      46.628 -17.400  43.922  0.00  0.00     0.019 A 
ATOM      9  C   UNL d   1      46.432 -16.600  43.874  0.00  0.00     0.002 A 
ATOM     10  C   UNL d   1      45.803 -16.302  44.317  0.00  0.00     0.000 A 
ATOM     11  C   UNL d   1      45.370 -16.803  44.807  0.00  0.00     0.002 A 
ATOM     12  C   UNL d   1      45.612 -15.496  44.263  0.00  0.00     0.000 C 
ATOM     13  C   UNL d   1      45.565 -17.603  44.856  0.00  0.00     0.019 A 
ENDBRANCH   5   7
ENDBRANCH   1   4
BRANCH   1  14
ATOM     14  C   UNL d   1      46.644 -18.578  42.546  0.00  0.00     0.040 C 
BRANCH  14  15
ATOM     15  C   UNL d   1      46.629 -18.799  41.747  0.00  0.00     0.101 A 
ATOM     16  O   UNL d   1      46.646 -19.529  41.372  0.00  0.00    -0.307 OA
ATOM     17  C   UNL d   1      46.618 -19.389  40.558  0.00  0.00     0.100 A 
ATOM     18  C   UNL d   1      46.624 -19.975  39.959  0.00  0.00     0.027 C 
ATOM     19  C   UNL d   1      46.584 -18.586  40.430  0.00  0.00     0.027 A 
ATOM     20  C   UNL d   1      46.591 -18.214  41.170  0.00  0.00     0.027 A 
ENDBRANCH  14  15
ENDBRANCH   1  14
TORSDOF 4
ENDMDL
