MODEL 1
REMARK VINA RESULT:      -3.2      0.000      0.000
REMARK  5 active torsions:
REMARK  status: ('A' for Active; 'I' for Inactive)
REMARK    1  A    between atoms: C_2  and  C_1 
REMARK    2  A    between atoms: N_13  and  C_7 
REMARK    3  A    between atoms: C_12  and  C_21 
REMARK    4  A    between atoms: C_21  and  N_13 
REMARK    5  A    between atoms: O_24  and  C_22 
ROOT
ATOM      1  C   UNL d   1      32.914  21.763 -21.627  0.00  0.00     0.089 A 
ATOM      2  C   UNL d   1      32.689  22.496 -21.925  0.00  0.00     0.302 A 
ATOM      3  C   UNL d   1      33.070  21.676 -20.817  0.00  0.00     0.009 A 
ATOM      4  O   UNL d   1      32.618  23.145 -21.414  0.00  0.00    -0.273 OA
ATOM      5  C   UNL d   1      32.999  22.324 -20.311  0.00  0.00     0.025 A 
ATOM      6  C   UNL d   1      32.773  23.057 -20.609  0.00  0.00     0.103 A 
ATOM      7  O   UNL d   1      32.529  22.594 -22.736  0.00  0.00    -0.259 OA
ATOM      8  C   UNL d   1      33.155  22.233 -19.510  0.00  0.00     0.026 A 
ATOM      9  C   UNL d   1      32.702  23.702 -20.108  0.00  0.00     0.027 A 
ATOM     10  C   UNL d   1      33.082  22.890 -19.006  0.00  0.00     0.094 A 
ATOM     11  C   UNL d   1      32.858  23.616 -19.301  0.00  0.00     0.026 A 
ENDROOT
BRANCH   1  12
ATOM     12  C   UNL d   1      32.985  21.114 -22.134  0.00  0.00     0.140 A 
ATOM     13  S   UNL d   1      32.822  20.317 -21.973  0.00  0.00    -0.026 SA
ATOM     14  C   UNL d   1      32.980  19.886 -22.656  0.00  0.00     0.216 A 
ATOM     15  N   UNL d   1      33.239  20.416 -23.233  0.00  0.00    -0.121 NA
ATOM     16  N   UNL d   1      33.241  21.170 -22.908  0.00  0.00    -0.139 NA
BRANCH  14  17
ATOM     17  N   UNL d   1      32.897  19.069 -22.755  0.00  0.00    -0.216 NA
BRANCH  17  18
ATOM     18  C   UNL d   1      32.465  18.776 -23.395  0.00  0.00     0.126 C 
BRANCH  18  19
ATOM     19  C   UNL d   1      32.296  17.965 -23.445  0.00  0.00     0.119 A 
ATOM     20  O   UNL d   1      32.502  17.319 -22.976  0.00  0.00    -0.304 OA
ATOM     21  C   UNL d   1      32.170  16.647 -23.303  0.00  0.00     0.123 A 
ATOM     22  C   UNL d   1      31.761  16.864 -23.970  0.00  0.00     0.029 A 
ATOM     23  C   UNL d   1      31.833  17.686 -24.067  0.00  0.00     0.028 A 
ENDBRANCH  18  19
ENDBRANCH  17  18
ENDBRANCH  14  17
ENDBRANCH   1  12
BRANCH  10  24
ATOM     24  O   UNL d   1      33.239  22.792 -18.202  0.00  0.00    -0.328 OA
ATOM     25  C   UNL d   1      33.128  23.416 -17.669  0.00  0.00     0.181 C 
ENDBRANCH  10  24
TORSDOF 5
ENDMDL
MODEL 2
REMARK VINA RESULT:      -3.1      1.986      6.455
REMARK  5 active torsions:
REMARK  status: ('A' for Active; 'I' for Inactive)
REMARK    1  A    between atoms: C_2  and  C_1 
REMARK    2  A    between atoms: N_13  and  C_7 
REMARK    3  A    between atoms: C_12  and  C_21 
REMARK    4  A    between atoms: C_21  and  N_13 
REMARK    5  A    between atoms: O_24  and  C_22 
ROOT
ATOM      1  C   UNL d   1      31.843  17.328 -23.933  0.00  0.00     0.089 A 
ATOM      2  C   UNL d   1      32.167  16.781 -24.455  0.00  0.00     0.302 A 
ATOM      3  C   UNL d   1      31.024  17.337 -23.799  0.00  0.00     0.009 A 
ATOM      4  O   UNL d   1      31.674  16.240 -24.844  0.00  0.00    -0.273 OA
ATOM      5  C   UNL d   1      30.537  16.797 -24.188  0.00  0.00     0.025 A 
ATOM      6  C   UNL d   1      30.861  16.250 -24.710  0.00  0.00     0.103 A 
ATOM      7  O   UNL d   1      32.987  16.764 -24.598  0.00  0.00    -0.259 OA
ATOM      8  C   UNL d   1      29.727  16.810 -24.051  0.00  0.00     0.026 A 
ATOM      9  C   UNL d   1      30.377  15.713 -25.097  0.00  0.00     0.027 A 
ATOM     10  C   UNL d   1      29.241  16.264 -24.446  0.00  0.00     0.094 A 
ATOM     11  C   UNL d   1      29.562  15.722 -24.963  0.00  0.00     0.026 A 
ENDROOT
BRANCH   1  12
ATOM     12  C   UNL d   1      32.333  17.869 -23.544  0.00  0.00     0.140 A 
ATOM     13  S   UNL d   1      32.425  18.679 -23.696  0.00  0.00    -0.026 SA
ATOM     14  C   UNL d   1      32.975  18.973 -23.158  0.00  0.00     0.216 A 
ATOM     15  N   UNL d   1      33.218  18.347 -22.680  0.00  0.00    -0.121 NA
ATOM     16  N   UNL d   1      32.820  17.670 -22.920  0.00  0.00    -0.139 NA
BRANCH  14  17
ATOM     17  N   UNL d   1      33.241  19.754 -23.102  0.00  0.00    -0.216 NA
BRANCH  17  18
ATOM     18  C   UNL d   1      33.147  20.168 -22.394  0.00  0.00     0.126 C 
BRANCH  18  19
ATOM     19  C   UNL d   1      33.144  20.999 -22.396  0.00  0.00     0.119 A 
ATOM     20  O   UNL d   1      33.221  21.558 -22.996  0.00  0.00    -0.304 OA
ATOM     21  C   UNL d   1      33.174  22.303 -22.662  0.00  0.00     0.123 A 
ATOM     22  C   UNL d   1      33.070  22.216 -21.861  0.00  0.00     0.029 A 
ATOM     23  C   UNL d   1      33.050  21.404 -21.685  0.00  0.00     0.028 A 
ENDBRANCH  18  19
ENDBRANCH  17  18
ENDBRANCH  14  17
ENDBRANCH   1  12
BRANCH  10  24
ATOM     24  O   UNL d   1      28.428  16.282 -24.304  0.00  0.00    -0.328 OA
ATOM     25  C   UNL d   1      28.113  15.967 -23.606  0.00  0.00     0.181 C 
ENDBRANCH  10  24
TORSDOF 5
ENDMDL
MODEL 3
REMARK VINA RESULT:      -2.0      2.382      4.263
REMARK  5 active torsions:
REMARK  status: ('A' for Active; 'I' for Inactive)
REMARK    1  A    between atoms: C_2  and  C_1 
REMARK    2  A    between atoms: N_13  and  C_7 
REMARK    3  A    between atoms: C_12  and  C_21 
REMARK    4  A    between atoms: C_21  and  N_13 
REMARK    5  A    between atoms: O_24  and  C_22 
ROOT
ATOM      1  C   UNL d   1      32.467  18.048 -23.659  0.00  0.00     0.089 A 
ATOM      2  C   UNL d   1      32.614  18.428 -24.373  0.00  0.00     0.302 A 
ATOM      3  C   UNL d   1      32.551  18.462 -22.944  0.00  0.00     0.009 A 
ATOM      4  O   UNL d   1      32.845  19.224 -24.377  0.00  0.00    -0.273 OA
ATOM      5  C   UNL d   1      32.781  19.254 -22.952  0.00  0.00     0.025 A 
ATOM      6  C   UNL d   1      32.928  19.635 -23.667  0.00  0.00     0.103 A 
ATOM      7  O   UNL d   1      32.532  18.022 -25.096  0.00  0.00    -0.259 OA
ATOM      8  C   UNL d   1      32.863  19.660 -22.243  0.00  0.00     0.026 A 
ATOM      9  C   UNL d   1      33.157  20.422 -23.675  0.00  0.00     0.027 A 
ATOM     10  C   UNL d   1      33.096  20.458 -22.256  0.00  0.00     0.094 A 
ATOM     11  C   UNL d   1      33.241  20.834 -22.964  0.00  0.00     0.026 A 
ENDROOT
BRANCH   1  12
ATOM     12  C   UNL d   1      32.236  17.254 -23.652  0.00  0.00     0.140 A 
ATOM     13  S   UNL d   1      31.482  16.938 -23.789  0.00  0.00    -0.026 SA
ATOM     14  C   UNL d   1      31.537  16.120 -23.720  0.00  0.00     0.216 A 
ATOM     15  N   UNL d   1      32.321  15.935 -23.543  0.00  0.00    -0.121 NA
ATOM     16  N   UNL d   1      32.748  16.635 -23.502  0.00  0.00    -0.139 NA
BRANCH  14  17
ATOM     17  N   UNL d   1      30.922  15.574 -23.812  0.00  0.00    -0.216 NA
BRANCH  17  18
ATOM     18  C   UNL d   1      30.311  15.550 -23.256  0.00  0.00     0.126 C 
BRANCH  18  19
ATOM     19  C   UNL d   1      29.521  15.513 -23.509  0.00  0.00     0.119 A 
ATOM     20  O   UNL d   1      29.173  15.489 -24.256  0.00  0.00    -0.304 OA
ATOM     21  C   UNL d   1      28.361  15.456 -24.160  0.00  0.00     0.123 A 
ATOM     22  C   UNL d   1      28.198  15.460 -23.365  0.00  0.00     0.029 A 
ATOM     23  C   UNL d   1      28.917  15.496 -22.949  0.00  0.00     0.028 A 
ENDBRANCH  18  19
ENDBRANCH  17  18
ENDBRANCH  14  17
ENDBRANCH   1  12
BRANCH  10  24
ATOM     24  O   UNL d   1      33.176  20.859 -21.540  0.00  0.00    -0.328 OA
ATOM     25  C   UNL d   1      32.845  21.611 -21.437  0.00  0.00     0.181 C 
ENDBRANCH  10  24
TORSDOF 5
ENDMDL
MODEL 4
REMARK VINA RESULT:      -1.3      1.221      5.388
REMARK  5 active torsions:
REMARK  status: ('A' for Active; 'I' for Inactive)
REMARK    1  A    between atoms: C_2  and  C_1 
REMARK    2  A    between atoms: N_13  and  C_7 
REMARK    3  A    between atoms: C_12  and  C_21 
REMARK    4  A    between atoms: C_21  and  N_13 
REMARK    5  A    between atoms: O_24  and  C_22 
ROOT
ATOM      1  C   UNL d   1      33.208  20.236 -23.222  0.00  0.00     0.089 A 
ATOM      2  C   UNL d   1      33.226  20.184 -24.044  0.00  0.00     0.302 A 
ATOM      3  C   UNL d   1      33.196  19.546 -22.763  0.00  0.00     0.009 A 
ATOM      4  O   UNL d   1      33.233  19.439 -24.408  0.00  0.00    -0.273 OA
ATOM      5  C   UNL d   1      33.203  18.806 -23.130  0.00  0.00     0.025 A 
ATOM      6  C   UNL d   1      33.222  18.753 -23.951  0.00  0.00     0.103 A 
ATOM      7  O   UNL d   1      33.238  20.871 -24.514  0.00  0.00    -0.259 OA
ATOM      8  C   UNL d   1      33.192  18.126 -22.672  0.00  0.00     0.026 A 
ATOM      9  C   UNL d   1      33.229  18.019 -24.317  0.00  0.00     0.027 A 
ATOM     10  C   UNL d   1      33.199  17.384 -23.047  0.00  0.00     0.094 A 
ATOM     11  C   UNL d   1      33.217  17.331 -23.860  0.00  0.00     0.026 A 
ENDROOT
BRANCH   1  12
ATOM     12  C   UNL d   1      33.201  20.978 -22.855  0.00  0.00     0.140 A 
ATOM     13  S   UNL d   1      33.240  21.148 -22.045  0.00  0.00    -0.026 SA
ATOM     14  C   UNL d   1      33.214  21.967 -21.961  0.00  0.00     0.216 A 
ATOM     15  N   UNL d   1      33.160  22.296 -22.716  0.00  0.00    -0.121 NA
ATOM     16  N   UNL d   1      33.152  21.684 -23.263  0.00  0.00    -0.139 NA
BRANCH  14  17
ATOM     17  N   UNL d   1      33.238  22.391 -21.251  0.00  0.00    -0.216 NA
BRANCH  17  18
ATOM     18  C   UNL d   1      32.897  22.070 -20.571  0.00  0.00     0.126 C 
BRANCH  18  19
ATOM     19  C   UNL d   1      32.863  22.517 -19.872  0.00  0.00     0.119 A 
ATOM     20  O   UNL d   1      32.551  23.259 -19.697  0.00  0.00    -0.304 OA
ATOM     21  C   UNL d   1      32.683  23.413 -18.904  0.00  0.00     0.123 A 
ATOM     22  C   UNL d   1      33.073  22.778 -18.583  0.00  0.00     0.029 A 
ATOM     23  C   UNL d   1      33.191  22.212 -19.181  0.00  0.00     0.028 A 
ENDBRANCH  18  19
ENDBRANCH  17  18
ENDBRANCH  14  17
ENDBRANCH   1  12
BRANCH  10  24
ATOM     24  O   UNL d   1      33.188  16.704 -22.580  0.00  0.00    -0.328 OA
ATOM     25  C   UNL d   1      32.816  16.013 -22.847  0.00  0.00     0.181 C 
ENDBRANCH  10  24
TORSDOF 5
ENDMDL
