MODEL 1
REMARK VINA RESULT:      56.9      0.000      0.000
REMARK  7 active torsions:
REMARK  status: ('A' for Active; 'I' for Inactive)
REMARK    1  A    between atoms: N_4  and  C_1 
REMARK    2  A    between atoms: C_9  and  C_2 
REMARK    3  A    between atoms: C_7  and  N_4 
REMARK       I    between atoms: C_10  and  N_8 
REMARK    4  A    between atoms: C_17  and  C_10 
REMARK    5  A    between atoms: C_12  and  C_18 
REMARK    6  A    between atoms: O_20  and  C_12 
REMARK    7  A    between atoms: C_18  and  C_17 
ROOT
ATOM      1  N   UNL d   1      58.217  48.815  50.910  0.00  0.00    -0.211 NA
ENDROOT
BRANCH   1   2
ATOM      2  C   UNL d   1      57.604  48.832  50.330  0.00  0.00     0.118 A 
ATOM      3  C   UNL d   1      57.143  48.169  50.077  0.00  0.00     0.084 A 
ATOM      4  C   UNL d   1      56.613  48.437  49.505  0.00  0.00     0.013 A 
ATOM      5  C   UNL d   1      56.036  47.955  49.094  0.00  0.00     0.001 C 
ATOM      6  C   UNL d   1      56.724  49.228  49.393  0.00  0.00     0.031 A 
ATOM      7  S   UNL d   1      57.329  49.483  49.893  0.00  0.00    -0.068 SA
ATOM      8  C   UNL d   1      56.278  49.707  48.843  0.00  0.00     0.007 C 
BRANCH   3   9
ATOM      9  C   UNL d   1      57.217  47.370  50.365  0.00  0.00     0.299 C 
ATOM     10  O   UNL d   1      56.847  47.147  51.091  0.00  0.00    -0.264 OA
ATOM     11  N   UNL d   1      57.662  46.786  49.925  0.00  0.00    -0.102 N 
ENDBRANCH   3   9
ENDBRANCH   1   2
BRANCH   1  12
ATOM     12  C   UNL d   1      58.227  49.370  51.489  0.00  0.00     0.224 C 
ATOM     13  N   UNL d   1      59.280  49.707  51.948  0.00  0.00    -0.179 NA
ATOM     14  C   UNL d   1      59.961  49.373  51.669  0.00  0.00     0.281 C 
ATOM     15  O   UNL d   1      60.670  49.600  51.978  0.00  0.00    -0.265 OA
ATOM     16  S   UNL d   1      57.542  49.701  51.766  0.00  0.00    -0.037 SA
BRANCH  14  17
ATOM     17  C   UNL d   1      59.937  48.822  51.091  0.00  0.00     0.068 C 
BRANCH  17  18
ATOM     18  C   UNL d   1      60.522  48.827  50.528  0.00  0.00     0.073 C 
BRANCH  18  19
ATOM     19  C   UNL d   1      61.081  48.235  50.557  0.00  0.00     0.296 C 
ATOM     20  O   UNL d   1      61.777  48.368  50.889  0.00  0.00    -0.259 OA
BRANCH  19  21
ATOM     21  O   UNL d   1      60.912  47.508  50.239  0.00  0.00    -0.296 OA
ATOM     22  C   UNL d   1      61.436  46.891  50.354  0.00  0.00     0.185 C 
ENDBRANCH  19  21
ENDBRANCH  18  19
ENDBRANCH  17  18
ENDBRANCH  14  17
ENDBRANCH   1  12
TORSDOF 7
ENDMDL
MODEL 2
REMARK VINA RESULT:      58.1      1.785      4.015
REMARK  7 active torsions:
REMARK  status: ('A' for Active; 'I' for Inactive)
REMARK    1  A    between atoms: N_4  and  C_1 
REMARK    2  A    between atoms: C_9  and  C_2 
REMARK    3  A    between atoms: C_7  and  N_4 
REMARK       I    between atoms: C_10  and  N_8 
REMARK    4  A    between atoms: C_17  and  C_10 
REMARK    5  A    between atoms: C_12  and  C_18 
REMARK    6  A    between atoms: O_20  and  C_12 
REMARK    7  A    between atoms: C_18  and  C_17 
ROOT
ATOM      1  N   UNL d   1      59.094  49.689  50.993  0.00  0.00    -0.211 NA
ENDROOT
BRANCH   1   2
ATOM      2  C   UNL d   1      59.881  49.674  50.689  0.00  0.00     0.118 A 
ATOM      3  C   UNL d   1      60.590  49.677  51.151  0.00  0.00     0.084 A 
ATOM      4  C   UNL d   1      61.228  49.659  50.628  0.00  0.00     0.013 A 
ATOM      5  C   UNL d   1      62.056  49.656  50.850  0.00  0.00     0.001 C 
ATOM      6  C   UNL d   1      60.949  49.645  49.871  0.00  0.00     0.031 A 
ATOM      7  S   UNL d   1      60.124  49.654  49.894  0.00  0.00    -0.068 SA
ATOM      8  C   UNL d   1      61.442  49.624  49.173  0.00  0.00     0.007 C 
BRANCH   3   9
ATOM      9  C   UNL d   1      60.633  49.696  52.001  0.00  0.00     0.299 C 
ATOM     10  O   UNL d   1      59.923  49.705  52.459  0.00  0.00    -0.264 OA
ATOM     11  N   UNL d   1      61.390  49.706  52.401  0.00  0.00    -0.102 N 
ENDBRANCH   3   9
ENDBRANCH   1   2
BRANCH   1  12
ATOM     12  C   UNL d   1      58.975  49.651  51.785  0.00  0.00     0.224 C 
ATOM     13  N   UNL d   1      57.853  49.637  52.201  0.00  0.00    -0.179 NA
ATOM     14  C   UNL d   1      57.235  49.666  51.680  0.00  0.00     0.281 C 
ATOM     15  O   UNL d   1      56.479  49.656  51.960  0.00  0.00    -0.265 OA
ATOM     16  S   UNL d   1      59.597  49.623  52.302  0.00  0.00    -0.037 SA
BRANCH  14  17
ATOM     17  C   UNL d   1      57.366  49.703  50.894  0.00  0.00     0.068 C 
BRANCH  17  18
ATOM     18  C   UNL d   1      56.727  49.689  50.394  0.00  0.00     0.073 C 
BRANCH  18  19
ATOM     19  C   UNL d   1      56.822  49.332  49.668  0.00  0.00     0.296 C 
ATOM     20  O   UNL d   1      56.557  49.681  49.020  0.00  0.00    -0.259 OA
BRANCH  19  21
ATOM     21  O   UNL d   1      57.192  48.611  49.621  0.00  0.00    -0.296 OA
ATOM     22  C   UNL d   1      56.916  48.054  49.091  0.00  0.00     0.185 C 
ENDBRANCH  19  21
ENDBRANCH  18  19
ENDBRANCH  17  18
ENDBRANCH  14  17
ENDBRANCH   1  12
TORSDOF 7
ENDMDL
