MODEL 1
REMARK VINA RESULT:      -3.1      0.000      0.000
REMARK  1 active torsions:
REMARK  status: ('A' for Active; 'I' for Inactive)
REMARK    1  A    between atoms: C_13  and  N_5 
ROOT
ATOM      1  C   UNL d   1      31.107  16.981 -24.001  0.00  0.00     0.170 A 
ATOM      2  C   UNL d   1      30.781  16.270 -23.842  0.00  0.00     0.093 A 
ATOM      3  C   UNL d   1      29.990  16.169 -23.868  0.00  0.00     0.172 A 
ATOM      4  N   UNL d   1      29.523  16.788 -24.056  0.00  0.00    -0.190 N 
ATOM      5  N   UNL d   1      31.906  17.078 -23.974  0.00  0.00    -0.212 N 
ATOM      6  N   UNL d   1      30.635  17.602 -24.190  0.00  0.00    -0.205 NA
ATOM      7  N   UNL d   1      29.667  15.453 -23.707  0.00  0.00    -0.206 NA
ATOM      8  N   UNL d   1      32.368  16.447 -23.783  0.00  0.00    -0.162 NA
ATOM      9  N   UNL d   1      28.732  16.692 -24.083  0.00  0.00    -0.143 NA
ATOM     10  C   UNL d   1      29.847  17.500 -24.216  0.00  0.00     0.203 A 
ATOM     11  C   UNL d   1      32.041  15.741 -23.624  0.00  0.00     0.127 A 
ATOM     12  C   UNL d   1      28.413  15.984 -23.924  0.00  0.00     0.184 A 
ATOM     13  C   UNL d   1      27.609  15.668 -23.896  0.00  0.00     0.044 C 
ENDROOT
BRANCH   5  14
ATOM     14  C   UNL d   1      32.236  17.809 -24.138  0.00  0.00     0.085 A 
ATOM     15  C   UNL d   1      32.485  18.286 -23.532  0.00  0.00     0.019 A 
ATOM     16  C   UNL d   1      32.819  19.029 -23.699  0.00  0.00     0.002 A 
ATOM     17  C   UNL d   1      33.088  19.547 -23.063  0.00  0.00     0.000 C 
ATOM     18  C   UNL d   1      32.898  19.282 -24.487  0.00  0.00     0.000 A 
ATOM     19  C   UNL d   1      32.639  18.781 -25.097  0.00  0.00     0.002 A 
ATOM     20  C   UNL d   1      33.241  20.043 -24.672  0.00  0.00     0.000 C 
ATOM     21  C   UNL d   1      32.310  18.051 -24.924  0.00  0.00     0.019 A 
ENDBRANCH   5  14
TORSDOF 1
ENDMDL
MODEL 2
REMARK VINA RESULT:      -2.8      2.142      4.536
REMARK  1 active torsions:
REMARK  status: ('A' for Active; 'I' for Inactive)
REMARK    1  A    between atoms: C_13  and  N_5 
ROOT
ATOM      1  C   UNL d   1      32.865  19.177 -23.340  0.00  0.00     0.170 A 
ATOM      2  C   UNL d   1      33.032  19.948 -23.455  0.00  0.00     0.093 A 
ATOM      3  C   UNL d   1      33.073  20.452 -22.837  0.00  0.00     0.172 A 
ATOM      4  N   UNL d   1      32.944  20.178 -22.099  0.00  0.00    -0.190 N 
ATOM      5  N   UNL d   1      32.826  18.671 -23.967  0.00  0.00    -0.212 N 
ATOM      6  N   UNL d   1      32.737  18.903 -22.597  0.00  0.00    -0.205 NA
ATOM      7  N   UNL d   1      33.241  21.227 -22.957  0.00  0.00    -0.206 NA
ATOM      8  N   UNL d   1      32.957  18.959 -24.707  0.00  0.00    -0.162 NA
ATOM      9  N   UNL d   1      32.984  20.678 -21.480  0.00  0.00    -0.143 NA
ATOM     10  C   UNL d   1      32.777  19.406 -21.983  0.00  0.00     0.203 A 
ATOM     11  C   UNL d   1      33.123  19.727 -24.818  0.00  0.00     0.127 A 
ATOM     12  C   UNL d   1      33.150  21.444 -21.598  0.00  0.00     0.184 A 
ATOM     13  C   UNL d   1      33.239  22.136 -21.088  0.00  0.00     0.044 C 
ENDROOT
BRANCH   5  14
ATOM     14  C   UNL d   1      32.654  17.880 -23.844  0.00  0.00     0.085 A 
ATOM     15  C   UNL d   1      31.914  17.596 -24.015  0.00  0.00     0.019 A 
ATOM     16  C   UNL d   1      31.739  16.792 -23.890  0.00  0.00     0.002 A 
ATOM     17  C   UNL d   1      30.956  16.477 -24.067  0.00  0.00     0.000 C 
ATOM     18  C   UNL d   1      32.323  16.281 -23.592  0.00  0.00     0.000 A 
ATOM     19  C   UNL d   1      33.076  16.588 -23.422  0.00  0.00     0.002 A 
ATOM     20  C   UNL d   1      32.156  15.453 -23.459  0.00  0.00     0.000 C 
ATOM     21  C   UNL d   1      33.241  17.380 -23.547  0.00  0.00     0.019 A 
ENDBRANCH   5  14
TORSDOF 1
ENDMDL
MODEL 3
REMARK VINA RESULT:      -2.2      1.047      4.031
REMARK  1 active torsions:
REMARK  status: ('A' for Active; 'I' for Inactive)
REMARK    1  A    between atoms: C_13  and  N_5 
ROOT
ATOM      1  C   UNL d   1      31.209  16.815 -24.310  0.00  0.00     0.170 A 
ATOM      2  C   UNL d   1      31.976  16.956 -24.481  0.00  0.00     0.093 A 
ATOM      3  C   UNL d   1      32.241  17.702 -24.579  0.00  0.00     0.172 A 
ATOM      4  N   UNL d   1      31.730  18.312 -24.505  0.00  0.00    -0.190 N 
ATOM      5  N   UNL d   1      30.946  16.060 -24.212  0.00  0.00    -0.212 N 
ATOM      6  N   UNL d   1      30.698  17.429 -24.236  0.00  0.00    -0.205 NA
ATOM      7  N   UNL d   1      33.012  17.839 -24.750  0.00  0.00    -0.206 NA
ATOM      8  N   UNL d   1      31.469  15.453 -24.289  0.00  0.00    -0.162 NA
ATOM      9  N   UNL d   1      31.991  19.059 -24.602  0.00  0.00    -0.143 NA
ATOM     10  C   UNL d   1      30.963  18.172 -24.334  0.00  0.00     0.203 A 
ATOM     11  C   UNL d   1      32.231  15.596 -24.459  0.00  0.00     0.127 A 
ATOM     12  C   UNL d   1      32.754  19.194 -24.771  0.00  0.00     0.184 A 
ATOM     13  C   UNL d   1      33.233  19.899 -24.913  0.00  0.00     0.044 C 
ENDROOT
BRANCH   5  14
ATOM     14  C   UNL d   1      30.158  15.920 -24.037  0.00  0.00     0.085 A 
ATOM     15  C   UNL d   1      29.935  15.766 -23.272  0.00  0.00     0.019 A 
ATOM     16  C   UNL d   1      29.135  15.624 -23.095  0.00  0.00     0.002 A 
ATOM     17  C   UNL d   1      28.884  15.459 -22.286  0.00  0.00     0.000 C 
ATOM     18  C   UNL d   1      28.565  15.641 -23.700  0.00  0.00     0.000 A 
ATOM     19  C   UNL d   1      28.810  15.800 -24.477  0.00  0.00     0.002 A 
ATOM     20  C   UNL d   1      27.739  15.497 -23.530  0.00  0.00     0.000 C 
ATOM     21  C   UNL d   1      29.599  15.939 -24.644  0.00  0.00     0.019 A 
ENDBRANCH   5  14
TORSDOF 1
ENDMDL
MODEL 4
REMARK VINA RESULT:      -2.0      2.770      5.009
REMARK  1 active torsions:
REMARK  status: ('A' for Active; 'I' for Inactive)
REMARK    1  A    between atoms: C_13  and  N_5 
ROOT
ATOM      1  C   UNL d   1      32.934  20.128 -22.740  0.00  0.00     0.170 A 
ATOM      2  C   UNL d   1      33.084  20.911 -22.730  0.00  0.00     0.093 A 
ATOM      3  C   UNL d   1      33.083  21.318 -22.043  0.00  0.00     0.172 A 
ATOM      4  N   UNL d   1      32.930  20.933 -21.361  0.00  0.00    -0.190 N 
ATOM      5  N   UNL d   1      32.936  19.721 -23.435  0.00  0.00    -0.212 N 
ATOM      6  N   UNL d   1      32.781  19.743 -22.052  0.00  0.00    -0.205 NA
ATOM      7  N   UNL d   1      33.235  22.106 -22.039  0.00  0.00    -0.206 NA
ATOM      8  N   UNL d   1      33.092  20.118 -24.118  0.00  0.00    -0.162 NA
ATOM      9  N   UNL d   1      32.928  21.336 -20.673  0.00  0.00    -0.143 NA
ATOM     10  C   UNL d   1      32.780  20.150 -21.369  0.00  0.00     0.203 A 
ATOM     11  C   UNL d   1      33.241  20.898 -24.105  0.00  0.00     0.127 A 
ATOM     12  C   UNL d   1      33.078  22.115 -20.669  0.00  0.00     0.184 A 
ATOM     13  C   UNL d   1      33.125  22.725 -20.058  0.00  0.00     0.044 C 
ENDROOT
BRANCH   5  14
ATOM     14  C   UNL d   1      32.782  18.917 -23.440  0.00  0.00     0.085 A 
ATOM     15  C   UNL d   1      32.184  18.623 -23.902  0.00  0.00     0.019 A 
ATOM     16  C   UNL d   1      32.027  17.806 -23.907  0.00  0.00     0.002 A 
ATOM     17  C   UNL d   1      31.394  17.480 -24.394  0.00  0.00     0.000 C 
ATOM     18  C   UNL d   1      32.483  17.292 -23.438  0.00  0.00     0.000 A 
ATOM     19  C   UNL d   1      33.091  17.609 -22.970  0.00  0.00     0.002 A 
ATOM     20  C   UNL d   1      32.331  16.450 -23.434  0.00  0.00     0.000 C 
ATOM     21  C   UNL d   1      33.240  18.415 -22.971  0.00  0.00     0.019 A 
ENDBRANCH   5  14
TORSDOF 1
ENDMDL
MODEL 5
REMARK VINA RESULT:      -1.5      3.302      5.129
REMARK  1 active torsions:
REMARK  status: ('A' for Active; 'I' for Inactive)
REMARK    1  A    between atoms: C_13  and  N_5 
ROOT
ATOM      1  C   UNL d   1      32.919  20.860 -22.433  0.00  0.00     0.170 A 
ATOM      2  C   UNL d   1      33.043  20.506 -23.138  0.00  0.00     0.093 A 
ATOM      3  C   UNL d   1      33.007  19.712 -23.206  0.00  0.00     0.172 A 
ATOM      4  N   UNL d   1      32.847  19.270 -22.561  0.00  0.00    -0.190 N 
ATOM      5  N   UNL d   1      32.956  21.662 -22.368  0.00  0.00    -0.212 N 
ATOM      6  N   UNL d   1      32.758  20.414 -21.786  0.00  0.00    -0.205 NA
ATOM      7  N   UNL d   1      33.132  19.361 -23.917  0.00  0.00    -0.206 NA
ATOM      8  N   UNL d   1      33.118  22.099 -23.024  0.00  0.00    -0.162 NA
ATOM      9  N   UNL d   1      32.810  18.476 -22.626  0.00  0.00    -0.143 NA
ATOM     10  C   UNL d   1      32.723  19.623 -21.856  0.00  0.00     0.203 A 
ATOM     11  C   UNL d   1      33.241  21.744 -23.724  0.00  0.00     0.127 A 
ATOM     12  C   UNL d   1      32.934  18.129 -23.329  0.00  0.00     0.184 A 
ATOM     13  C   UNL d   1      32.942  17.314 -23.614  0.00  0.00     0.044 C 
ENDROOT
BRANCH   5  14
ATOM     14  C   UNL d   1      32.828  22.021 -21.643  0.00  0.00     0.085 A 
ATOM     15  C   UNL d   1      32.302  22.634 -21.582  0.00  0.00     0.019 A 
ATOM     16  C   UNL d   1      32.172  22.998 -20.845  0.00  0.00     0.002 A 
ATOM     17  C   UNL d   1      31.615  23.652 -20.767  0.00  0.00     0.000 C 
ATOM     18  C   UNL d   1      32.583  22.733 -20.172  0.00  0.00     0.000 A 
ATOM     19  C   UNL d   1      33.118  22.103 -20.252  0.00  0.00     0.002 A 
ATOM     20  C   UNL d   1      32.458  23.099 -19.409  0.00  0.00     0.000 C 
ATOM     21  C   UNL d   1      33.241  21.750 -20.980  0.00  0.00     0.019 A 
ENDBRANCH   5  14
TORSDOF 1
ENDMDL
MODEL 6
REMARK VINA RESULT:      -1.1      1.343      2.085
REMARK  1 active torsions:
REMARK  status: ('A' for Active; 'I' for Inactive)
REMARK    1  A    between atoms: C_13  and  N_5 
ROOT
ATOM      1  C   UNL d   1      32.152  18.236 -23.322  0.00  0.00     0.170 A 
ATOM      2  C   UNL d   1      32.036  17.449 -23.376  0.00  0.00     0.093 A 
ATOM      3  C   UNL d   1      31.437  17.154 -23.814  0.00  0.00     0.172 A 
ATOM      4  N   UNL d   1      30.953  17.657 -24.202  0.00  0.00    -0.190 N 
ATOM      5  N   UNL d   1      32.758  18.529 -22.878  0.00  0.00    -0.212 N 
ATOM      6  N   UNL d   1      31.664  18.739 -23.712  0.00  0.00    -0.205 NA
ATOM      7  N   UNL d   1      31.324  16.362 -23.865  0.00  0.00    -0.206 NA
ATOM      8  N   UNL d   1      33.241  18.014 -22.491  0.00  0.00    -0.162 NA
ATOM      9  N   UNL d   1      30.354  17.367 -24.641  0.00  0.00    -0.143 NA
ATOM     10  C   UNL d   1      31.069  18.444 -24.149  0.00  0.00     0.203 A 
ATOM     11  C   UNL d   1      33.122  17.231 -22.546  0.00  0.00     0.127 A 
ATOM     12  C   UNL d   1      30.242  16.583 -24.691  0.00  0.00     0.184 A 
ATOM     13  C   UNL d   1      29.675  16.072 -25.097  0.00  0.00     0.044 C 
ENDROOT
BRANCH   5  14
ATOM     14  C   UNL d   1      32.874  19.338 -22.826  0.00  0.00     0.085 A 
ATOM     15  C   UNL d   1      32.743  19.720 -22.123  0.00  0.00     0.019 A 
ATOM     16  C   UNL d   1      32.861  20.542 -22.070  0.00  0.00     0.002 A 
ATOM     17  C   UNL d   1      32.726  20.961 -21.328  0.00  0.00     0.000 C 
ATOM     18  C   UNL d   1      33.112  20.970 -22.737  0.00  0.00     0.000 A 
ATOM     19  C   UNL d   1      33.241  20.564 -23.449  0.00  0.00     0.002 A 
ATOM     20  C   UNL d   1      33.236  21.815 -22.695  0.00  0.00     0.000 C 
ATOM     21  C   UNL d   1      33.123  19.754 -23.494  0.00  0.00     0.019 A 
ENDBRANCH   5  14
TORSDOF 1
ENDMDL
MODEL 7
REMARK VINA RESULT:      -0.9      4.980      6.970
REMARK  1 active torsions:
REMARK  status: ('A' for Active; 'I' for Inactive)
REMARK    1  A    between atoms: C_13  and  N_5 
ROOT
ATOM      1  C   UNL d   1      32.671  22.145 -20.295  0.00  0.00     0.170 A 
ATOM      2  C   UNL d   1      32.490  22.846 -19.961  0.00  0.00     0.093 A 
ATOM      3  C   UNL d   1      32.678  22.996 -19.200  0.00  0.00     0.172 A 
ATOM      4  N   UNL d   1      33.051  22.434 -18.772  0.00  0.00    -0.190 N 
ATOM      5  N   UNL d   1      32.480  21.999 -21.064  0.00  0.00    -0.212 N 
ATOM      6  N   UNL d   1      33.046  21.582 -19.863  0.00  0.00    -0.205 NA
ATOM      7  N   UNL d   1      32.494  23.702 -18.868  0.00  0.00    -0.206 NA
ATOM      8  N   UNL d   1      32.104  22.571 -21.487  0.00  0.00    -0.162 NA
ATOM      9  N   UNL d   1      33.241  22.580 -18.011  0.00  0.00    -0.143 NA
ATOM     10  C   UNL d   1      33.233  21.732 -19.105  0.00  0.00     0.203 A 
ATOM     11  C   UNL d   1      31.925  23.268 -21.152  0.00  0.00     0.127 A 
ATOM     12  C   UNL d   1      33.059  23.278 -17.683  0.00  0.00     0.184 A 
ATOM     13  C   UNL d   1      33.167  23.634 -16.903  0.00  0.00     0.044 C 
ENDROOT
BRANCH   5  14
ATOM     14  C   UNL d   1      32.668  21.277 -21.403  0.00  0.00     0.085 A 
ATOM     15  C   UNL d   1      32.842  21.235 -22.194  0.00  0.00     0.019 A 
ATOM     16  C   UNL d   1      33.033  20.502 -22.538  0.00  0.00     0.002 A 
ATOM     17  C   UNL d   1      33.221  20.443 -23.378  0.00  0.00     0.000 C 
ATOM     18  C   UNL d   1      33.045  19.814 -22.071  0.00  0.00     0.000 A 
ATOM     19  C   UNL d   1      32.864  19.874 -21.263  0.00  0.00     0.002 A 
ATOM     20  C   UNL d   1      33.239  19.055 -22.413  0.00  0.00     0.000 C 
ATOM     21  C   UNL d   1      32.677  20.599 -20.932  0.00  0.00     0.019 A 
ENDBRANCH   5  14
TORSDOF 1
ENDMDL
