MODEL 1
REMARK VINA RESULT:      43.1      0.000      0.000
REMARK  6 active torsions:
REMARK  status: ('A' for Active; 'I' for Inactive)
REMARK    1  A    between atoms: S_2  and  C_1 
REMARK    2  A    between atoms: C_9  and  S_2 
REMARK    3  A    between atoms: N_10  and  C_6 
REMARK    4  A    between atoms: C_13  and  N_10 
REMARK    5  A    between atoms: N_12  and  C_14 
REMARK    6  A    between atoms: C_14  and  C_13 
ROOT
ATOM      1  C   UNL d   1      59.559  49.256  50.739  0.00  0.00     0.187 A 
ATOM      2  N   UNL d   1      60.132  48.980  50.221  0.00  0.00    -0.208 NA
ATOM      3  C   UNL d   1      59.922  49.418  51.462  0.00  0.00     0.118 A 
ATOM      4  S   UNL d   1      60.721  49.239  51.385  0.00  0.00    -0.035 SA
ATOM      5  C   UNL d   1      60.852  48.969  50.623  0.00  0.00     0.196 A 
ATOM      6 CL   UNL d   1      59.552  49.706  52.141  0.00  0.00    -0.073 Cl
ENDROOT
BRANCH   1   7
ATOM      7  S   UNL d   1      58.761  49.356  50.571  0.00  0.00     0.228 S 
ATOM      8  O   UNL d   1      58.528  49.261  51.352  0.00  0.00    -0.216 OA
ATOM      9  O   UNL d   1      58.987  49.452  49.790  0.00  0.00    -0.216 OA
BRANCH   7  10
ATOM     10  C   UNL d   1      57.977  49.467  50.319  0.00  0.00     0.089 A 
ATOM     11  C   UNL d   1      57.820  49.596  49.523  0.00  0.00     0.011 A 
ATOM     12  C   UNL d   1      57.036  49.708  49.267  0.00  0.00     0.001 A 
ATOM     13  C   UNL d   1      56.414  49.689  49.817  0.00  0.00     0.000 A 
ATOM     14  C   UNL d   1      56.577  49.557  50.624  0.00  0.00     0.001 A 
ATOM     15  C   UNL d   1      57.357  49.446  50.877  0.00  0.00     0.011 A 
ENDBRANCH   7  10
ENDBRANCH   1   7
BRANCH   5  16
ATOM     16  N   UNL d   1      61.575  48.731  50.314  0.00  0.00    -0.218 NA
BRANCH  16  17
ATOM     17  C   UNL d   1      61.699  47.937  50.158  0.00  0.00     0.120 C 
BRANCH  17  18
ATOM     18  C   UNL d   1      61.107  47.392  50.324  0.00  0.00     0.101 C 
BRANCH  18  19
ATOM     19  N   UNL d   1      61.316  46.591  50.322  0.00  0.00    -0.299 N 
ATOM     20  C   UNL d   1      60.954  46.084  50.854  0.00  0.00     0.100 C 
ATOM     21  C   UNL d   1      61.877  46.312  49.796  0.00  0.00     0.100 C 
ENDBRANCH  18  19
ENDBRANCH  17  18
ENDBRANCH  16  17
ENDBRANCH   5  16
TORSDOF 6
ENDMDL
MODEL 2
REMARK VINA RESULT:      43.2      1.178      1.424
REMARK  6 active torsions:
REMARK  status: ('A' for Active; 'I' for Inactive)
REMARK    1  A    between atoms: S_2  and  C_1 
REMARK    2  A    between atoms: C_9  and  S_2 
REMARK    3  A    between atoms: N_10  and  C_6 
REMARK    4  A    between atoms: C_13  and  N_10 
REMARK    5  A    between atoms: N_12  and  C_14 
REMARK    6  A    between atoms: C_14  and  C_13 
ROOT
ATOM      1  C   UNL d   1      59.330  49.599  50.685  0.00  0.00     0.187 A 
ATOM      2  N   UNL d   1      59.818  49.544  51.343  0.00  0.00    -0.208 NA
ATOM      3  C   UNL d   1      59.807  49.645  50.014  0.00  0.00     0.118 A 
ATOM      4  S   UNL d   1      60.591  49.618  50.263  0.00  0.00    -0.035 SA
ATOM      5  C   UNL d   1      60.599  49.556  51.080  0.00  0.00     0.196 A 
ATOM      6 CL   UNL d   1      59.548  49.707  49.233  0.00  0.00    -0.073 Cl
ENDROOT
BRANCH   1   7
ATOM      7  S   UNL d   1      58.509  49.607  50.690  0.00  0.00     0.228 S 
ATOM      8  O   UNL d   1      58.458  49.508  51.503  0.00  0.00    -0.216 OA
ATOM      9  O   UNL d   1      58.552  49.706  49.879  0.00  0.00    -0.216 OA
BRANCH   7  10
ATOM     10  C   UNL d   1      57.681  49.625  50.610  0.00  0.00     0.089 A 
ATOM     11  C   UNL d   1      57.209  49.689  51.279  0.00  0.00     0.011 A 
ATOM     12  C   UNL d   1      56.380  49.708  51.203  0.00  0.00     0.001 A 
ATOM     13  C   UNL d   1      56.033  49.662  50.450  0.00  0.00     0.000 A 
ATOM     14  C   UNL d   1      56.516  49.597  49.773  0.00  0.00     0.001 A 
ATOM     15  C   UNL d   1      57.339  49.579  49.850  0.00  0.00     0.011 A 
ENDBRANCH   7  10
ENDBRANCH   1   7
BRANCH   5  16
ATOM     16  N   UNL d   1      61.269  49.513  51.552  0.00  0.00    -0.218 NA
BRANCH  16  17
ATOM     17  C   UNL d   1      61.526  48.780  51.814  0.00  0.00     0.120 C 
BRANCH  17  18
ATOM     18  C   UNL d   1      61.357  48.108  51.374  0.00  0.00     0.101 C 
BRANCH  18  19
ATOM     19  N   UNL d   1      61.401  47.378  51.761  0.00  0.00    -0.299 N 
ATOM     20  C   UNL d   1      61.311  47.352  52.575  0.00  0.00     0.100 C 
ATOM     21  C   UNL d   1      61.532  46.692  51.334  0.00  0.00     0.100 C 
ENDBRANCH  18  19
ENDBRANCH  17  18
ENDBRANCH  16  17
ENDBRANCH   5  16
TORSDOF 6
ENDMDL
MODEL 3
REMARK VINA RESULT:      45.7      1.450      4.260
REMARK  6 active torsions:
REMARK  status: ('A' for Active; 'I' for Inactive)
REMARK    1  A    between atoms: S_2  and  C_1 
REMARK    2  A    between atoms: C_9  and  S_2 
REMARK    3  A    between atoms: N_10  and  C_6 
REMARK    4  A    between atoms: C_13  and  N_10 
REMARK    5  A    between atoms: N_12  and  C_14 
REMARK    6  A    between atoms: C_14  and  C_13 
ROOT
ATOM      1  C   UNL d   1      60.540  48.512  50.784  0.00  0.00     0.187 A 
ATOM      2  N   UNL d   1      59.728  48.479  50.896  0.00  0.00    -0.208 NA
ATOM      3  C   UNL d   1      60.796  49.272  50.981  0.00  0.00     0.118 A 
ATOM      4  S   UNL d   1      60.135  49.704  51.214  0.00  0.00    -0.035 SA
ATOM      5  C   UNL d   1      59.478  49.217  51.162  0.00  0.00     0.196 A 
ATOM      6 CL   UNL d   1      61.572  49.550  50.950  0.00  0.00    -0.073 Cl
ENDROOT
BRANCH   1   7
ATOM      7  S   UNL d   1      61.020  47.899  50.522  0.00  0.00     0.228 S 
ATOM      8  O   UNL d   1      60.796  47.392  51.126  0.00  0.00    -0.216 OA
ATOM      9  O   UNL d   1      61.247  48.400  49.916  0.00  0.00    -0.216 OA
BRANCH   7  10
ATOM     10  C   UNL d   1      61.529  47.330  50.193  0.00  0.00     0.089 A 
ATOM     11  C   UNL d   1      61.453  46.542  50.409  0.00  0.00     0.011 A 
ATOM     12  C   UNL d   1      61.961  45.970  50.081  0.00  0.00     0.001 A 
ATOM     13  C   UNL d   1      62.544  46.198  49.536  0.00  0.00     0.000 A 
ATOM     14  C   UNL d   1      62.619  47.000  49.319  0.00  0.00     0.001 A 
ATOM     15  C   UNL d   1      62.113  47.567  49.645  0.00  0.00     0.011 A 
ENDBRANCH   7  10
ENDBRANCH   1   7
BRANCH   5  16
ATOM     16  N   UNL d   1      58.706  49.431  51.345  0.00  0.00    -0.218 NA
BRANCH  16  17
ATOM     17  C   UNL d   1      58.169  49.540  50.736  0.00  0.00     0.120 C 
BRANCH  17  18
ATOM     18  C   UNL d   1      57.384  49.705  50.911  0.00  0.00     0.101 C 
BRANCH  18  19
ATOM     19  N   UNL d   1      56.841  49.679  50.287  0.00  0.00    -0.299 N 
ATOM     20  C   UNL d   1      56.040  49.668  50.456  0.00  0.00     0.100 C 
ATOM     21  C   UNL d   1      57.104  49.666  49.511  0.00  0.00     0.100 C 
ENDBRANCH  18  19
ENDBRANCH  17  18
ENDBRANCH  16  17
ENDBRANCH   5  16
TORSDOF 6
ENDMDL
