MODEL 1
REMARK VINA RESULT:      -1.4      0.000      0.000
REMARK  6 active torsions:
REMARK  status: ('A' for Active; 'I' for Inactive)
REMARK    1  A    between atoms: N_4  and  C_2 
REMARK    2  A    between atoms: C_9  and  N_4 
REMARK    3  A    between atoms: O_16  and  C_8 
REMARK    4  A    between atoms: O_24  and  C_10 
REMARK    5  A    between atoms: C_22  and  O_16 
REMARK    6  A    between atoms: C_26  and  C_22 
ROOT
ATOM      1  C   UNL d   1      56.493  -0.515  32.390  0.00  0.00     0.056 A 
ATOM      2  C   UNL d   1      56.002  -0.413  33.042  0.00  0.00     0.166 A 
ATOM      3  C   UNL d   1      56.535  -1.250  32.015  0.00  0.00     0.088 A 
ATOM      4  C   UNL d   1      56.943   0.116  32.112  0.00  0.00     0.031 A 
ATOM      5  N   UNL d   1      55.547  -1.047  33.326  0.00  0.00    -0.205 NA
ATOM      6  C   UNL d   1      57.027  -1.351  31.362  0.00  0.00     0.046 A 
ATOM      7  C   UNL d   1      57.476  -0.720  31.085  0.00  0.00     0.124 A 
ATOM      8  C   UNL d   1      57.434   0.014  31.460  0.00  0.00     0.117 A 
ATOM      9  N   UNL d   1      56.086  -1.880  32.293  0.00  0.00    -0.224 NA
ATOM     10  C   UNL d   1      55.589  -1.782  32.951  0.00  0.00     0.200 A 
ENDROOT
BRANCH   2  11
ATOM     11  N   UNL d   1      55.959   0.328  33.420  0.00  0.00    -0.224 NA
BRANCH  11  12
ATOM     12  C   UNL d   1      55.492   0.414  34.088  0.00  0.00     0.110 A 
ATOM     13  C   UNL d   1      55.827   0.583  34.824  0.00  0.00     0.158 A 
ATOM     14  C   UNL d   1      55.359   0.670  35.496  0.00  0.00     0.038 A 
ATOM     15  F   UNL d   1      56.653   0.666  34.887  0.00  0.00    -0.203 F 
ATOM     16  C   UNL d   1      54.532   0.586  35.433  0.00  0.00     0.037 A 
ATOM     17  C   UNL d   1      54.190   0.416  34.692  0.00  0.00     0.008 A 
ATOM     18 BR   UNL d   1      54.056   0.674  36.112  0.00  0.00    -0.049 Br
ATOM     19  C   UNL d   1      54.665   0.331  34.025  0.00  0.00     0.022 A 
ENDBRANCH  11  12
ENDBRANCH   2  11
BRANCH   8  20
ATOM     20  O   UNL d   1      57.891   0.650  31.173  0.00  0.00    -0.326 OA
ATOM     21  C   UNL d   1      58.701   0.682  31.333  0.00  0.00     0.181 C 
ENDBRANCH   8  20
BRANCH   7  22
ATOM     22  O   UNL d   1      57.976  -0.821  30.422  0.00  0.00    -0.303 OA
BRANCH  22  23
ATOM     23  C   UNL d   1      58.106  -1.575  30.109  0.00  0.00     0.123 C 
BRANCH  23  24
ATOM     24  C   UNL d   1      58.807  -1.733  29.699  0.00  0.00     0.028 A 
ATOM     25  C   UNL d   1      58.925  -1.421  28.939  0.00  0.00     0.021 A 
ATOM     26  C   UNL d   1      59.625  -1.582  28.536  0.00  0.00     0.080 A 
ATOM     27  N   UNL d   1      60.216  -2.052  28.881  0.00  0.00    -0.301 N 
ATOM     28  C   UNL d   1      60.098  -2.361  29.636  0.00  0.00     0.080 A 
ATOM     29  C   UNL d   1      60.929  -2.213  28.466  0.00  0.00     0.100 C 
ATOM     30  C   UNL d   1      59.393  -2.202  30.047  0.00  0.00     0.021 A 
ENDBRANCH  23  24
ENDBRANCH  22  23
ENDBRANCH   7  22
TORSDOF 6
ENDMDL
