MODEL 1
REMARK VINA RESULT:     116.6      0.000      0.000
REMARK  7 active torsions:
REMARK  status: ('A' for Active; 'I' for Inactive)
REMARK    1  A    between atoms: C_5  and  C_1 
REMARK    2  A    between atoms: N_3  and  C_2 
REMARK    3  A    between atoms: C_14  and  C_5 
REMARK    4  A    between atoms: C_10  and  C_6 
REMARK    5  A    between atoms: O_19  and  C_10 
REMARK    6  A    between atoms: O_22  and  C_18 
REMARK    7  A    between atoms: C_26  and  O_19 
ROOT
ATOM      1  C   UNL d   1      60.488  49.377  51.879  0.00  0.00     0.074 A 
ATOM      2  C   UNL d   1      60.065  49.263  51.166  0.00  0.00     0.070 A 
ATOM      3  C   UNL d   1      59.246  49.367  51.147  0.00  0.00     0.036 A 
ATOM      4  C   UNL d   1      60.081  49.594  52.564  0.00  0.00     0.103 A 
ATOM      5  N   UNL d   1      59.252  49.698  52.539  0.00  0.00    -0.244 NA
ATOM      6  C   UNL d   1      58.840  49.585  51.832  0.00  0.00     0.083 A 
ATOM      7  C   UNL d   1      58.835  49.254  50.440  0.00  0.00     0.027 A 
ATOM      8  C   UNL d   1      58.022  49.689  51.813  0.00  0.00     0.021 A 
ATOM      9  C   UNL d   1      58.017  49.358  50.421  0.00  0.00     0.094 A 
ATOM     10  C   UNL d   1      57.610  49.575  51.107  0.00  0.00     0.026 A 
ENDROOT
BRANCH   2  11
ATOM     11  N   UNL d   1      60.474  49.045  50.476  0.00  0.00    -0.303 N 
ATOM     12  C   UNL d   1      60.639  48.251  50.328  0.00  0.00     0.086 A 
ATOM     13  C   UNL d   1      61.050  48.031  49.635  0.00  0.00     0.081 A 
ATOM     14  C   UNL d   1      61.290  48.608  49.097  0.00  0.00     0.008 A 
ATOM     15  C   UNL d   1      61.125  49.403  49.245  0.00  0.00     0.019 A 
ATOM     16  C   UNL d   1      60.714  49.622  49.938  0.00  0.00     0.080 A 
BRANCH  13  17
ATOM     17  C   UNL d   1      61.217  47.224  49.487  0.00  0.00     0.302 C 
ATOM     18  O   UNL d   1      60.583  46.685  49.418  0.00  0.00    -0.259 OA
BRANCH  17  19
ATOM     19  O   UNL d   1      61.998  46.971  49.412  0.00  0.00    -0.271 OA
BRANCH  19  20
ATOM     20  C   UNL d   1      62.368  46.584  50.040  0.00  0.00     0.126 C 
ATOM     21  C   UNL d   1      62.295  45.766  50.119  0.00  0.00     0.029 C 
ENDBRANCH  19  20
ENDBRANCH  17  19
ENDBRANCH  13  17
ENDBRANCH   2  11
BRANCH   1  22
ATOM     22  C   UNL d   1      61.306  49.273  51.898  0.00  0.00     0.198 C 
ATOM     23  O   UNL d   1      61.762  49.367  51.215  0.00  0.00    -0.286 OA
BRANCH  22  24
ATOM     24  C   UNL d   1      61.677  49.073  52.607  0.00  0.00     0.039 A 
ATOM     25  C   UNL d   1      61.589  48.312  52.915  0.00  0.00     0.003 A 
ATOM     26  C   UNL d   1      61.963  48.103  53.633  0.00  0.00     0.000 A 
ATOM     27  C   UNL d   1      62.417  48.670  54.025  0.00  0.00     0.000 A 
ATOM     28  C   UNL d   1      62.505  49.431  53.718  0.00  0.00     0.000 A 
ATOM     29  C   UNL d   1      62.134  49.632  53.008  0.00  0.00     0.003 A 
ENDBRANCH  22  24
ENDBRANCH   1  22
BRANCH   9  30
ATOM     30  O   UNL d   1      57.607  49.243  49.711  0.00  0.00    -0.328 OA
ATOM     31  C   UNL d   1      56.797  49.406  49.680  0.00  0.00     0.181 C 
ENDBRANCH   9  30
TORSDOF 7
ENDMDL
