MODEL 1
REMARK VINA RESULT:      -9.9      0.000      0.000
REMARK  3 active torsions:
REMARK  status: ('A' for Active; 'I' for Inactive)
REMARK    1  A    between atoms: C_6  and  C_1 
REMARK    2  A    between atoms: O_19  and  C_9 
REMARK    3  A    between atoms: O_20  and  C_13 
ROOT
ATOM      1  C   UNL d   1      53.202  32.302  53.675  0.00  0.00     0.064 A 
ATOM      2  C   UNL d   1      53.304  31.634  54.159  0.00  0.00     0.007 A 
ATOM      3  C   UNL d   1      53.012  32.204  52.870  0.00  0.00     0.300 A 
ATOM      4  C   UNL d   1      53.219  30.875  53.845  0.00  0.00     0.026 A 
ATOM      5  O   UNL d   1      52.925  31.438  52.544  0.00  0.00    -0.273 OA
ATOM      6  C   UNL d   1      53.030  30.777  53.039  0.00  0.00     0.103 A 
ATOM      7  O   UNL d   1      52.910  32.867  52.386  0.00  0.00    -0.259 OA
ATOM      8  C   UNL d   1      53.319  30.207  54.320  0.00  0.00     0.044 A 
ATOM      9  C   UNL d   1      52.945  30.024  52.724  0.00  0.00     0.028 A 
ATOM     10  C   UNL d   1      53.234  29.463  54.004  0.00  0.00     0.196 A 
ATOM     11  C   UNL d   1      53.490  31.730  54.948  0.00  0.00     0.000 C 
ATOM     12  C   UNL d   1      53.047  29.366  53.207  0.00  0.00     0.044 A 
ATOM     13  O   UNL d   1      53.337  28.800  54.487  0.00  0.00    -0.287 OA
ENDROOT
BRANCH   1  14
ATOM     14  C   UNL d   1      53.287  33.057  53.990  0.00  0.00     0.007 A 
ATOM     15  C   UNL d   1      54.031  33.322  54.225  0.00  0.00     0.026 A 
ATOM     16  C   UNL d   1      54.123  34.072  54.540  0.00  0.00     0.116 A 
ATOM     17  C   UNL d   1      53.469  34.567  54.622  0.00  0.00     0.116 A 
ATOM     18  C   UNL d   1      52.716  34.304  54.387  0.00  0.00     0.026 A 
ATOM     19  C   UNL d   1      52.636  33.543  54.070  0.00  0.00     0.002 A 
BRANCH  16  20
ATOM     20  O   UNL d   1      54.863  34.344  54.777  0.00  0.00    -0.326 OA
ATOM     21  C   UNL d   1      55.508  33.831  54.759  0.00  0.00     0.181 C 
ENDBRANCH  16  20
BRANCH  17  22
ATOM     22  O   UNL d   1      53.545  35.324  54.937  0.00  0.00    -0.326 OA
ATOM     23  C   UNL d   1      52.928  35.869  54.825  0.00  0.00     0.181 C 
ENDBRANCH  17  22
ENDBRANCH   1  14
TORSDOF 3
ENDMDL
MODEL 2
REMARK VINA RESULT:      -9.2      2.224      3.858
REMARK  3 active torsions:
REMARK  status: ('A' for Active; 'I' for Inactive)
REMARK    1  A    between atoms: C_6  and  C_1 
REMARK    2  A    between atoms: O_19  and  C_9 
REMARK    3  A    between atoms: O_20  and  C_13 
ROOT
ATOM      1  C   UNL d   1      52.152  33.496  53.316  0.00  0.00     0.064 A 
ATOM      2  C   UNL d   1      52.697  34.011  53.675  0.00  0.00     0.007 A 
ATOM      3  C   UNL d   1      52.232  32.673  53.417  0.00  0.00     0.300 A 
ATOM      4  C   UNL d   1      53.317  33.709  54.130  0.00  0.00     0.026 A 
ATOM      5  O   UNL d   1      52.857  32.360  53.876  0.00  0.00    -0.273 OA
ATOM      6  C   UNL d   1      53.397  32.885  54.230  0.00  0.00     0.103 A 
ATOM      7  O   UNL d   1      51.690  32.159  53.060  0.00  0.00    -0.259 OA
ATOM      8  C   UNL d   1      53.863  34.214  54.490  0.00  0.00     0.044 A 
ATOM      9  C   UNL d   1      54.012  32.582  54.682  0.00  0.00     0.028 A 
ATOM     10  C   UNL d   1      54.470  33.911  54.936  0.00  0.00     0.196 A 
ATOM     11  C   UNL d   1      52.618  34.817  53.577  0.00  0.00     0.000 C 
ATOM     12  C   UNL d   1      54.549  33.096  55.035  0.00  0.00     0.044 A 
ATOM     13  O   UNL d   1      55.011  34.424  55.293  0.00  0.00    -0.287 OA
ENDROOT
BRANCH   1  14
ATOM     14  C   UNL d   1      51.535  33.799  52.864  0.00  0.00     0.007 A 
ATOM     15  C   UNL d   1      50.827  34.014  53.227  0.00  0.00     0.026 A 
ATOM     16  C   UNL d   1      50.209  34.316  52.783  0.00  0.00     0.116 A 
ATOM     17  C   UNL d   1      50.294  34.406  51.967  0.00  0.00     0.116 A 
ATOM     18  C   UNL d   1      51.006  34.190  51.596  0.00  0.00     0.026 A 
ATOM     19  C   UNL d   1      51.623  33.886  52.057  0.00  0.00     0.002 A 
BRANCH  16  20
ATOM     20  O   UNL d   1      49.499  34.534  53.137  0.00  0.00    -0.326 OA
ATOM     21  C   UNL d   1      49.479  35.193  53.633  0.00  0.00     0.181 C 
ENDBRANCH  16  20
BRANCH  17  22
ATOM     22  O   UNL d   1      49.682  34.708  51.507  0.00  0.00    -0.326 OA
ATOM     23  C   UNL d   1      49.565  34.401  50.743  0.00  0.00     0.181 C 
ENDBRANCH  17  22
ENDBRANCH   1  14
TORSDOF 3
ENDMDL
MODEL 3
REMARK VINA RESULT:      -9.0      2.489      3.713
REMARK  3 active torsions:
REMARK  status: ('A' for Active; 'I' for Inactive)
REMARK    1  A    between atoms: C_6  and  C_1 
REMARK    2  A    between atoms: O_19  and  C_9 
REMARK    3  A    between atoms: O_20  and  C_13 
ROOT
ATOM      1  C   UNL d   1      52.031  33.906  53.025  0.00  0.00     0.064 A 
ATOM      2  C   UNL d   1      52.230  33.109  53.147  0.00  0.00     0.007 A 
ATOM      3  C   UNL d   1      52.541  34.507  53.296  0.00  0.00     0.300 A 
ATOM      4  C   UNL d   1      52.931  32.910  53.536  0.00  0.00     0.026 A 
ATOM      5  O   UNL d   1      53.253  34.313  53.690  0.00  0.00    -0.273 OA
ATOM      6  C   UNL d   1      53.442  33.511  53.807  0.00  0.00     0.103 A 
ATOM      7  O   UNL d   1      52.344  35.301  53.175  0.00  0.00    -0.259 OA
ATOM      8  C   UNL d   1      53.136  32.119  53.662  0.00  0.00     0.044 A 
ATOM      9  C   UNL d   1      54.139  33.317  54.194  0.00  0.00     0.028 A 
ATOM     10  C   UNL d   1      53.827  31.931  54.045  0.00  0.00     0.196 A 
ATOM     11  C   UNL d   1      51.730  32.521  52.882  0.00  0.00     0.000 C 
ATOM     12  C   UNL d   1      54.332  32.526  54.313  0.00  0.00     0.044 A 
ATOM     13  O   UNL d   1      54.024  31.137  54.166  0.00  0.00    -0.287 OA
ENDROOT
BRANCH   1  14
ATOM     14  C   UNL d   1      51.331  34.102  52.637  0.00  0.00     0.007 A 
ATOM     15  C   UNL d   1      50.663  34.302  53.075  0.00  0.00     0.026 A 
ATOM     16  C   UNL d   1      49.964  34.498  52.697  0.00  0.00     0.116 A 
ATOM     17  C   UNL d   1      49.928  34.496  51.873  0.00  0.00     0.116 A 
ATOM     18  C   UNL d   1      50.600  34.295  51.427  0.00  0.00     0.026 A 
ATOM     19  C   UNL d   1      51.300  34.099  51.822  0.00  0.00     0.002 A 
BRANCH  16  20
ATOM     20  O   UNL d   1      49.291  34.698  53.126  0.00  0.00    -0.326 OA
ATOM     21  C   UNL d   1      49.321  35.330  53.655  0.00  0.00     0.181 C 
ENDBRANCH  16  20
BRANCH  17  22
ATOM     22  O   UNL d   1      49.232  34.691  51.477  0.00  0.00    -0.326 OA
ATOM     23  C   UNL d   1      49.161  34.497  50.672  0.00  0.00     0.181 C 
ENDBRANCH  17  22
ENDBRANCH   1  14
TORSDOF 3
ENDMDL
MODEL 4
REMARK VINA RESULT:      -8.5      0.920      4.229
REMARK  3 active torsions:
REMARK  status: ('A' for Active; 'I' for Inactive)
REMARK    1  A    between atoms: C_6  and  C_1 
REMARK    2  A    between atoms: O_19  and  C_9 
REMARK    3  A    between atoms: O_20  and  C_13 
ROOT
ATOM      1  C   UNL d   1      52.991  32.216  53.465  0.00  0.00     0.064 A 
ATOM      2  C   UNL d   1      53.192  32.716  54.097  0.00  0.00     0.007 A 
ATOM      3  C   UNL d   1      52.707  32.542  52.753  0.00  0.00     0.300 A 
ATOM      4  C   UNL d   1      53.111  33.535  54.022  0.00  0.00     0.026 A 
ATOM      5  O   UNL d   1      52.623  33.371  52.669  0.00  0.00    -0.273 OA
ATOM      6  C   UNL d   1      52.827  33.861  53.310  0.00  0.00     0.103 A 
ATOM      7  O   UNL d   1      52.507  32.046  52.122  0.00  0.00    -0.259 OA
ATOM      8  C   UNL d   1      53.309  34.038  54.647  0.00  0.00     0.044 A 
ATOM      9  C   UNL d   1      52.746  34.674  53.232  0.00  0.00     0.028 A 
ATOM     10  C   UNL d   1      53.227  34.842  54.566  0.00  0.00     0.196 A 
ATOM     11  C   UNL d   1      53.469  32.396  54.795  0.00  0.00     0.000 C 
ATOM     12  C   UNL d   1      52.946  35.166  53.861  0.00  0.00     0.044 A 
ATOM     13  O   UNL d   1      53.427  35.339  55.196  0.00  0.00    -0.287 OA
ENDROOT
BRANCH   1  14
ATOM     14  C   UNL d   1      53.072  31.400  53.542  0.00  0.00     0.007 A 
ATOM     15  C   UNL d   1      52.401  30.923  53.574  0.00  0.00     0.026 A 
ATOM     16  C   UNL d   1      52.474  30.111  53.650  0.00  0.00     0.116 A 
ATOM     17  C   UNL d   1      53.223  29.768  53.695  0.00  0.00     0.116 A 
ATOM     18  C   UNL d   1      53.903  30.245  53.663  0.00  0.00     0.026 A 
ATOM     19  C   UNL d   1      53.814  31.065  53.586  0.00  0.00     0.002 A 
BRANCH  16  20
ATOM     20  O   UNL d   1      51.809  29.627  53.684  0.00  0.00    -0.326 OA
ATOM     21  C   UNL d   1      51.059  29.969  53.715  0.00  0.00     0.181 C 
ENDBRANCH  16  20
BRANCH  17  22
ATOM     22  O   UNL d   1      53.313  28.953  53.773  0.00  0.00    -0.326 OA
ATOM     23  C   UNL d   1      53.760  28.657  54.408  0.00  0.00     0.181 C 
ENDBRANCH  17  22
ENDBRANCH   1  14
TORSDOF 3
ENDMDL
MODEL 5
REMARK VINA RESULT:      -8.1      2.056      3.669
REMARK  3 active torsions:
REMARK  status: ('A' for Active; 'I' for Inactive)
REMARK    1  A    between atoms: C_6  and  C_1 
REMARK    2  A    between atoms: O_19  and  C_9 
REMARK    3  A    between atoms: O_20  and  C_13 
ROOT
ATOM      1  C   UNL d   1      52.264  33.738  53.170  0.00  0.00     0.064 A 
ATOM      2  C   UNL d   1      51.596  34.145  53.450  0.00  0.00     0.007 A 
ATOM      3  C   UNL d   1      52.284  33.466  52.383  0.00  0.00     0.300 A 
ATOM      4  C   UNL d   1      50.952  34.280  52.950  0.00  0.00     0.026 A 
ATOM      5  O   UNL d   1      51.636  33.600  51.871  0.00  0.00    -0.273 OA
ATOM      6  C   UNL d   1      50.972  34.009  52.162  0.00  0.00     0.103 A 
ATOM      7  O   UNL d   1      52.949  33.061  52.103  0.00  0.00    -0.259 OA
ATOM      8  C   UNL d   1      50.284  34.684  53.221  0.00  0.00     0.044 A 
ATOM      9  C   UNL d   1      50.335  34.142  51.663  0.00  0.00     0.028 A 
ATOM     10  C   UNL d   1      49.654  34.814  52.724  0.00  0.00     0.196 A 
ATOM     11  C   UNL d   1      51.576  34.411  54.221  0.00  0.00     0.000 C 
ATOM     12  C   UNL d   1      49.674  34.545  51.944  0.00  0.00     0.044 A 
ATOM     13  O   UNL d   1      48.989  35.219  53.003  0.00  0.00    -0.287 OA
ENDROOT
BRANCH   1  14
ATOM     14  C   UNL d   1      52.904  33.604  53.670  0.00  0.00     0.007 A 
ATOM     15  C   UNL d   1      53.016  32.858  54.001  0.00  0.00     0.026 A 
ATOM     16  C   UNL d   1      53.651  32.717  54.499  0.00  0.00     0.116 A 
ATOM     17  C   UNL d   1      54.181  33.325  54.671  0.00  0.00     0.116 A 
ATOM     18  C   UNL d   1      54.072  34.080  54.340  0.00  0.00     0.026 A 
ATOM     19  C   UNL d   1      53.426  34.208  53.838  0.00  0.00     0.002 A 
BRANCH  16  20
ATOM     20  O   UNL d   1      53.771  31.975  54.834  0.00  0.00    -0.326 OA
ATOM     21  C   UNL d   1      53.593  31.299  54.395  0.00  0.00     0.181 C 
ENDBRANCH  16  20
BRANCH  17  22
ATOM     22  O   UNL d   1      54.825  33.199  55.170  0.00  0.00    -0.326 OA
ATOM     23  C   UNL d   1      55.355  33.825  55.306  0.00  0.00     0.181 C 
ENDBRANCH  17  22
ENDBRANCH   1  14
TORSDOF 3
ENDMDL
MODEL 6
REMARK VINA RESULT:      -7.4      1.469      1.983
REMARK  3 active torsions:
REMARK  status: ('A' for Active; 'I' for Inactive)
REMARK    1  A    between atoms: C_6  and  C_1 
REMARK    2  A    between atoms: O_19  and  C_9 
REMARK    3  A    between atoms: O_20  and  C_13 
ROOT
ATOM      1  C   UNL d   1      52.809  32.435  53.190  0.00  0.00     0.064 A 
ATOM      2  C   UNL d   1      52.483  31.689  53.355  0.00  0.00     0.007 A 
ATOM      3  C   UNL d   1      53.633  32.515  53.095  0.00  0.00     0.300 A 
ATOM      4  C   UNL d   1      52.973  31.027  53.426  0.00  0.00     0.026 A 
ATOM      5  O   UNL d   1      54.135  31.849  53.166  0.00  0.00    -0.273 OA
ATOM      6  C   UNL d   1      53.797  31.107  53.332  0.00  0.00     0.103 A 
ATOM      7  O   UNL d   1      53.960  33.257  52.930  0.00  0.00    -0.259 OA
ATOM      8  C   UNL d   1      52.655  30.282  53.591  0.00  0.00     0.044 A 
ATOM      9  C   UNL d   1      54.286  30.452  53.402  0.00  0.00     0.028 A 
ATOM     10  C   UNL d   1      53.142  29.636  53.660  0.00  0.00     0.196 A 
ATOM     11  C   UNL d   1      51.676  31.611  53.448  0.00  0.00     0.000 C 
ATOM     12  C   UNL d   1      53.958  29.715  53.566  0.00  0.00     0.044 A 
ATOM     13  O   UNL d   1      52.816  28.894  53.825  0.00  0.00    -0.287 OA
ENDROOT
BRANCH   1  14
ATOM     14  C   UNL d   1      52.320  33.093  53.119  0.00  0.00     0.007 A 
ATOM     15  C   UNL d   1      52.353  33.691  53.685  0.00  0.00     0.026 A 
ATOM     16  C   UNL d   1      51.869  34.348  53.622  0.00  0.00     0.116 A 
ATOM     17  C   UNL d   1      51.346  34.414  52.988  0.00  0.00     0.116 A 
ATOM     18  C   UNL d   1      51.309  33.813  52.414  0.00  0.00     0.026 A 
ATOM     19  C   UNL d   1      51.804  33.154  52.490  0.00  0.00     0.002 A 
BRANCH  16  20
ATOM     20  O   UNL d   1      51.895  34.950  54.183  0.00  0.00    -0.326 OA
ATOM     21  C   UNL d   1      52.626  35.211  54.462  0.00  0.00     0.181 C 
ENDBRANCH  16  20
BRANCH  17  22
ATOM     22  O   UNL d   1      50.853  35.069  52.909  0.00  0.00    -0.326 OA
ATOM     23  C   UNL d   1      50.078  34.957  52.630  0.00  0.00     0.181 C 
ENDBRANCH  17  22
ENDBRANCH   1  14
TORSDOF 3
ENDMDL
