MODEL 1
REMARK VINA RESULT:      57.6      0.000      0.000
REMARK  1 active torsions:
REMARK  status: ('A' for Active; 'I' for Inactive)
REMARK    1  A    between atoms: C_12  and  N_1 
ROOT
ATOM      1  N   UNL d   1     -52.560  24.957  33.367  0.00  0.00    -0.244 N 
ATOM      2  C   UNL d   1     -52.434  25.750  33.350  0.00  0.00     0.251 A 
ATOM      3  C   UNL d   1     -51.790  24.646  33.380  0.00  0.00     0.260 A 
ATOM      4  C   UNL d   1     -51.247  25.231  33.371  0.00  0.00     0.033 A 
ATOM      5  C   UNL d   1     -51.648  25.923  33.353  0.00  0.00     0.125 A 
ATOM      6  C   UNL d   1     -49.254  26.486  33.359  0.00  0.00     0.068 A 
ATOM      7  C   UNL d   1     -50.817  25.944  33.359  0.00  0.00    -0.010 A 
ATOM      8  C   UNL d   1     -50.211  25.405  33.376  0.00  0.00    -0.007 A 
ATOM      9  C   UNL d   1     -49.432  25.679  33.375  0.00  0.00    -0.015 A 
ATOM     10  C   UNL d   1     -49.894  27.007  33.342  0.00  0.00    -0.015 A 
ATOM     11  C   UNL d   1     -50.670  26.739  33.342  0.00  0.00    -0.007 A 
ATOM     12  O   UNL d   1     -52.947  26.163  33.337  0.00  0.00    -0.271 OA
ATOM     13  O   UNL d   1     -51.728  23.953  33.397  0.00  0.00    -0.267 OA
ATOM     14  C   UNL d   1     -51.292  27.276  33.325  0.00  0.00    -0.001 A 
ATOM     15  C   UNL d   1     -50.370  24.604  33.392  0.00  0.00    -0.001 A 
ATOM     16  C   UNL d   1     -48.795  25.133  33.393  0.00  0.00    -0.004 A 
ATOM     17  C   UNL d   1     -49.737  27.812  33.325  0.00  0.00    -0.004 A 
ATOM     18  C   UNL d   1     -51.122  28.088  33.308  0.00  0.00    -0.000 A 
ATOM     19  C   UNL d   1     -49.725  24.053  33.410  0.00  0.00    -0.000 A 
ATOM     20  C   UNL d   1     -48.943  24.328  33.410  0.00  0.00    -0.000 A 
ATOM     21  C   UNL d   1     -50.361  28.346  33.308  0.00  0.00    -0.000 A 
ENDROOT
BRANCH   1  22
ATOM     22  C   UNL d   1     -53.320  24.550  33.371  0.00  0.00     0.089 A 
ATOM     23  C   UNL d   1     -54.052  25.010  33.344  0.00  0.00     0.117 A 
ATOM     24  N   UNL d   1     -54.824  24.604  33.348  0.00  0.00    -0.241 NA
ATOM     25  C   UNL d   1     -54.863  23.727  33.377  0.00  0.00     0.099 A 
ATOM     26  C   UNL d   1     -54.126  23.273  33.403  0.00  0.00     0.022 A 
ATOM     27  C   UNL d   1     -53.351  23.687  33.400  0.00  0.00     0.021 A 
ENDBRANCH   1  22
TORSDOF 1
ENDMDL
