MODEL 1
REMARK VINA RESULT:      -6.1      0.000      0.000
REMARK  3 active torsions:
REMARK  status: ('A' for Active; 'I' for Inactive)
REMARK    1  A    between atoms: C_6  and  C_2 
REMARK    2  A    between atoms: O_7  and  C_6 
REMARK    3  A    between atoms: C_8  and  O_7 
ROOT
ATOM      1  N   UNL d   1     -41.325-123.036 -53.143  0.00  0.00    -0.224 NA
ATOM      2  C   UNL d   1     -41.626-122.475 -52.611  0.00  0.00     0.188 A 
ATOM      3  N   UNL d   1     -41.979-121.884 -53.073  0.00  0.00    -0.224 NA
ATOM      4  C   UNL d   1     -41.489-122.795 -53.901  0.00  0.00     0.101 A 
ATOM      5  C   UNL d   1     -41.896-122.077 -53.858  0.00  0.00     0.101 A 
ATOM      6  C   UNL d   1     -41.335-123.110 -54.643  0.00  0.00     0.021 A 
ATOM      7  C   UNL d   1     -42.140-121.692 -54.556  0.00  0.00     0.021 A 
ATOM      8  C   UNL d   1     -41.971-122.033 -55.264  0.00  0.00     0.002 A 
ATOM      9  C   UNL d   1     -41.563-122.752 -55.308  0.00  0.00     0.002 A 
ENDROOT
BRANCH   2  10
ATOM     10  C   UNL d   1     -41.476-122.689 -51.851  0.00  0.00     0.161 C 
BRANCH  10  11
ATOM     11  O   UNL d   1     -41.831-122.274 -51.215  0.00  0.00    -0.302 OA
BRANCH  11  12
ATOM     12  C   UNL d   1     -41.835-122.593 -50.446  0.00  0.00     0.100 A 
ATOM     13  C   UNL d   1     -42.536-122.629 -50.024  0.00  0.00     0.025 A 
ATOM     14  C   UNL d   1     -42.567-122.940 -49.259  0.00  0.00     0.002 A 
ATOM     15  C   UNL d   1     -41.858-123.213 -48.939  0.00  0.00     0.000 A 
ATOM     16  C   UNL d   1     -41.153-123.177 -49.360  0.00  0.00     0.002 A 
ATOM     17  C   UNL d   1     -41.862-123.531 -48.169  0.00  0.00     0.000 C 
ATOM     18  C   UNL d   1     -41.127-122.867 -50.121  0.00  0.00     0.025 A 
ENDBRANCH  11  12
ENDBRANCH  10  11
ENDBRANCH   2  10
TORSDOF 3
ENDMDL
MODEL 2
REMARK VINA RESULT:      -5.8      0.952      4.685
REMARK  3 active torsions:
REMARK  status: ('A' for Active; 'I' for Inactive)
REMARK    1  A    between atoms: C_6  and  C_2 
REMARK    2  A    between atoms: O_7  and  C_6 
REMARK    3  A    between atoms: C_8  and  O_7 
ROOT
ATOM      1  N   UNL d   1     -42.321-122.454 -50.791  0.00  0.00    -0.224 NA
ATOM      2  C   UNL d   1     -41.671-122.627 -51.278  0.00  0.00     0.188 A 
ATOM      3  N   UNL d   1     -41.130-123.038 -50.803  0.00  0.00    -0.224 NA
ATOM      4  C   UNL d   1     -42.180-122.749 -50.047  0.00  0.00     0.101 A 
ATOM      5  C   UNL d   1     -41.437-123.113 -50.055  0.00  0.00     0.101 A 
ATOM      6  C   UNL d   1     -42.605-122.750 -49.347  0.00  0.00     0.021 A 
ATOM      7  C   UNL d   1     -41.140-123.468 -49.362  0.00  0.00     0.021 A 
ATOM      8  C   UNL d   1     -41.588-123.449 -48.695  0.00  0.00     0.002 A 
ATOM      9  C   UNL d   1     -42.331-123.085 -48.687  0.00  0.00     0.002 A 
ENDROOT
BRANCH   2  10
ATOM     10  C   UNL d   1     -41.786-122.346 -52.022  0.00  0.00     0.161 C 
BRANCH  10  11
ATOM     11  O   UNL d   1     -41.338-122.647 -52.663  0.00  0.00    -0.302 OA
BRANCH  11  12
ATOM     12  C   UNL d   1     -41.555-122.484 -53.450  0.00  0.00     0.100 A 
ATOM     13  C   UNL d   1     -42.011-121.825 -53.619  0.00  0.00     0.025 A 
ATOM     14  C   UNL d   1     -42.240-121.641 -54.390  0.00  0.00     0.002 A 
ATOM     15  C   UNL d   1     -41.987-122.152 -54.986  0.00  0.00     0.000 A 
ATOM     16  C   UNL d   1     -41.530-122.815 -54.820  0.00  0.00     0.002 A 
ATOM     17  C   UNL d   1     -42.204-121.989 -55.773  0.00  0.00     0.000 C 
ATOM     18  C   UNL d   1     -41.305-122.994 -54.050  0.00  0.00     0.025 A 
ENDBRANCH  11  12
ENDBRANCH  10  11
ENDBRANCH   2  10
TORSDOF 3
ENDMDL
MODEL 3
REMARK VINA RESULT:      -5.1      1.256      4.767
REMARK  3 active torsions:
REMARK  status: ('A' for Active; 'I' for Inactive)
REMARK    1  A    between atoms: C_6  and  C_2 
REMARK    2  A    between atoms: O_7  and  C_6 
REMARK    3  A    between atoms: C_8  and  O_7 
ROOT
ATOM      1  N   UNL d   1     -42.416-123.207 -50.234  0.00  0.00    -0.224 NA
ATOM      2  C   UNL d   1     -41.662-123.053 -50.543  0.00  0.00     0.188 A 
ATOM      3  N   UNL d   1     -41.132-123.126 -49.909  0.00  0.00    -0.224 NA
ATOM      4  C   UNL d   1     -42.348-123.368 -49.441  0.00  0.00     0.101 A 
ATOM      5  C   UNL d   1     -41.548-123.317 -49.238  0.00  0.00     0.101 A 
ATOM      6  C   UNL d   1     -42.886-123.556 -48.852  0.00  0.00     0.021 A 
ATOM      7  C   UNL d   1     -41.307-123.456 -48.452  0.00  0.00     0.021 A 
ATOM      8  C   UNL d   1     -41.865-123.638 -47.904  0.00  0.00     0.002 A 
ATOM      9  C   UNL d   1     -42.665-123.689 -48.106  0.00  0.00     0.002 A 
ENDROOT
BRANCH   2  10
ATOM     10  C   UNL d   1     -41.701-122.890 -51.329  0.00  0.00     0.161 C 
BRANCH  10  11
ATOM     11  O   UNL d   1     -41.163-123.247 -51.864  0.00  0.00    -0.302 OA
BRANCH  11  12
ATOM     12  C   UNL d   1     -41.217-123.108 -52.683  0.00  0.00     0.100 A 
ATOM     13  C   UNL d   1     -41.286-122.341 -52.961  0.00  0.00     0.025 A 
ATOM     14  C   UNL d   1     -41.342-122.174 -53.768  0.00  0.00     0.002 A 
ATOM     15  C   UNL d   1     -41.325-122.818 -54.283  0.00  0.00     0.000 A 
ATOM     16  C   UNL d   1     -41.255-123.590 -54.007  0.00  0.00     0.002 A 
ATOM     17  C   UNL d   1     -41.379-122.678 -55.102  0.00  0.00     0.000 C 
ATOM     18  C   UNL d   1     -41.200-123.749 -53.202  0.00  0.00     0.025 A 
ENDBRANCH  11  12
ENDBRANCH  10  11
ENDBRANCH   2  10
TORSDOF 3
ENDMDL
