MODEL 1
REMARK VINA RESULT:      -8.0      0.000      0.000
REMARK  4 active torsions:
REMARK  status: ('A' for Active; 'I' for Inactive)
REMARK    1  A    between atoms: N_2  and  C_1 
REMARK    2  A    between atoms: C_4  and  C_1 
REMARK    3  A    between atoms: C_6  and  N_2 
REMARK    4  A    between atoms: O_12  and  C_7 
ROOT
ATOM      1  N   UNL d   1      53.671  31.943  54.534  0.00  0.00    -0.235 NA
ENDROOT
BRANCH   1   2
ATOM      2  C   UNL d   1      53.719  31.607  53.781  0.00  0.00     0.136 C 
ATOM      3  S   UNL d   1      54.087  32.015  53.160  0.00  0.00    -0.057 SA
BRANCH   2   4
ATOM      4  C   UNL d   1      53.395  30.853  53.643  0.00  0.00     0.031 A 
ATOM      5  C   UNL d   1      53.584  30.220  54.153  0.00  0.00     0.023 A 
ATOM      6  C   UNL d   1      53.265  29.471  54.019  0.00  0.00     0.099 A 
ATOM      7  N   UNL d   1      52.757  29.355  53.374  0.00  0.00    -0.242 NA
ATOM      8  C   UNL d   1      52.570  29.982  52.869  0.00  0.00     0.099 A 
ATOM      9  C   UNL d   1      52.889  30.731  53.002  0.00  0.00     0.023 A 
ENDBRANCH   2   4
ENDBRANCH   1   2
BRANCH   1  10
ATOM     10  C   UNL d   1      53.674  32.763  54.612  0.00  0.00     0.082 A 
ATOM     11  C   UNL d   1      54.344  33.137  54.922  0.00  0.00     0.021 A 
ATOM     12  C   UNL d   1      54.353  33.961  55.003  0.00  0.00     0.026 A 
ATOM     13  C   UNL d   1      53.696  34.405  54.776  0.00  0.00     0.094 A 
ATOM     14  C   UNL d   1      53.026  34.023  54.466  0.00  0.00     0.026 A 
ATOM     15  C   UNL d   1      53.019  33.204  54.386  0.00  0.00     0.021 A 
BRANCH  13  16
ATOM     16  O   UNL d   1      53.707  35.226  54.858  0.00  0.00    -0.328 OA
ATOM     17  C   UNL d   1      53.116  35.685  54.506  0.00  0.00     0.181 C 
ENDBRANCH  13  16
ENDBRANCH   1  10
TORSDOF 4
ENDMDL
MODEL 2
REMARK VINA RESULT:      -7.8      2.363      4.112
REMARK  4 active torsions:
REMARK  status: ('A' for Active; 'I' for Inactive)
REMARK    1  A    between atoms: N_2  and  C_1 
REMARK    2  A    between atoms: C_4  and  C_1 
REMARK    3  A    between atoms: C_6  and  N_2 
REMARK    4  A    between atoms: O_12  and  C_7 
ROOT
ATOM      1  N   UNL d   1      52.728  32.117  52.688  0.00  0.00    -0.235 NA
ENDROOT
BRANCH   1   2
ATOM      2  C   UNL d   1      52.546  32.748  53.189  0.00  0.00     0.136 C 
ATOM      3  S   UNL d   1      52.959  32.857  53.899  0.00  0.00    -0.057 SA
BRANCH   2   4
ATOM      4  C   UNL d   1      51.942  33.281  52.979  0.00  0.00     0.031 A 
ATOM      5  C   UNL d   1      52.051  33.799  52.333  0.00  0.00     0.023 A 
ATOM      6  C   UNL d   1      51.454  34.328  52.123  0.00  0.00     0.099 A 
ATOM      7  N   UNL d   1      50.749  34.341  52.558  0.00  0.00    -0.242 NA
ATOM      8  C   UNL d   1      50.641  33.828  53.198  0.00  0.00     0.099 A 
ATOM      9  C   UNL d   1      51.238  33.298  53.409  0.00  0.00     0.023 A 
ENDBRANCH   2   4
ENDBRANCH   1   2
BRANCH   1  10
ATOM     10  C   UNL d   1      52.918  31.384  53.014  0.00  0.00     0.082 A 
ATOM     11  C   UNL d   1      52.411  30.743  52.889  0.00  0.00     0.021 A 
ATOM     12  C   UNL d   1      52.596  30.004  53.213  0.00  0.00     0.026 A 
ATOM     13  C   UNL d   1      53.284  29.909  53.659  0.00  0.00     0.094 A 
ATOM     14  C   UNL d   1      53.789  30.558  53.781  0.00  0.00     0.026 A 
ATOM     15  C   UNL d   1      53.604  31.292  53.457  0.00  0.00     0.021 A 
BRANCH  13  16
ATOM     16  O   UNL d   1      53.467  29.173  53.981  0.00  0.00    -0.328 OA
ATOM     17  C   UNL d   1      53.247  28.994  54.758  0.00  0.00     0.181 C 
ENDBRANCH  13  16
ENDBRANCH   1  10
TORSDOF 4
ENDMDL
MODEL 3
REMARK VINA RESULT:      -7.4      2.518      3.547
REMARK  4 active torsions:
REMARK  status: ('A' for Active; 'I' for Inactive)
REMARK    1  A    between atoms: N_2  and  C_1 
REMARK    2  A    between atoms: C_4  and  C_1 
REMARK    3  A    between atoms: C_6  and  N_2 
REMARK    4  A    between atoms: O_12  and  C_7 
ROOT
ATOM      1  N   UNL d   1      52.342  33.724  53.844  0.00  0.00    -0.235 NA
ENDROOT
BRANCH   1   2
ATOM      2  C   UNL d   1      52.886  33.122  53.687  0.00  0.00     0.136 C 
ATOM      3  S   UNL d   1      52.686  32.492  53.187  0.00  0.00    -0.057 SA
BRANCH   2   4
ATOM      4  C   UNL d   1      53.642  33.147  54.034  0.00  0.00     0.031 A 
ATOM      5  C   UNL d   1      54.320  33.027  53.562  0.00  0.00     0.023 A 
ATOM      6  C   UNL d   1      55.071  33.051  53.903  0.00  0.00     0.099 A 
ATOM      7  N   UNL d   1      55.144  33.195  54.716  0.00  0.00    -0.242 NA
ATOM      8  C   UNL d   1      54.473  33.313  55.184  0.00  0.00     0.099 A 
ATOM      9  C   UNL d   1      53.722  33.290  54.843  0.00  0.00     0.023 A 
ENDBRANCH   2   4
ENDBRANCH   1   2
BRANCH   1  10
ATOM     10  C   UNL d   1      51.728  33.863  53.312  0.00  0.00     0.082 A 
ATOM     11  C   UNL d   1      50.975  33.563  53.479  0.00  0.00     0.021 A 
ATOM     12  C   UNL d   1      50.354  33.699  52.949  0.00  0.00     0.026 A 
ATOM     13  C   UNL d   1      50.486  34.131  52.259  0.00  0.00     0.094 A 
ATOM     14  C   UNL d   1      51.245  34.429  52.098  0.00  0.00     0.026 A 
ATOM     15  C   UNL d   1      51.862  34.293  52.626  0.00  0.00     0.021 A 
BRANCH  13  16
ATOM     16  O   UNL d   1      49.866  34.266  51.733  0.00  0.00    -0.328 OA
ATOM     17  C   UNL d   1      49.207  34.704  51.972  0.00  0.00     0.181 C 
ENDBRANCH  13  16
ENDBRANCH   1  10
TORSDOF 4
ENDMDL
