MODEL 1
REMARK VINA RESULT:      74.0      0.000      0.000
REMARK  3 active torsions:
REMARK  status: ('A' for Active; 'I' for Inactive)
REMARK    1  A    between atoms: N_10  and  C_3 
REMARK    2  A    between atoms: C_11  and  C_5 
REMARK    3  A    between atoms: C_12  and  C_9 
ROOT
ATOM      1  N   UNL d   1     -52.036  25.433  33.960  0.00  0.00    -0.196 N 
ATOM      2  C   UNL d   1     -51.274  25.775  33.941  0.00  0.00     0.167 A 
ATOM      3  C   UNL d   1     -52.112  24.617  33.888  0.00  0.00     0.152 A 
ATOM      4  N   UNL d   1     -52.615  26.734  34.123  0.00  0.00    -0.163 NA
ATOM      5  C   UNL d   1     -51.189  26.581  34.011  0.00  0.00     0.055 A 
ATOM      6  N   UNL d   1     -50.614  25.288  33.850  0.00  0.00    -0.227 NA
ATOM      7  C   UNL d   1     -51.425  24.124  33.795  0.00  0.00     0.057 A 
ATOM      8  C   UNL d   1     -51.852  27.075  34.103  0.00  0.00     0.104 A 
ATOM      9  C   UNL d   1     -50.697  24.478  33.779  0.00  0.00     0.086 A 
ATOM     10  C   UNL d   1     -51.766  27.878  34.173  0.00  0.00     0.023 C 
ENDROOT
BRANCH   5  11
ATOM     11  C   UNL d   1     -50.418  26.927  33.992  0.00  0.00     0.004 A 
ATOM     12  C   UNL d   1     -50.182  27.364  33.335  0.00  0.00     0.000 A 
ATOM     13  C   UNL d   1     -49.423  27.704  33.316  0.00  0.00     0.000 A 
ATOM     14  C   UNL d   1     -48.916  27.600  33.953  0.00  0.00     0.000 A 
ATOM     15  C   UNL d   1     -49.159  27.158  34.614  0.00  0.00     0.000 A 
ATOM     16  C   UNL d   1     -49.908  26.826  34.625  0.00  0.00     0.000 A 
ENDBRANCH   5  11
BRANCH   3  17
ATOM     17  N   UNL d   1     -52.893  24.262  33.908  0.00  0.00    -0.289 N 
ATOM     18  C   UNL d   1     -53.340  24.327  33.308  0.00  0.00     0.082 A 
ATOM     19  C   UNL d   1     -54.028  24.010  33.333  0.00  0.00     0.021 A 
ATOM     20  C   UNL d   1     -53.798  23.585  34.533  0.00  0.00     0.021 A 
ATOM     21  C   UNL d   1     -53.110  23.901  34.508  0.00  0.00     0.082 A 
ENDBRANCH   3  17
BRANCH   9  22
ATOM     22  C   UNL d   1     -49.998  23.971  33.684  0.00  0.00     0.018 C 
ATOM     23  C   UNL d   1     -49.225  24.252  33.970  0.00  0.00     0.002 C 
ATOM     24  C   UNL d   1     -50.072  23.195  33.308  0.00  0.00     0.002 C 
ENDBRANCH   9  22
TORSDOF 3
ENDMDL
