MODEL 1
REMARK VINA RESULT:      -8.3      0.000      0.000
REMARK  4 active torsions:
REMARK  status: ('A' for Active; 'I' for Inactive)
REMARK    1  A    between atoms: N_2  and  C_1 
REMARK    2  A    between atoms: C_9  and  C_3 
REMARK    3  A    between atoms: O_15  and  C_9 
REMARK    4  A    between atoms: C_18  and  O_15 
ROOT
ATOM      1  C   UNL d   1      53.838  31.856  53.890  0.00  0.00     0.105 A 
ATOM      2  C   UNL d   1      53.189  31.920  53.383  0.00  0.00     0.086 A 
ATOM      3  S   UNL d   1      53.959  31.054  54.020  0.00  0.00    -0.069 SA
ATOM      4  C   UNL d   1      52.921  31.165  53.209  0.00  0.00     0.013 A 
ATOM      5  C   UNL d   1      53.394  30.628  53.600  0.00  0.00     0.031 A 
ATOM      6  C   UNL d   1      52.284  30.969  52.722  0.00  0.00     0.001 C 
ATOM      7  C   UNL d   1      53.320  29.807  53.580  0.00  0.00     0.007 C 
ENDROOT
BRANCH   1   8
ATOM      8  N   UNL d   1      54.254  32.506  54.184  0.00  0.00    -0.236 N 
ATOM      9  C   UNL d   1      54.824  32.982  53.833  0.00  0.00     0.268 A 
ATOM     10  C   UNL d   1      55.049  33.553  54.392  0.00  0.00     0.066 A 
ATOM     11  O   UNL d   1      55.126  32.908  53.057  0.00  0.00    -0.267 OA
ATOM     12  C   UNL d   1      54.613  33.417  55.072  0.00  0.00     0.066 A 
ATOM     13  C   UNL d   1      54.126  32.777  54.946  0.00  0.00     0.268 A 
ATOM     14  O   UNL d   1      53.605  32.462  55.485  0.00  0.00    -0.267 OA
ENDBRANCH   1   8
BRANCH   2  15
ATOM     15  C   UNL d   1      52.864  32.633  53.098  0.00  0.00     0.302 C 
ATOM     16  O   UNL d   1      53.224  33.024  52.455  0.00  0.00    -0.259 OA
BRANCH  15  17
ATOM     17  O   UNL d   1      52.200  32.939  53.449  0.00  0.00    -0.271 OA
BRANCH  17  18
ATOM     18  C   UNL d   1      51.723  33.479  53.029  0.00  0.00     0.126 C 
ATOM     19  C   UNL d   1      51.086  33.849  53.405  0.00  0.00     0.029 C 
ENDBRANCH  17  18
ENDBRANCH  15  17
ENDBRANCH   2  15
TORSDOF 4
ENDMDL
MODEL 2
REMARK VINA RESULT:      -8.0      1.440      3.238
REMARK  4 active torsions:
REMARK  status: ('A' for Active; 'I' for Inactive)
REMARK    1  A    between atoms: N_2  and  C_1 
REMARK    2  A    between atoms: C_9  and  C_3 
REMARK    3  A    between atoms: O_15  and  C_9 
REMARK    4  A    between atoms: C_18  and  O_15 
ROOT
ATOM      1  C   UNL d   1      52.581  33.690  53.736  0.00  0.00     0.105 A 
ATOM      2  C   UNL d   1      53.068  33.027  53.660  0.00  0.00     0.086 A 
ATOM      3  S   UNL d   1      52.886  34.139  54.351  0.00  0.00    -0.069 SA
ATOM      4  C   UNL d   1      53.661  33.075  54.224  0.00  0.00     0.013 A 
ATOM      5  C   UNL d   1      53.552  33.761  54.652  0.00  0.00     0.031 A 
ATOM      6  C   UNL d   1      54.269  32.532  54.347  0.00  0.00     0.001 C 
ATOM      7  C   UNL d   1      54.022  34.027  55.276  0.00  0.00     0.007 C 
ENDROOT
BRANCH   1   8
ATOM      8  N   UNL d   1      51.923  33.830  53.257  0.00  0.00    -0.236 N 
ATOM      9  C   UNL d   1      51.148  33.562  53.319  0.00  0.00     0.268 A 
ATOM     10  C   UNL d   1      50.724  33.881  52.680  0.00  0.00     0.066 A 
ATOM     11  O   UNL d   1      50.839  33.062  53.913  0.00  0.00    -0.267 OA
ATOM     12  C   UNL d   1      51.245  34.336  52.242  0.00  0.00     0.066 A 
ATOM     13  C   UNL d   1      51.978  34.305  52.593  0.00  0.00     0.268 A 
ATOM     14  O   UNL d   1      52.649  34.682  52.330  0.00  0.00    -0.267 OA
ENDBRANCH   1   8
BRANCH   2  15
ATOM     15  C   UNL d   1      52.971  32.414  53.103  0.00  0.00     0.302 C 
ATOM     16  O   UNL d   1      53.171  32.545  52.303  0.00  0.00    -0.259 OA
BRANCH  15  17
ATOM     17  O   UNL d   1      52.683  31.695  53.344  0.00  0.00    -0.271 OA
BRANCH  17  18
ATOM     18  C   UNL d   1      52.826  31.017  52.881  0.00  0.00     0.126 C 
ATOM     19  C   UNL d   1      52.521  30.284  53.114  0.00  0.00     0.029 C 
ENDBRANCH  17  18
ENDBRANCH  15  17
ENDBRANCH   2  15
TORSDOF 4
ENDMDL
MODEL 3
REMARK VINA RESULT:      -7.4      1.094      2.175
REMARK  4 active torsions:
REMARK  status: ('A' for Active; 'I' for Inactive)
REMARK    1  A    between atoms: N_2  and  C_1 
REMARK    2  A    between atoms: C_9  and  C_3 
REMARK    3  A    between atoms: O_15  and  C_9 
REMARK    4  A    between atoms: C_18  and  O_15 
ROOT
ATOM      1  C   UNL d   1      53.388  33.163  53.755  0.00  0.00     0.105 A 
ATOM      2  C   UNL d   1      53.149  32.449  53.416  0.00  0.00     0.086 A 
ATOM      3  S   UNL d   1      52.824  33.723  53.551  0.00  0.00    -0.069 SA
ATOM      4  C   UNL d   1      52.448  32.576  53.011  0.00  0.00     0.013 A 
ATOM      5  C   UNL d   1      52.244  33.361  53.092  0.00  0.00     0.031 A 
ATOM      6  C   UNL d   1      52.013  32.015  52.591  0.00  0.00     0.001 C 
ATOM      7  C   UNL d   1      51.577  33.728  52.773  0.00  0.00     0.007 C 
ENDROOT
BRANCH   1   8
ATOM      8  N   UNL d   1      54.074  33.247  54.206  0.00  0.00    -0.236 N 
ATOM      9  C   UNL d   1      54.863  33.293  53.981  0.00  0.00     0.268 A 
ATOM     10  C   UNL d   1      55.315  33.376  54.673  0.00  0.00     0.066 A 
ATOM     11  O   UNL d   1      55.161  33.264  53.200  0.00  0.00    -0.267 OA
ATOM     12  C   UNL d   1      54.796  33.378  55.306  0.00  0.00     0.066 A 
ATOM     13  C   UNL d   1      54.037  33.299  55.023  0.00  0.00     0.268 A 
ATOM     14  O   UNL d   1      53.361  33.277  55.473  0.00  0.00    -0.267 OA
ENDBRANCH   1   8
BRANCH   2  15
ATOM     15  C   UNL d   1      53.554  31.722  53.477  0.00  0.00     0.302 C 
ATOM     16  O   UNL d   1      54.245  31.594  53.025  0.00  0.00    -0.259 OA
BRANCH  15  17
ATOM     17  O   UNL d   1      53.274  31.147  53.975  0.00  0.00    -0.271 OA
BRANCH  17  18
ATOM     18  C   UNL d   1      53.470  30.349  53.835  0.00  0.00     0.126 C 
ATOM     19  C   UNL d   1      53.268  29.769  54.389  0.00  0.00     0.029 C 
ENDBRANCH  17  18
ENDBRANCH  15  17
ENDBRANCH   2  15
TORSDOF 4
ENDMDL
MODEL 4
REMARK VINA RESULT:      -7.1      1.730      3.089
REMARK  4 active torsions:
REMARK  status: ('A' for Active; 'I' for Inactive)
REMARK    1  A    between atoms: N_2  and  C_1 
REMARK    2  A    between atoms: C_9  and  C_3 
REMARK    3  A    between atoms: O_15  and  C_9 
REMARK    4  A    between atoms: C_18  and  O_15 
ROOT
ATOM      1  C   UNL d   1      52.112  33.204  52.952  0.00  0.00     0.105 A 
ATOM      2  C   UNL d   1      52.787  33.551  53.277  0.00  0.00     0.086 A 
ATOM      3  S   UNL d   1      52.254  32.396  52.917  0.00  0.00    -0.069 SA
ATOM      4  C   UNL d   1      53.332  32.959  53.437  0.00  0.00     0.013 A 
ATOM      5  C   UNL d   1      53.006  32.245  53.216  0.00  0.00     0.031 A 
ATOM      6  C   UNL d   1      54.083  33.056  53.765  0.00  0.00     0.001 C 
ATOM      7  C   UNL d   1      53.363  31.504  53.280  0.00  0.00     0.007 C 
ENDROOT
BRANCH   1   8
ATOM      8  N   UNL d   1      51.445  33.632  52.722  0.00  0.00    -0.236 N 
ATOM      9  C   UNL d   1      51.299  34.077  52.046  0.00  0.00     0.268 A 
ATOM     10  C   UNL d   1      50.531  34.384  52.112  0.00  0.00     0.066 A 
ATOM     11  O   UNL d   1      51.825  34.200  51.407  0.00  0.00    -0.267 OA
ATOM     12  C   UNL d   1      50.222  34.122  52.823  0.00  0.00     0.066 A 
ATOM     13  C   UNL d   1      50.780  33.663  53.197  0.00  0.00     0.268 A 
ATOM     14  O   UNL d   1      50.690  33.298  53.918  0.00  0.00    -0.267 OA
ENDBRANCH   1   8
BRANCH   2  15
ATOM     15  C   UNL d   1      52.895  34.366  53.418  0.00  0.00     0.302 C 
ATOM     16  O   UNL d   1      53.108  34.870  52.788  0.00  0.00    -0.259 OA
BRANCH  15  17
ATOM     17  O   UNL d   1      52.793  34.660  54.167  0.00  0.00    -0.271 OA
BRANCH  17  18
ATOM     18  C   UNL d   1      53.125  35.398  54.369  0.00  0.00     0.126 C 
ATOM     19  C   UNL d   1      52.871  35.794  55.049  0.00  0.00     0.029 C 
ENDBRANCH  17  18
ENDBRANCH  15  17
ENDBRANCH   2  15
TORSDOF 4
ENDMDL
MODEL 5
REMARK VINA RESULT:      -6.8      1.147      2.967
REMARK  4 active torsions:
REMARK  status: ('A' for Active; 'I' for Inactive)
REMARK    1  A    between atoms: N_2  and  C_1 
REMARK    2  A    between atoms: C_9  and  C_3 
REMARK    3  A    between atoms: O_15  and  C_9 
REMARK    4  A    between atoms: C_18  and  O_15 
ROOT
ATOM      1  C   UNL d   1      52.699  32.251  53.454  0.00  0.00     0.105 A 
ATOM      2  C   UNL d   1      53.141  32.947  53.493  0.00  0.00     0.086 A 
ATOM      3  S   UNL d   1      51.920  32.472  53.320  0.00  0.00    -0.069 SA
ATOM      4  C   UNL d   1      52.635  33.582  53.384  0.00  0.00     0.013 A 
ATOM      5  C   UNL d   1      51.881  33.293  53.276  0.00  0.00     0.031 A 
ATOM      6  C   UNL d   1      52.842  34.381  53.380  0.00  0.00     0.001 C 
ATOM      7  C   UNL d   1      51.200  33.741  53.147  0.00  0.00     0.007 C 
ENDROOT
BRANCH   1   8
ATOM      8  N   UNL d   1      53.024  31.497  53.541  0.00  0.00    -0.236 N 
ATOM      9  C   UNL d   1      53.264  31.089  54.213  0.00  0.00     0.268 A 
ATOM     10  C   UNL d   1      53.549  30.350  53.966  0.00  0.00     0.066 A 
ATOM     11  O   UNL d   1      53.229  31.364  55.002  0.00  0.00    -0.267 OA
ATOM     12  C   UNL d   1      53.479  30.319  53.151  0.00  0.00     0.066 A 
ATOM     13  C   UNL d   1      53.158  31.019  52.889  0.00  0.00     0.268 A 
ATOM     14  O   UNL d   1      52.999  31.211  52.116  0.00  0.00    -0.267 OA
ENDBRANCH   1   8
BRANCH   2  15
ATOM     15  C   UNL d   1      53.964  32.992  53.623  0.00  0.00     0.302 C 
ATOM     16  O   UNL d   1      54.491  32.826  52.997  0.00  0.00    -0.259 OA
BRANCH  15  17
ATOM     17  O   UNL d   1      54.244  33.199  54.355  0.00  0.00    -0.271 OA
BRANCH  17  18
ATOM     18  C   UNL d   1      55.016  33.504  54.431  0.00  0.00     0.126 C 
ATOM     19  C   UNL d   1      55.293  33.753  55.170  0.00  0.00     0.029 C 
ENDBRANCH  17  18
ENDBRANCH  15  17
ENDBRANCH   2  15
TORSDOF 4
ENDMDL
MODEL 6
REMARK VINA RESULT:      -6.1      1.028      2.476
REMARK  4 active torsions:
REMARK  status: ('A' for Active; 'I' for Inactive)
REMARK    1  A    between atoms: N_2  and  C_1 
REMARK    2  A    between atoms: C_9  and  C_3 
REMARK    3  A    between atoms: O_15  and  C_9 
REMARK    4  A    between atoms: C_18  and  O_15 
ROOT
ATOM      1  C   UNL d   1      53.860  32.646  54.163  0.00  0.00     0.105 A 
ATOM      2  C   UNL d   1      53.371  33.308  54.222  0.00  0.00     0.086 A 
ATOM      3  S   UNL d   1      54.572  32.844  54.522  0.00  0.00    -0.069 SA
ATOM      4  C   UNL d   1      53.782  33.901  54.613  0.00  0.00     0.013 A 
ATOM      5  C   UNL d   1      54.524  33.617  54.799  0.00  0.00     0.031 A 
ATOM      6  C   UNL d   1      53.505  34.657  54.792  0.00  0.00     0.001 C 
ATOM      7  C   UNL d   1      55.119  34.030  55.194  0.00  0.00     0.007 C 
ENDROOT
BRANCH   1   8
ATOM      8  N   UNL d   1      53.632  31.940  53.801  0.00  0.00    -0.236 N 
ATOM      9  C   UNL d   1      53.600  31.728  53.008  0.00  0.00     0.268 A 
ATOM     10  C   UNL d   1      53.327  30.945  52.970  0.00  0.00     0.066 A 
ATOM     11  O   UNL d   1      53.805  32.210  52.355  0.00  0.00    -0.267 OA
ATOM     12  C   UNL d   1      53.196  30.694  53.738  0.00  0.00     0.066 A 
ATOM     13  C   UNL d   1      53.382  31.300  54.247  0.00  0.00     0.268 A 
ATOM     14  O   UNL d   1      53.329  31.275  55.058  0.00  0.00    -0.267 OA
ENDBRANCH   1   8
BRANCH   2  15
ATOM     15  C   UNL d   1      52.591  33.364  53.932  0.00  0.00     0.302 C 
ATOM     16  O   UNL d   1      51.967  33.004  54.354  0.00  0.00    -0.259 OA
BRANCH  15  17
ATOM     17  O   UNL d   1      52.447  33.766  53.243  0.00  0.00    -0.271 OA
BRANCH  17  18
ATOM     18  C   UNL d   1      51.679  34.051  53.085  0.00  0.00     0.126 C 
ATOM     19  C   UNL d   1      51.486  34.324  52.329  0.00  0.00     0.029 C 
ENDBRANCH  17  18
ENDBRANCH  15  17
ENDBRANCH   2  15
TORSDOF 4
ENDMDL
