MODEL 1
REMARK VINA RESULT:      -8.2      0.000      0.000
REMARK  3 active torsions:
REMARK  status: ('A' for Active; 'I' for Inactive)
REMARK    1  A    between atoms: N_2  and  S_1 
REMARK    2  A    between atoms: C_5  and  S_1 
REMARK    3  A    between atoms: C_4  and  C_3 
ROOT
ATOM      1  C   UNL d   1     -47.126  13.100  22.760  0.00  0.00     0.083 A 
ATOM      2  C   UNL d   1     -48.380  12.805  22.130  0.00  0.00     0.104 A 
ATOM      3  C   UNL d   1     -47.726  13.311  22.241  0.00  0.00     0.018 A 
ATOM      4  C   UNL d   1     -47.168  12.379  23.179  0.00  0.00     0.062 A 
ATOM      5  C   UNL d   1     -48.417  12.094  22.546  0.00  0.00     0.014 A 
ATOM      6  C   UNL d   1     -47.817  11.883  23.066  0.00  0.00     0.012 A 
ATOM      7 CL   UNL d   1     -46.568  12.168  23.698  0.00  0.00    -0.082 Cl
ENDROOT
BRANCH   2   8
ATOM      8  S   UNL d   1     -48.984  13.017  21.608  0.00  0.00     0.272 S 
ATOM      9  O   UNL d   1     -48.538  12.747  20.982  0.00  0.00    -0.200 OA
ATOM     10  O   UNL d   1     -49.600  13.234  21.075  0.00  0.00    -0.200 OA
BRANCH   8  11
ATOM     11  N   UNL d   1     -49.452  13.301  22.264  0.00  0.00    -0.225 N 
ATOM     12  C   UNL d   1     -49.390  14.113  22.503  0.00  0.00     0.116 A 
ATOM     13  C   UNL d   1     -49.839  14.385  23.133  0.00  0.00     0.118 A 
ATOM     14  C   UNL d   1     -49.785  15.178  23.375  0.00  0.00     0.028 C 
ATOM     15  O   UNL d   1     -50.361  13.851  23.538  0.00  0.00    -0.304 OA
ATOM     16  C   UNL d   1     -50.414  13.059  23.296  0.00  0.00     0.118 A 
ATOM     17  C   UNL d   1     -49.964  12.787  22.666  0.00  0.00     0.116 A 
ATOM     18  C   UNL d   1     -50.925  12.550  23.698  0.00  0.00     0.028 C 
ENDBRANCH   8  11
ENDBRANCH   2   8
BRANCH   1  19
ATOM     19  C   UNL d   1     -46.465  13.615  22.869  0.00  0.00     0.420 C 
ATOM     20  F   UNL d   1     -45.808  14.123  22.968  0.00  0.00    -0.166 F 
ATOM     21  F   UNL d   1     -46.719  13.812  23.635  0.00  0.00    -0.166 F 
ATOM     22  F   UNL d   1     -46.198  13.426  22.101  0.00  0.00    -0.166 F 
ENDBRANCH   1  19
TORSDOF 3
ENDMDL
MODEL 2
REMARK VINA RESULT:      -8.2      1.271      1.508
REMARK  3 active torsions:
REMARK  status: ('A' for Active; 'I' for Inactive)
REMARK    1  A    between atoms: N_2  and  S_1 
REMARK    2  A    between atoms: C_5  and  S_1 
REMARK    3  A    between atoms: C_4  and  C_3 
ROOT
ATOM      1  C   UNL d   1     -47.442  13.187  22.860  0.00  0.00     0.083 A 
ATOM      2  C   UNL d   1     -48.730  12.553  22.866  0.00  0.00     0.104 A 
ATOM      3  C   UNL d   1     -48.114  12.949  23.267  0.00  0.00     0.018 A 
ATOM      4  C   UNL d   1     -47.372  13.034  22.042  0.00  0.00     0.062 A 
ATOM      5  C   UNL d   1     -48.655  12.405  22.057  0.00  0.00     0.014 A 
ATOM      6  C   UNL d   1     -47.983  12.643  21.650  0.00  0.00     0.012 A 
ATOM      7 CL   UNL d   1     -46.700  13.272  21.635  0.00  0.00    -0.082 Cl
ENDROOT
BRANCH   2   8
ATOM      8  S   UNL d   1     -49.406  12.314  23.276  0.00  0.00     0.272 S 
ATOM      9  O   UNL d   1     -49.014  11.646  23.531  0.00  0.00    -0.200 OA
ATOM     10  O   UNL d   1     -50.095  12.070  23.694  0.00  0.00    -0.200 OA
BRANCH   8  11
ATOM     11  N   UNL d   1     -49.816  13.014  23.008  0.00  0.00    -0.225 N 
ATOM     12  C   UNL d   1     -49.811  13.712  23.490  0.00  0.00     0.116 A 
ATOM     13  C   UNL d   1     -50.206  14.385  23.233  0.00  0.00     0.118 A 
ATOM     14  C   UNL d   1     -50.207  15.073  23.698  0.00  0.00     0.028 C 
ATOM     15  O   UNL d   1     -50.612  14.373  22.488  0.00  0.00    -0.304 OA
ATOM     16  C   UNL d   1     -50.611  13.685  22.024  0.00  0.00     0.118 A 
ATOM     17  C   UNL d   1     -50.216  13.012  22.281  0.00  0.00     0.116 A 
ATOM     18  C   UNL d   1     -51.010  13.686  21.302  0.00  0.00     0.028 C 
ENDBRANCH   8  11
ENDBRANCH   2   8
BRANCH   1  19
ATOM     19  C   UNL d   1     -46.823  13.587  23.271  0.00  0.00     0.420 C 
ATOM     20  F   UNL d   1     -46.205  13.975  23.683  0.00  0.00    -0.166 F 
ATOM     21  F   UNL d   1     -47.071  14.322  22.973  0.00  0.00    -0.166 F 
ATOM     22  F   UNL d   1     -46.562  12.856  23.578  0.00  0.00    -0.166 F 
ENDBRANCH   1  19
TORSDOF 3
ENDMDL
MODEL 3
REMARK VINA RESULT:      -8.0      1.656      2.289
REMARK  3 active torsions:
REMARK  status: ('A' for Active; 'I' for Inactive)
REMARK    1  A    between atoms: N_2  and  S_1 
REMARK    2  A    between atoms: C_5  and  S_1 
REMARK    3  A    between atoms: C_4  and  C_3 
ROOT
ATOM      1  C   UNL d   1     -49.030  11.914  22.679  0.00  0.00     0.083 A 
ATOM      2  C   UNL d   1     -49.766  12.955  22.019  0.00  0.00     0.104 A 
ATOM      3  C   UNL d   1     -49.062  12.518  22.124  0.00  0.00     0.018 A 
ATOM      4  C   UNL d   1     -49.701  11.734  23.141  0.00  0.00     0.062 A 
ATOM      5  C   UNL d   1     -50.427  12.772  22.479  0.00  0.00     0.014 A 
ATOM      6  C   UNL d   1     -50.395  12.168  23.034  0.00  0.00     0.012 A 
ATOM      7 CL   UNL d   1     -49.669  11.130  23.696  0.00  0.00    -0.082 Cl
ENDROOT
BRANCH   2   8
ATOM      8  S   UNL d   1     -49.798  13.562  21.461  0.00  0.00     0.272 S 
ATOM      9  O   UNL d   1     -50.049  13.030  20.897  0.00  0.00    -0.200 OA
ATOM     10  O   UNL d   1     -49.831  14.182  20.891  0.00  0.00    -0.200 OA
BRANCH   8  11
ATOM     11  N   UNL d   1     -49.535  14.120  22.052  0.00  0.00    -0.225 N 
ATOM     12  C   UNL d   1     -50.097  14.451  22.594  0.00  0.00     0.116 A 
ATOM     13  C   UNL d   1     -49.844  14.987  23.163  0.00  0.00     0.118 A 
ATOM     14  C   UNL d   1     -50.386  15.317  23.698  0.00  0.00     0.028 C 
ATOM     15  O   UNL d   1     -49.024  15.202  23.200  0.00  0.00    -0.304 OA
ATOM     16  C   UNL d   1     -48.483  14.872  22.665  0.00  0.00     0.118 A 
ATOM     17  C   UNL d   1     -48.736  14.336  22.097  0.00  0.00     0.116 A 
ATOM     18  C   UNL d   1     -47.688  15.089  22.712  0.00  0.00     0.028 C 
ENDBRANCH   8  11
ENDBRANCH   2   8
BRANCH   1  19
ATOM     19  C   UNL d   1     -48.316  11.476  22.781  0.00  0.00     0.420 C 
ATOM     20  F   UNL d   1     -47.609  11.037  22.874  0.00  0.00    -0.166 F 
ATOM     21  F   UNL d   1     -48.158  11.862  23.500  0.00  0.00    -0.166 F 
ATOM     22  F   UNL d   1     -48.461  11.081  22.060  0.00  0.00    -0.166 F 
ENDBRANCH   1  19
TORSDOF 3
ENDMDL
MODEL 4
REMARK VINA RESULT:      -7.7      1.197      1.853
REMARK  3 active torsions:
REMARK  status: ('A' for Active; 'I' for Inactive)
REMARK    1  A    between atoms: N_2  and  S_1 
REMARK    2  A    between atoms: C_5  and  S_1 
REMARK    3  A    between atoms: C_4  and  C_3 
ROOT
ATOM      1  C   UNL d   1     -46.536  13.181  22.672  0.00  0.00     0.083 A 
ATOM      2  C   UNL d   1     -47.858  13.560  23.081  0.00  0.00     0.104 A 
ATOM      3  C   UNL d   1     -47.186  13.678  22.601  0.00  0.00     0.018 A 
ATOM      4  C   UNL d   1     -46.545  12.556  23.225  0.00  0.00     0.062 A 
ATOM      5  C   UNL d   1     -47.862  12.940  23.626  0.00  0.00     0.014 A 
ATOM      6  C   UNL d   1     -47.212  12.443  23.697  0.00  0.00     0.012 A 
ATOM      7 CL   UNL d   1     -45.896  12.059  23.295  0.00  0.00    -0.082 Cl
ENDROOT
BRANCH   2   8
ATOM      8  S   UNL d   1     -48.511  14.060  23.010  0.00  0.00     0.272 S 
ATOM      9  O   UNL d   1     -48.074  14.676  23.316  0.00  0.00    -0.200 OA
ATOM     10  O   UNL d   1     -49.178  14.570  22.937  0.00  0.00    -0.200 OA
BRANCH   8  11
ATOM     11  N   UNL d   1     -48.970  13.415  22.689  0.00  0.00    -0.225 N 
ATOM     12  C   UNL d   1     -49.419  12.920  23.211  0.00  0.00     0.116 A 
ATOM     13  C   UNL d   1     -49.860  12.300  22.903  0.00  0.00     0.118 A 
ATOM     14  C   UNL d   1     -50.303  11.809  23.406  0.00  0.00     0.028 C 
ATOM     15  O   UNL d   1     -49.860  12.162  22.065  0.00  0.00    -0.304 OA
ATOM     16  C   UNL d   1     -49.418  12.652  21.563  0.00  0.00     0.118 A 
ATOM     17  C   UNL d   1     -48.977  13.272  21.872  0.00  0.00     0.116 A 
ATOM     18  C   UNL d   1     -49.426  12.507  20.751  0.00  0.00     0.028 C 
ENDBRANCH   8  11
ENDBRANCH   2   8
BRANCH   1  19
ATOM     19  C   UNL d   1     -45.858  13.305  22.183  0.00  0.00     0.420 C 
ATOM     20  F   UNL d   1     -45.183  13.434  21.706  0.00  0.00    -0.166 F 
ATOM     21  F   UNL d   1     -46.135  12.756  21.625  0.00  0.00    -0.166 F 
ATOM     22  F   UNL d   1     -45.568  13.859  22.736  0.00  0.00    -0.166 F 
ENDBRANCH   1  19
TORSDOF 3
ENDMDL
MODEL 5
REMARK VINA RESULT:      -7.4      2.300      3.538
REMARK  3 active torsions:
REMARK  status: ('A' for Active; 'I' for Inactive)
REMARK    1  A    between atoms: N_2  and  S_1 
REMARK    2  A    between atoms: C_5  and  S_1 
REMARK    3  A    between atoms: C_4  and  C_3 
ROOT
ATOM      1  C   UNL d   1     -49.044  12.618  22.370  0.00  0.00     0.083 A 
ATOM      2  C   UNL d   1     -47.913  13.493  22.492  0.00  0.00     0.104 A 
ATOM      3  C   UNL d   1     -48.533  13.056  22.841  0.00  0.00     0.018 A 
ATOM      4  C   UNL d   1     -48.946  12.609  21.541  0.00  0.00     0.062 A 
ATOM      5  C   UNL d   1     -47.820  13.480  21.672  0.00  0.00     0.014 A 
ATOM      6  C   UNL d   1     -48.331  13.043  21.202  0.00  0.00     0.012 A 
ATOM      7 CL   UNL d   1     -49.456  12.171  21.071  0.00  0.00    -0.082 Cl
ENDROOT
BRANCH   2   8
ATOM      8  S   UNL d   1     -47.399  13.933  22.966  0.00  0.00     0.272 S 
ATOM      9  O   UNL d   1     -47.976  14.501  23.064  0.00  0.00    -0.200 OA
ATOM     10  O   UNL d   1     -46.875  14.383  23.449  0.00  0.00    -0.200 OA
BRANCH   8  11
ATOM     11  N   UNL d   1     -46.795  13.339  22.862  0.00  0.00    -0.225 N 
ATOM     12  C   UNL d   1     -46.192  13.452  22.276  0.00  0.00     0.116 A 
ATOM     13  C   UNL d   1     -45.611  12.880  22.176  0.00  0.00     0.118 A 
ATOM     14  C   UNL d   1     -45.017  12.982  21.605  0.00  0.00     0.028 C 
ATOM     15  O   UNL d   1     -45.621  12.184  22.662  0.00  0.00    -0.304 OA
ATOM     16  C   UNL d   1     -46.214  12.083  23.232  0.00  0.00     0.118 A 
ATOM     17  C   UNL d   1     -46.795  12.655  23.332  0.00  0.00     0.116 A 
ATOM     18  C   UNL d   1     -46.213  11.402  23.698  0.00  0.00     0.028 C 
ENDBRANCH   8  11
ENDBRANCH   2   8
BRANCH   1  19
ATOM     19  C   UNL d   1     -49.669  12.178  22.728  0.00  0.00     0.420 C 
ATOM     20  F   UNL d   1     -50.285  11.733  23.080  0.00  0.00    -0.166 F 
ATOM     21  F   UNL d   1     -50.104  12.872  22.870  0.00  0.00    -0.166 F 
ATOM     22  F   UNL d   1     -49.244  11.473  22.590  0.00  0.00    -0.166 F 
ENDBRANCH   1  19
TORSDOF 3
ENDMDL
MODEL 6
REMARK VINA RESULT:      -6.6      8.644      9.912
REMARK  3 active torsions:
REMARK  status: ('A' for Active; 'I' for Inactive)
REMARK    1  A    between atoms: N_2  and  S_1 
REMARK    2  A    between atoms: C_5  and  S_1 
REMARK    3  A    between atoms: C_4  and  C_3 
ROOT
ATOM      1  C   UNL d   1     -40.269  14.995  19.992  0.00  0.00     0.083 A 
ATOM      2  C   UNL d   1     -39.694  14.413  18.813  0.00  0.00     0.104 A 
ATOM      3  C   UNL d   1     -40.333  14.496  19.344  0.00  0.00     0.018 A 
ATOM      4  C   UNL d   1     -39.564  15.422  20.124  0.00  0.00     0.062 A 
ATOM      5  C   UNL d   1     -38.999  14.838  18.948  0.00  0.00     0.014 A 
ATOM      6  C   UNL d   1     -38.935  15.337  19.597  0.00  0.00     0.012 A 
ATOM      7 CL   UNL d   1     -39.500  15.922  20.772  0.00  0.00    -0.082 Cl
ENDROOT
BRANCH   2   8
ATOM      8  S   UNL d   1     -39.758  13.911  18.161  0.00  0.00     0.272 S 
ATOM      9  O   UNL d   1     -39.697  13.264  18.653  0.00  0.00    -0.200 OA
ATOM     10  O   UNL d   1     -39.824  13.398  17.495  0.00  0.00    -0.200 OA
BRANCH   8  11
ATOM     11  N   UNL d   1     -39.822  14.588  17.645  0.00  0.00    -0.225 N 
ATOM     12  C   UNL d   1     -40.587  14.912  17.472  0.00  0.00     0.116 A 
ATOM     13  C   UNL d   1     -40.649  15.563  16.976  0.00  0.00     0.118 A 
ATOM     14  C   UNL d   1     -41.393  15.887  16.801  0.00  0.00     0.028 C 
ATOM     15  O   UNL d   1     -39.947  15.905  16.644  0.00  0.00    -0.304 OA
ATOM     16  C   UNL d   1     -39.204  15.581  16.819  0.00  0.00     0.118 A 
ATOM     17  C   UNL d   1     -39.142  14.929  17.315  0.00  0.00     0.116 A 
ATOM     18  C   UNL d   1     -38.528  15.922  16.490  0.00  0.00     0.028 C 
ENDBRANCH   8  11
ENDBRANCH   2   8
BRANCH   1  19
ATOM     19  C   UNL d   1     -40.919  15.075  20.525  0.00  0.00     0.420 C 
ATOM     20  F   UNL d   1     -41.566  15.162  21.049  0.00  0.00    -0.166 F 
ATOM     21  F   UNL d   1     -40.700  14.383  20.929  0.00  0.00    -0.166 F 
ATOM     22  F   UNL d   1     -41.152  15.772  20.129  0.00  0.00    -0.166 F 
ENDBRANCH   1  19
TORSDOF 3
ENDMDL
MODEL 7
REMARK VINA RESULT:      -6.4      1.552      2.313
REMARK  3 active torsions:
REMARK  status: ('A' for Active; 'I' for Inactive)
REMARK    1  A    between atoms: N_2  and  S_1 
REMARK    2  A    between atoms: C_5  and  S_1 
REMARK    3  A    between atoms: C_4  and  C_3 
ROOT
ATOM      1  C   UNL d   1     -48.489  14.629  22.442  0.00  0.00     0.083 A 
ATOM      2  C   UNL d   1     -49.201  13.503  21.910  0.00  0.00     0.104 A 
ATOM      3  C   UNL d   1     -48.486  13.913  22.041  0.00  0.00     0.018 A 
ATOM      4  C   UNL d   1     -49.207  14.950  22.721  0.00  0.00     0.062 A 
ATOM      5  C   UNL d   1     -49.909  13.824  22.188  0.00  0.00     0.014 A 
ATOM      6  C   UNL d   1     -49.912  14.540  22.590  0.00  0.00     0.012 A 
ATOM      7 CL   UNL d   1     -49.211  15.666  23.123  0.00  0.00    -0.082 Cl
ENDROOT
BRANCH   2   8
ATOM      8  S   UNL d   1     -49.198  12.782  21.507  0.00  0.00     0.272 S 
ATOM      9  O   UNL d   1     -49.176  13.180  20.796  0.00  0.00    -0.200 OA
ATOM     10  O   UNL d   1     -49.195  12.047  21.095  0.00  0.00    -0.200 OA
BRANCH   8  11
ATOM     11  N   UNL d   1     -49.221  12.365  22.251  0.00  0.00    -0.225 N 
ATOM     12  C   UNL d   1     -48.496  12.119  22.617  0.00  0.00     0.116 A 
ATOM     13  C   UNL d   1     -48.518  11.718  23.333  0.00  0.00     0.118 A 
ATOM     14  C   UNL d   1     -47.814  11.473  23.698  0.00  0.00     0.028 C 
ATOM     15  O   UNL d   1     -49.266  11.554  23.698  0.00  0.00    -0.304 OA
ATOM     16  C   UNL d   1     -49.970  11.799  23.333  0.00  0.00     0.118 A 
ATOM     17  C   UNL d   1     -49.948  12.200  22.617  0.00  0.00     0.116 A 
ATOM     18  C   UNL d   1     -50.691  11.633  23.698  0.00  0.00     0.028 C 
ENDBRANCH   8  11
ENDBRANCH   2   8
BRANCH   1  19
ATOM     19  C   UNL d   1     -47.763  15.040  22.572  0.00  0.00     0.420 C 
ATOM     20  F   UNL d   1     -47.042  15.443  22.709  0.00  0.00    -0.166 F 
ATOM     21  F   UNL d   1     -47.811  15.403  21.826  0.00  0.00    -0.166 F 
ATOM     22  F   UNL d   1     -47.701  14.683  23.324  0.00  0.00    -0.166 F 
ENDBRANCH   1  19
TORSDOF 3
ENDMDL
