MODEL 1
REMARK VINA RESULT:      38.6      0.000      0.000
REMARK  1 active torsions:
REMARK  status: ('A' for Active; 'I' for Inactive)
REMARK    1  A    between atoms: C_10  and  N_2 
ROOT
ATOM      1  C   UNL d   1      59.299  49.671  50.193  0.00  0.00     0.759 A 
ATOM      2  N   UNL d   1      59.213  49.670  51.033  0.00  0.00    -0.103 N 
ATOM      3  N   UNL d   1      58.629  49.680  49.717  0.00  0.00    -0.038 N 
ATOM      4  C   UNL d   1      58.461  49.680  51.360  0.00  0.00     0.280 A 
ATOM      5  N   UNL d   1      59.972  49.663  49.709  0.00  0.00     0.066 NA
ATOM      6  C   UNL d   1      57.788  49.689  50.888  0.00  0.00     0.075 A 
ATOM      7  N   UNL d   1      58.896  49.678  48.914  0.00  0.00    -0.025 NA
ATOM      8  N   UNL d   1      59.706  49.667  48.921  0.00  0.00    -0.007 NA
ATOM      9  C   UNL d   1      57.874  49.689  50.047  0.00  0.00     0.107 A 
ATOM     10  O   UNL d   1      58.376  49.680  52.196  0.00  0.00    -0.266 OA
ATOM     11  C   UNL d   1      57.036  49.698  51.214  0.00  0.00     0.006 A 
ATOM     12  C   UNL d   1      57.204  49.699  49.572  0.00  0.00     0.020 A 
ATOM     13  C   UNL d   1      56.362  49.708  50.742  0.00  0.00     0.000 A 
ATOM     14  C   UNL d   1      56.447  49.708  49.901  0.00  0.00     0.002 A 
ENDROOT
BRANCH   2  15
ATOM     15  C   UNL d   1      59.880  49.661  51.505  0.00  0.00     0.084 A 
ATOM     16  C   UNL d   1      59.825  49.644  52.326  0.00  0.00     0.017 A 
ATOM     17  C   UNL d   1      59.156  49.637  52.654  0.00  0.00     0.002 C 
ATOM     18  C   UNL d   1      60.493  49.634  52.801  0.00  0.00     0.002 A 
ATOM     19  C   UNL d   1      61.253  49.643  52.441  0.00  0.00     0.000 A 
ATOM     20  C   UNL d   1      61.332  49.660  51.613  0.00  0.00     0.002 A 
ATOM     21  C   UNL d   1      60.640  49.669  51.145  0.00  0.00     0.018 A 
ENDBRANCH   2  15
TORSDOF 1
ENDMDL
MODEL 2
REMARK VINA RESULT:      39.4      1.201      3.547
REMARK  1 active torsions:
REMARK  status: ('A' for Active; 'I' for Inactive)
REMARK    1  A    between atoms: C_10  and  N_2 
ROOT
ATOM      1  C   UNL d   1      59.091  49.687  51.667  0.00  0.00     0.759 A 
ATOM      2  N   UNL d   1      58.724  49.674  50.906  0.00  0.00    -0.103 N 
ATOM      3  N   UNL d   1      59.911  49.695  51.721  0.00  0.00    -0.038 N 
ATOM      4  C   UNL d   1      59.194  49.669  50.234  0.00  0.00     0.280 A 
ATOM      5  N   UNL d   1      58.771  49.694  52.431  0.00  0.00     0.066 NA
ATOM      6  C   UNL d   1      60.015  49.677  50.283  0.00  0.00     0.075 A 
ATOM      7  N   UNL d   1      60.104  49.707  52.545  0.00  0.00    -0.025 NA
ATOM      8  N   UNL d   1      59.411  49.707  52.963  0.00  0.00    -0.007 NA
ATOM      9  C   UNL d   1      60.382  49.690  51.044  0.00  0.00     0.107 A 
ATOM     10  O   UNL d   1      58.829  49.656  49.476  0.00  0.00    -0.266 OA
ATOM     11  C   UNL d   1      60.485  49.672  49.612  0.00  0.00     0.006 A 
ATOM     12  C   UNL d   1      61.202  49.698  51.099  0.00  0.00     0.020 A 
ATOM     13  C   UNL d   1      61.307  49.680  49.661  0.00  0.00     0.000 A 
ATOM     14  C   UNL d   1      61.673  49.693  50.422  0.00  0.00     0.002 A 
ENDROOT
BRANCH   2  15
ATOM     15  C   UNL d   1      57.909  49.666  50.853  0.00  0.00     0.084 A 
ATOM     16  C   UNL d   1      57.526  49.683  50.125  0.00  0.00     0.017 A 
ATOM     17  C   UNL d   1      57.923  49.706  49.495  0.00  0.00     0.002 C 
ATOM     18  C   UNL d   1      56.708  49.675  50.070  0.00  0.00     0.002 A 
ATOM     19  C   UNL d   1      56.249  49.649  50.774  0.00  0.00     0.000 A 
ATOM     20  C   UNL d   1      56.616  49.631  51.520  0.00  0.00     0.002 A 
ATOM     21  C   UNL d   1      57.450  49.640  51.557  0.00  0.00     0.018 A 
ENDBRANCH   2  15
TORSDOF 1
ENDMDL
