MODEL 1
REMARK VINA RESULT:      44.5      0.000      0.000
REMARK  2 active torsions:
REMARK  status: ('A' for Active; 'I' for Inactive)
REMARK    1  A    between atoms: S_2  and  N_1 
REMARK    2  A    between atoms: N_6  and  S_2 
ROOT
ATOM      1  N   UNL d   1     -51.439  26.299  33.597  0.00  0.00    -0.199 N 
ATOM      2  C   UNL d   1     -51.616  25.499  33.546  0.00  0.00     0.095 A 
ATOM      3  C   UNL d   1     -52.150  26.724  33.470  0.00  0.00     0.194 A 
ATOM      4  N   UNL d   1     -52.752  26.170  33.344  0.00  0.00    -0.223 NA
ATOM      5  C   UNL d   1     -52.423  25.418  33.390  0.00  0.00     0.100 A 
ATOM      6  C   UNL d   1     -51.138  24.834  33.623  0.00  0.00     0.020 A 
ATOM      7  C   UNL d   1     -52.747  24.664  33.312  0.00  0.00     0.021 A 
ATOM      8  C   UNL d   1     -51.462  24.080  33.545  0.00  0.00     0.002 A 
ATOM      9  C   UNL d   1     -52.271  23.994  33.389  0.00  0.00     0.002 A 
ATOM     10  C   UNL d   1     -50.982  23.412  33.622  0.00  0.00     0.000 C 
ATOM     11  C   UNL d   1     -52.598  23.238  33.310  0.00  0.00     0.000 C 
ENDROOT
BRANCH   1  12
ATOM     12  S   UNL d   1     -50.707  26.625  33.744  0.00  0.00     0.339 S 
ATOM     13  O   UNL d   1     -50.982  27.366  33.517  0.00  0.00    -0.181 OA
ATOM     14  O   UNL d   1     -50.428  25.886  33.972  0.00  0.00    -0.181 OA
BRANCH  12  15
ATOM     15  N   UNL d   1     -49.963  26.943  33.895  0.00  0.00    -0.212 N 
ATOM     16  C   UNL d   1     -49.792  27.252  34.641  0.00  0.00     0.120 A 
ATOM     17  C   UNL d   1     -49.052  27.569  34.792  0.00  0.00     0.142 A 
ATOM     18  O   UNL d   1     -48.480  27.582  34.211  0.00  0.00    -0.300 OA
ATOM     19  C   UNL d   1     -48.643  27.276  33.463  0.00  0.00     0.142 A 
ATOM     20  C   UNL d   1     -49.392  26.953  33.306  0.00  0.00     0.120 A 
ENDBRANCH  12  15
ENDBRANCH   1  12
TORSDOF 2
ENDMDL
