MODEL 1
REMARK VINA RESULT:       0.4      0.000      0.000
REMARK  5 active torsions:
REMARK  status: ('A' for Active; 'I' for Inactive)
REMARK    1  A    between atoms: N_6  and  C_1 
REMARK    2  A    between atoms: C_10  and  C_2 
REMARK       I    between atoms: C_9  and  N_6 
REMARK    3  A    between atoms: C_14  and  C_9 
REMARK    4  A    between atoms: C_13  and  C_15 
REMARK    5  A    between atoms: C_19  and  C_13 
ROOT
ATOM      1  N   UNL d   1     -42.264-122.890 -51.107  0.00  0.00    -0.201 NA
ATOM      2  C   UNL d   1     -41.674-123.303 -51.509  0.00  0.00     0.280 C 
ATOM      3  O   UNL d   1     -41.123-123.750 -51.095  0.00  0.00    -0.265 OA
ENDROOT
BRANCH   1   4
ATOM      4  C   UNL d   1     -42.304-122.923 -50.281  0.00  0.00     0.118 A 
ATOM      5  C   UNL d   1     -42.914-122.629 -49.809  0.00  0.00     0.083 A 
ATOM      6  C   UNL d   1     -42.720-122.785 -49.027  0.00  0.00     0.008 A 
ATOM      7  C   UNL d   1     -43.122-122.617 -48.323  0.00  0.00    -0.004 A 
ATOM      8  C   UNL d   1     -42.001-123.169 -49.008  0.00  0.00     0.028 A 
ATOM      9  C   UNL d   1     -42.789-122.843 -47.601  0.00  0.00     0.099 A 
ATOM     10  C   UNL d   1     -43.518-122.453 -47.620  0.00  0.00     0.029 C 
ATOM     11  C   UNL d   1     -42.462-123.065 -46.877  0.00  0.00     0.029 C 
ATOM     12  N   UNL d   1     -42.059-123.233 -47.581  0.00  0.00    -0.294 NA
ATOM     13  C   UNL d   1     -41.664-123.397 -48.284  0.00  0.00     0.104 A 
ATOM     14  C   UNL d   1     -41.180-123.695 -47.682  0.00  0.00     0.029 C 
ATOM     15  C   UNL d   1     -41.123-123.647 -48.854  0.00  0.00     0.029 C 
ATOM     16  S   UNL d   1     -41.735-123.259 -49.786  0.00  0.00    -0.070 SA
BRANCH   5  17
ATOM     17  C   UNL d   1     -43.586-122.252 -50.085  0.00  0.00     0.299 C 
ATOM     18  O   UNL d   1     -44.311-122.651 -50.054  0.00  0.00    -0.264 OA
ATOM     19  N   UNL d   1     -43.545-121.486 -50.392  0.00  0.00    -0.102 N 
ENDBRANCH   5  17
ENDBRANCH   1   4
BRANCH   2  20
ATOM     20  C   UNL d   1     -41.634-123.270 -52.323  0.00  0.00     0.058 A 
ATOM     21  C   UNL d   1     -41.192-122.679 -52.692  0.00  0.00     0.005 A 
ATOM     22  C   UNL d   1     -41.152-122.646 -53.518  0.00  0.00     0.003 A 
ATOM     23  C   UNL d   1     -41.554-123.203 -53.974  0.00  0.00     0.039 A 
ATOM     24  C   UNL d   1     -41.989-123.784 -53.605  0.00  0.00     0.003 A 
ATOM     25  C   UNL d   1     -42.030-123.818 -52.779  0.00  0.00     0.005 A 
BRANCH  23  26
ATOM     26  C   UNL d   1     -41.512-123.166 -54.796  0.00  0.00     0.196 C 
ATOM     27  O   UNL d   1     -41.155-123.771 -55.215  0.00  0.00    -0.287 OA
BRANCH  26  28
ATOM     28  C   UNL d   1     -41.829-122.521 -55.193  0.00  0.00     0.039 A 
ATOM     29  C   UNL d   1     -41.360-121.883 -55.396  0.00  0.00     0.003 A 
ATOM     30  C   UNL d   1     -41.677-121.237 -55.793  0.00  0.00     0.000 A 
ATOM     31  C   UNL d   1     -42.481-121.234 -55.989  0.00  0.00     0.000 A 
ATOM     32  C   UNL d   1     -42.959-121.876 -55.786  0.00  0.00     0.000 A 
ATOM     33  C   UNL d   1     -42.633-122.517 -55.389  0.00  0.00     0.003 A 
ENDBRANCH  26  28
ENDBRANCH  23  26
ENDBRANCH   2  20
TORSDOF 5
ENDMDL
