MODEL 1
REMARK VINA RESULT:      -9.5      0.000      0.000
REMARK  5 active torsions:
REMARK  status: ('A' for Active; 'I' for Inactive)
REMARK    1  A    between atoms: S_2  and  C_1 
REMARK    2  A    between atoms: N_3  and  C_1 
REMARK    3  A    between atoms: C_4  and  C_1 
REMARK    4  A    between atoms: C_6  and  S_2 
REMARK       I    between atoms: C_5  and  N_3 
REMARK    5  A    between atoms: C_9  and  C_5 
ROOT
ATOM      1  C   UNL d   1      52.036  33.789  53.326  0.00  0.00     0.193 C 
ENDROOT
BRANCH   1   2
ATOM      2  S   UNL d   1      51.337  34.011  52.948  0.00  0.00     0.228 S 
ATOM      3  O   UNL d   1      50.899  33.649  53.545  0.00  0.00    -0.216 OA
ATOM      4  O   UNL d   1      51.774  34.377  52.341  0.00  0.00    -0.216 OA
BRANCH   2   5
ATOM      5  C   UNL d   1      50.606  34.241  52.553  0.00  0.00     0.089 A 
ATOM      6  C   UNL d   1      50.006  34.602  52.987  0.00  0.00     0.011 A 
ATOM      7  C   UNL d   1      49.307  34.822  52.608  0.00  0.00     0.001 A 
ATOM      8  C   UNL d   1      49.209  34.682  51.796  0.00  0.00     0.000 A 
ATOM      9  C   UNL d   1      49.809  34.320  51.358  0.00  0.00     0.001 A 
ATOM     10  C   UNL d   1      48.497  34.908  51.421  0.00  0.00     0.000 C 
ATOM     11  C   UNL d   1      50.508  34.100  51.737  0.00  0.00     0.011 A 
ENDBRANCH   2   5
ENDBRANCH   1   2
BRANCH   1  12
ATOM     12  N   UNL d   1      52.209  33.012  53.442  0.00  0.00    -0.195 NA
ATOM     13  C   UNL d   1      52.847  32.663  53.053  0.00  0.00     0.280 C 
ATOM     14  O   UNL d   1      53.298  33.096  52.556  0.00  0.00    -0.265 OA
BRANCH  13  15
ATOM     15  C   UNL d   1      52.985  31.870  53.202  0.00  0.00     0.058 A 
ATOM     16  C   UNL d   1      53.571  31.677  53.723  0.00  0.00     0.005 A 
ATOM     17  C   UNL d   1      53.727  30.899  53.888  0.00  0.00     0.000 A 
ATOM     18  C   UNL d   1      53.298  30.292  53.534  0.00  0.00     0.000 A 
ATOM     19  C   UNL d   1      52.705  30.481  53.008  0.00  0.00     0.000 A 
ATOM     20  C   UNL d   1      53.450  29.463  53.698  0.00  0.00     0.000 C 
ATOM     21  C   UNL d   1      52.548  31.280  52.841  0.00  0.00     0.005 A 
ENDBRANCH  13  15
ENDBRANCH   1  12
BRANCH   1  22
ATOM     22  C   UNL d   1      52.568  34.351  53.593  0.00  0.00     0.144 C 
ATOM     23 CL   UNL d   1      52.630  34.405  54.358  0.00  0.00    -0.068 Cl
ATOM     24 CL   UNL d   1      53.022  34.841  53.031  0.00  0.00    -0.068 Cl
ENDBRANCH   1  22
TORSDOF 5
ENDMDL
MODEL 2
REMARK VINA RESULT:      -9.4      1.409      4.584
REMARK  5 active torsions:
REMARK  status: ('A' for Active; 'I' for Inactive)
REMARK    1  A    between atoms: S_2  and  C_1 
REMARK    2  A    between atoms: N_3  and  C_1 
REMARK    3  A    between atoms: C_4  and  C_1 
REMARK    4  A    between atoms: C_6  and  S_2 
REMARK       I    between atoms: C_5  and  N_3 
REMARK    5  A    between atoms: C_9  and  C_5 
ROOT
ATOM      1  C   UNL d   1      53.505  32.354  53.536  0.00  0.00     0.193 C 
ENDROOT
BRANCH   1   2
ATOM      2  S   UNL d   1      53.472  31.562  53.762  0.00  0.00     0.228 S 
ATOM      3  O   UNL d   1      53.668  31.774  54.534  0.00  0.00    -0.216 OA
ATOM      4  O   UNL d   1      53.273  31.341  52.985  0.00  0.00    -0.216 OA
BRANCH   2   5
ATOM      5  C   UNL d   1      53.437  30.734  54.000  0.00  0.00     0.089 A 
ATOM      6  C   UNL d   1      53.463  30.144  53.425  0.00  0.00     0.011 A 
ATOM      7  C   UNL d   1      53.430  29.352  53.653  0.00  0.00     0.001 A 
ATOM      8  C   UNL d   1      53.371  29.150  54.457  0.00  0.00     0.000 A 
ATOM      9  C   UNL d   1      53.345  29.739  55.036  0.00  0.00     0.001 A 
ATOM     10  C   UNL d   1      53.339  28.346  54.679  0.00  0.00     0.000 C 
ATOM     11  C   UNL d   1      53.378  30.531  54.807  0.00  0.00     0.011 A 
ENDBRANCH   2   5
ENDBRANCH   1   2
BRANCH   1  12
ATOM     12  N   UNL d   1      52.870  32.708  53.190  0.00  0.00    -0.195 NA
ATOM     13  C   UNL d   1      52.456  33.304  53.583  0.00  0.00     0.280 C 
ATOM     14  O   UNL d   1      52.685  33.535  54.312  0.00  0.00    -0.265 OA
BRANCH  13  15
ATOM     15  C   UNL d   1      51.818  33.633  53.190  0.00  0.00     0.058 A 
ATOM     16  C   UNL d   1      51.076  33.474  53.470  0.00  0.00     0.005 A 
ATOM     17  C   UNL d   1      50.428  33.788  53.099  0.00  0.00     0.000 A 
ATOM     18  C   UNL d   1      50.506  34.271  52.437  0.00  0.00     0.000 A 
ATOM     19  C   UNL d   1      51.251  34.435  52.150  0.00  0.00     0.000 A 
ATOM     20  C   UNL d   1      49.829  34.611  52.032  0.00  0.00     0.000 C 
ATOM     21  C   UNL d   1      51.913  34.111  52.534  0.00  0.00     0.005 A 
ENDBRANCH  13  15
ENDBRANCH   1  12
BRANCH   1  22
ATOM     22  C   UNL d   1      54.180  32.801  53.657  0.00  0.00     0.144 C 
ATOM     23 CL   UNL d   1      54.614  32.914  53.032  0.00  0.00    -0.068 Cl
ATOM     24 CL   UNL d   1      54.374  33.115  54.448  0.00  0.00    -0.068 Cl
ENDBRANCH   1  22
TORSDOF 5
ENDMDL
MODEL 3
REMARK VINA RESULT:      -8.7      0.674      4.340
REMARK  5 active torsions:
REMARK  status: ('A' for Active; 'I' for Inactive)
REMARK    1  A    between atoms: S_2  and  C_1 
REMARK    2  A    between atoms: N_3  and  C_1 
REMARK    3  A    between atoms: C_4  and  C_1 
REMARK    4  A    between atoms: C_6  and  S_2 
REMARK       I    between atoms: C_5  and  N_3 
REMARK    5  A    between atoms: C_9  and  C_5 
ROOT
ATOM      1  C   UNL d   1      52.263  33.765  52.980  0.00  0.00     0.193 C 
ENDROOT
BRANCH   1   2
ATOM      2  S   UNL d   1      52.527  32.993  53.099  0.00  0.00     0.228 S 
ATOM      3  O   UNL d   1      52.700  32.929  52.296  0.00  0.00    -0.216 OA
ATOM      4  O   UNL d   1      52.354  33.051  53.911  0.00  0.00    -0.216 OA
BRANCH   2   5
ATOM      5  C   UNL d   1      52.803  32.185  53.222  0.00  0.00     0.089 A 
ATOM      6  C   UNL d   1      53.488  32.052  53.662  0.00  0.00     0.011 A 
ATOM      7  C   UNL d   1      53.751  31.279  53.778  0.00  0.00     0.001 A 
ATOM      8  C   UNL d   1      53.330  30.640  53.456  0.00  0.00     0.000 A 
ATOM      9  C   UNL d   1      52.643  30.771  53.015  0.00  0.00     0.001 A 
ATOM     10  C   UNL d   1      53.604  29.861  53.579  0.00  0.00     0.000 C 
ATOM     11  C   UNL d   1      52.380  31.544  52.898  0.00  0.00     0.011 A 
ENDBRANCH   2   5
ENDBRANCH   1   2
BRANCH   1  12
ATOM     12  N   UNL d   1      51.593  33.908  52.558  0.00  0.00    -0.195 NA
ATOM     13  C   UNL d   1      50.953  34.294  52.906  0.00  0.00     0.280 C 
ATOM     14  O   UNL d   1      50.994  34.530  53.667  0.00  0.00    -0.265 OA
BRANCH  13  15
ATOM     15  C   UNL d   1      50.293  34.417  52.437  0.00  0.00     0.058 A 
ATOM     16  C   UNL d   1      49.642  34.755  52.776  0.00  0.00     0.005 A 
ATOM     17  C   UNL d   1      48.977  34.886  52.332  0.00  0.00     0.000 A 
ATOM     18  C   UNL d   1      48.947  34.682  51.536  0.00  0.00     0.000 A 
ATOM     19  C   UNL d   1      49.600  34.341  51.188  0.00  0.00     0.000 A 
ATOM     20  C   UNL d   1      48.249  34.816  51.052  0.00  0.00     0.000 C 
ATOM     21  C   UNL d   1      50.280  34.208  51.646  0.00  0.00     0.005 A 
ENDBRANCH  13  15
ENDBRANCH   1  12
BRANCH   1  22
ATOM     22  C   UNL d   1      52.673  34.404  53.287  0.00  0.00     0.144 C 
ATOM     23 CL   UNL d   1      53.044  34.834  52.768  0.00  0.00    -0.068 Cl
ATOM     24 CL   UNL d   1      52.675  34.566  54.144  0.00  0.00    -0.068 Cl
ENDBRANCH   1  22
TORSDOF 5
ENDMDL
