MODEL 1
REMARK VINA RESULT:      85.3      0.000      0.000
REMARK  5 active torsions:
REMARK  status: ('A' for Active; 'I' for Inactive)
REMARK    1  A    between atoms: C_10  and  N_2 
REMARK       I    between atoms: N_3  and  C_6 
REMARK    2  A    between atoms: C_6  and  C_14 
REMARK    3  A    between atoms: C_17  and  C_10 
REMARK    4  A    between atoms: O_13  and  C_12 
REMARK    5  A    between atoms: C_14  and  O_13 
ROOT
ATOM      1  C   UNL d   1      14.818  14.326  -1.471  0.00  0.00     0.265 A 
ATOM      2  N   UNL d   1      14.480  13.972  -2.146  0.00  0.00    -0.272 N 
ATOM      3  C   UNL d   1      14.963  15.145  -1.481  0.00  0.00     0.059 A 
ATOM      4  C   UNL d   1      14.775  15.598  -2.149  0.00  0.00     0.029 A 
ATOM      5  C   UNL d   1      14.441  15.240  -2.812  0.00  0.00     0.021 A 
ATOM      6  C   UNL d   1      14.291  14.425  -2.814  0.00  0.00     0.083 A 
ATOM      7  O   UNL d   1      15.005  13.877  -0.809  0.00  0.00    -0.267 OA
ATOM      8  C   UNL d   1      14.920  16.414  -2.156  0.00  0.00     0.100 A 
ATOM      9  C   UNL d   1      15.301  15.501  -0.810  0.00  0.00     0.005 A 
ATOM     10  C   UNL d   1      15.445  16.320  -0.820  0.00  0.00     0.002 A 
ATOM     11  C   UNL d   1      15.256  16.775  -1.491  0.00  0.00     0.025 A 
ENDROOT
BRANCH   8  12
ATOM     12  O   UNL d   1      14.733  16.865  -2.821  0.00  0.00    -0.300 OA
BRANCH  12  13
ATOM     13  C   UNL d   1      15.313  16.926  -3.479  0.00  0.00     0.184 C 
BRANCH  13  14
ATOM     14  C   UNL d   1      15.084  17.649  -4.001  0.00  0.00     0.290 C 
ATOM     15  N   UNL d   1      14.751  17.531  -4.727  0.00  0.00    -0.272 N 
ATOM     16  C   UNL d   1      14.552  18.167  -5.181  0.00  0.00     0.067 A 
ATOM     17  C   UNL d   1      14.620  16.784  -4.991  0.00  0.00     0.083 A 
ATOM     18  C   UNL d   1      14.212  18.062  -5.922  0.00  0.00     0.016 A 
ATOM     19  C   UNL d   1      14.680  18.922  -4.926  0.00  0.00     0.018 A 
ATOM     20  C   UNL d   1      14.010  18.690  -6.384  0.00  0.00     0.001 A 
ATOM     21  C   UNL d   1      14.085  17.296  -6.177  0.00  0.00     0.003 A 
ATOM     22  C   UNL d   1      14.148  19.440  -6.107  0.00  0.00     0.000 A 
ATOM     23  C   UNL d   1      14.486  19.565  -5.371  0.00  0.00     0.002 A 
ATOM     24  C   UNL d   1      14.286  16.665  -5.718  0.00  0.00     0.019 A 
ATOM     25  O   UNL d   1      15.240  18.492  -3.688  0.00  0.00    -0.264 OA
ENDBRANCH  13  14
ENDBRANCH  12  13
ENDBRANCH   8  12
BRANCH   2  26
ATOM     26  C   UNL d   1      14.331  13.162  -2.148  0.00  0.00     0.083 C 
BRANCH  26  27
ATOM     27  C   UNL d   1      13.939  12.814  -2.786  0.00  0.00     0.018 A 
ATOM     28  C   UNL d   1      13.476  12.159  -2.660  0.00  0.00     0.002 A 
ATOM     29  C   UNL d   1      13.085  11.811  -3.291  0.00  0.00     0.007 A 
ATOM     30  C   UNL d   1      13.160  12.123  -4.054  0.00  0.00     0.035 A 
ATOM     31  C   UNL d   1      13.632  12.791  -4.180  0.00  0.00     0.007 A 
ATOM     32 BR   UNL d   1      12.769  11.779  -4.694  0.00  0.00    -0.049 Br
ATOM     33  C   UNL d   1      14.029  13.146  -3.545  0.00  0.00     0.002 A 
ENDBRANCH  26  27
ENDBRANCH   2  26
TORSDOF 5
ENDMDL
MODEL 2
REMARK VINA RESULT:      85.7      2.013      3.761
REMARK  5 active torsions:
REMARK  status: ('A' for Active; 'I' for Inactive)
REMARK    1  A    between atoms: C_10  and  N_2 
REMARK       I    between atoms: N_3  and  C_6 
REMARK    2  A    between atoms: C_6  and  C_14 
REMARK    3  A    between atoms: C_17  and  C_10 
REMARK    4  A    between atoms: O_13  and  C_12 
REMARK    5  A    between atoms: C_14  and  O_13 
ROOT
ATOM      1  C   UNL d   1      15.262  16.150  -1.159  0.00  0.00     0.265 A 
ATOM      2  N   UNL d   1      14.947  15.389  -1.028  0.00  0.00    -0.272 N 
ATOM      3  C   UNL d   1      15.104  16.528  -1.883  0.00  0.00     0.059 A 
ATOM      4  C   UNL d   1      14.642  16.154  -2.461  0.00  0.00     0.029 A 
ATOM      5  C   UNL d   1      14.335  15.402  -2.324  0.00  0.00     0.021 A 
ATOM      6  C   UNL d   1      14.486  15.016  -1.606  0.00  0.00     0.083 A 
ATOM      7  O   UNL d   1      15.719  16.520  -0.586  0.00  0.00    -0.267 OA
ATOM      8  C   UNL d   1      14.486  16.533  -3.182  0.00  0.00     0.100 A 
ATOM      9  C   UNL d   1      15.416  17.287  -2.016  0.00  0.00     0.005 A 
ATOM     10  C   UNL d   1      15.258  17.664  -2.740  0.00  0.00     0.002 A 
ATOM     11  C   UNL d   1      14.794  17.289  -3.321  0.00  0.00     0.025 A 
ENDROOT
BRANCH   8  12
ATOM     12  O   UNL d   1      14.027  16.161  -3.758  0.00  0.00    -0.300 OA
BRANCH  12  13
ATOM     13  C   UNL d   1      14.399  15.570  -4.291  0.00  0.00     0.184 C 
BRANCH  13  14
ATOM     14  C   UNL d   1      14.004  14.752  -4.137  0.00  0.00     0.290 C 
ATOM     15  N   UNL d   1      13.870  14.249  -4.755  0.00  0.00    -0.272 N 
ATOM     16  C   UNL d   1      13.523  13.534  -4.616  0.00  0.00     0.067 A 
ATOM     17  C   UNL d   1      14.080  14.463  -5.499  0.00  0.00     0.083 A 
ATOM     18  C   UNL d   1      13.380  13.012  -5.235  0.00  0.00     0.016 A 
ATOM     19  C   UNL d   1      13.308  13.308  -3.872  0.00  0.00     0.018 A 
ATOM     20  C   UNL d   1      13.035  12.295  -5.108  0.00  0.00     0.001 A 
ATOM     21  C   UNL d   1      13.600  13.245  -5.987  0.00  0.00     0.003 A 
ATOM     22  C   UNL d   1      12.827  12.090  -4.351  0.00  0.00     0.000 A 
ATOM     23  C   UNL d   1      12.962  12.597  -3.721  0.00  0.00     0.002 A 
ATOM     24  C   UNL d   1      13.946  13.960  -6.118  0.00  0.00     0.019 A 
ATOM     25  O   UNL d   1      13.771  14.523  -3.285  0.00  0.00    -0.264 OA
ENDBRANCH  13  14
ENDBRANCH  12  13
ENDBRANCH   8  12
BRANCH   2  26
ATOM     26  C   UNL d   1      15.097  15.005  -0.315  0.00  0.00     0.083 C 
BRANCH  26  27
ATOM     27  C   UNL d   1      14.951  14.196  -0.242  0.00  0.00     0.018 A 
ATOM     28  C   UNL d   1      15.572  13.674  -0.273  0.00  0.00     0.002 A 
ATOM     29  C   UNL d   1      15.431  12.870  -0.201  0.00  0.00     0.007 A 
ATOM     30  C   UNL d   1      14.660  12.587  -0.096  0.00  0.00     0.035 A 
ATOM     31  C   UNL d   1      14.028  13.120  -0.065  0.00  0.00     0.007 A 
ATOM     32 BR   UNL d   1      14.510  11.780  -0.023  0.00  0.00    -0.049 Br
ATOM     33  C   UNL d   1      14.166  13.935  -0.138  0.00  0.00     0.002 A 
ENDBRANCH  26  27
ENDBRANCH   2  26
TORSDOF 5
ENDMDL
MODEL 3
REMARK VINA RESULT:      86.9      2.344      5.961
REMARK  5 active torsions:
REMARK  status: ('A' for Active; 'I' for Inactive)
REMARK    1  A    between atoms: C_10  and  N_2 
REMARK       I    between atoms: N_3  and  C_6 
REMARK    2  A    between atoms: C_6  and  C_14 
REMARK    3  A    between atoms: C_17  and  C_10 
REMARK    4  A    between atoms: O_13  and  C_12 
REMARK    5  A    between atoms: C_14  and  O_13 
ROOT
ATOM      1  C   UNL d   1      15.530  18.295  -5.256  0.00  0.00     0.265 A 
ATOM      2  N   UNL d   1      14.874  18.500  -5.729  0.00  0.00    -0.272 N 
ATOM      3  C   UNL d   1      15.514  17.573  -4.845  0.00  0.00     0.059 A 
ATOM      4  C   UNL d   1      14.860  17.067  -4.905  0.00  0.00     0.029 A 
ATOM      5  C   UNL d   1      14.217  17.277  -5.375  0.00  0.00     0.021 A 
ATOM      6  C   UNL d   1      14.220  17.994  -5.790  0.00  0.00     0.083 A 
ATOM      7  O   UNL d   1      16.178  18.796  -5.196  0.00  0.00    -0.267 OA
ATOM      8  C   UNL d   1      14.847  16.347  -4.494  0.00  0.00     0.100 A 
ATOM      9  C   UNL d   1      16.166  17.366  -4.372  0.00  0.00     0.005 A 
ATOM     10  C   UNL d   1      16.150  16.643  -3.960  0.00  0.00     0.002 A 
ATOM     11  C   UNL d   1      15.493  16.135  -4.021  0.00  0.00     0.025 A 
ENDROOT
BRANCH   8  12
ATOM     12  O   UNL d   1      14.196  15.844  -4.554  0.00  0.00    -0.300 OA
BRANCH  12  13
ATOM     13  C   UNL d   1      13.999  15.312  -3.883  0.00  0.00     0.184 C 
BRANCH  13  14
ATOM     14  C   UNL d   1      13.662  14.526  -4.225  0.00  0.00     0.290 C 
ATOM     15  N   UNL d   1      13.670  13.856  -3.774  0.00  0.00    -0.272 N 
ATOM     16  C   UNL d   1      13.374  13.170  -4.078  0.00  0.00     0.067 A 
ATOM     17  C   UNL d   1      13.971  13.877  -3.030  0.00  0.00     0.083 A 
ATOM     18  C   UNL d   1      13.375  12.480  -3.631  0.00  0.00     0.016 A 
ATOM     19  C   UNL d   1      13.069  13.137  -4.824  0.00  0.00     0.018 A 
ATOM     20  C   UNL d   1      13.082  11.789  -3.924  0.00  0.00     0.001 A 
ATOM     21  C   UNL d   1      13.685  12.518  -2.875  0.00  0.00     0.003 A 
ATOM     22  C   UNL d   1      12.781  11.780  -4.677  0.00  0.00     0.000 A 
ATOM     23  C   UNL d   1      12.771  12.458  -5.138  0.00  0.00     0.002 A 
ATOM     24  C   UNL d   1      13.979  13.206  -2.579  0.00  0.00     0.019 A 
ATOM     25  O   UNL d   1      13.323  14.518  -5.072  0.00  0.00    -0.264 OA
ENDBRANCH  13  14
ENDBRANCH  12  13
ENDBRANCH   8  12
BRANCH   2  26
ATOM     26  C   UNL d   1      14.878  19.213  -6.141  0.00  0.00     0.083 C 
BRANCH  26  27
ATOM     27  C   UNL d   1      14.356  19.816  -5.930  0.00  0.00     0.018 A 
ATOM     28  C   UNL d   1      13.574  19.641  -5.802  0.00  0.00     0.002 A 
ATOM     29  C   UNL d   1      13.053  20.238  -5.592  0.00  0.00     0.007 A 
ATOM     30  C   UNL d   1      13.320  21.017  -5.510  0.00  0.00     0.035 A 
ATOM     31  C   UNL d   1      14.117  21.194  -5.641  0.00  0.00     0.007 A 
ATOM     32 BR   UNL d   1      12.802  21.624  -5.299  0.00  0.00    -0.049 Br
ATOM     33  C   UNL d   1      14.647  20.593  -5.854  0.00  0.00     0.002 A 
ENDBRANCH  26  27
ENDBRANCH   2  26
TORSDOF 5
ENDMDL
