MODEL 1
REMARK VINA RESULT:      39.4      0.000      0.000
REMARK  5 active torsions:
REMARK  status: ('A' for Active; 'I' for Inactive)
REMARK    1  A    between atoms: N_4  and  C_2 
REMARK    2  A    between atoms: S_8  and  C_3 
REMARK    3  A    between atoms: C_11  and  S_8 
REMARK    4  A    between atoms: C_9  and  C_11 
REMARK    5  A    between atoms: C_10  and  C_9 
ROOT
ATOM      1  N   UNL d   1     -57.397 -98.764 -44.787  0.00  0.00    -0.203 NA
ATOM      2  C   UNL d   1     -58.221 -98.775 -44.777  0.00  0.00     0.152 A 
ATOM      3  C   UNL d   1     -56.971 -98.768 -44.071  0.00  0.00     0.196 A 
ATOM      4  C   UNL d   1     -58.617 -98.791 -44.051  0.00  0.00     0.057 A 
ATOM      5  N   UNL d   1     -57.372 -98.783 -43.352  0.00  0.00    -0.221 NA
ATOM      6  C   UNL d   1     -58.195 -98.795 -43.342  0.00  0.00     0.087 A 
ATOM      7  C   UNL d   1     -58.599 -98.811 -42.621  0.00  0.00     0.021 C 
ENDROOT
BRANCH   3   8
ATOM      8  S   UNL d   1     -56.140 -98.756 -44.085  0.00  0.00    -0.045 SA
BRANCH   8   9
ATOM      9  C   UNL d   1     -55.730 -99.328 -44.520  0.00  0.00     0.080 C 
BRANCH   9  10
ATOM     10  C   UNL d   1     -55.210 -99.839 -44.135  0.00  0.00     0.202 C 
ATOM     11  O   UNL d   1     -54.818 -99.587 -43.454  0.00  0.00    -0.286 OA
BRANCH  10  12
ATOM     12  C   UNL d   1     -55.086-100.596 -44.435  0.00  0.00     0.040 A 
ATOM     13  C   UNL d   1     -55.057-101.239 -43.915  0.00  0.00     0.004 A 
ATOM     14  C   UNL d   1     -54.933-101.999 -44.210  0.00  0.00     0.011 A 
ATOM     15  C   UNL d   1     -54.840-102.110 -45.023  0.00  0.00     0.058 A 
ATOM     16  C   UNL d   1     -54.870-101.466 -45.538  0.00  0.00     0.011 A 
ATOM     17 CL   UNL d   1     -54.716-102.870 -45.322  0.00  0.00    -0.082 Cl
ATOM     18  C   UNL d   1     -54.994-100.709 -45.238  0.00  0.00     0.004 A 
ENDBRANCH  10  12
ENDBRANCH   9  10
ENDBRANCH   8   9
ENDBRANCH   3   8
BRANCH   2  19
ATOM     19  N   UNL d   1     -58.646 -98.772 -45.484  0.00  0.00    -0.285 N 
ATOM     20  C   UNL d   1     -58.248 -98.778 -46.200  0.00  0.00     0.108 A 
ATOM     21  C   UNL d   1     -58.677 -98.774 -46.904  0.00  0.00     0.142 A 
ATOM     22  O   UNL d   1     -59.503 -98.764 -46.883  0.00  0.00    -0.300 OA
ATOM     23  C   UNL d   1     -59.898 -98.757 -46.161  0.00  0.00     0.142 A 
ATOM     24  C   UNL d   1     -59.473 -98.761 -45.463  0.00  0.00     0.108 A 
ENDBRANCH   2  19
TORSDOF 5
ENDMDL
