MODEL 1
REMARK VINA RESULT:      65.5      0.000      0.000
REMARK  4 active torsions:
REMARK  status: ('A' for Active; 'I' for Inactive)
REMARK    1  A    between atoms: N_10  and  C_3 
REMARK    2  A    between atoms: C_11  and  C_4 
REMARK    3  A    between atoms: C_15  and  N_10 
REMARK       I    between atoms: C_12  and  N_13 
REMARK    4  A    between atoms: N_13  and  C_16 
ROOT
ATOM      1  C   UNL d   1      13.982  13.168  -2.538  0.00  0.00     0.167 A 
ATOM      2  N   UNL d   1      13.650  13.195  -3.286  0.00  0.00    -0.195 N 
ATOM      3  C   UNL d   1      13.625  13.906  -3.705  0.00  0.00     0.167 A 
ATOM      4  C   UNL d   1      13.928  12.398  -2.262  0.00  0.00     0.057 A 
ATOM      5  N   UNL d   1      13.388  12.442  -3.477  0.00  0.00    -0.161 NA
ATOM      6  N   UNL d   1      14.296  13.852  -2.196  0.00  0.00    -0.227 NA
ATOM      7  C   UNL d   1      13.939  14.593  -3.364  0.00  0.00     0.058 A 
ATOM      8  C   UNL d   1      13.559  11.952  -2.849  0.00  0.00     0.124 A 
ATOM      9  C   UNL d   1      14.272  14.566  -2.616  0.00  0.00     0.086 A 
ATOM     10  C   UNL d   1      14.580  15.262  -2.291  0.00  0.00     0.021 C 
ENDROOT
BRANCH   3  11
ATOM     11  N   UNL d   1      13.292  13.934  -4.454  0.00  0.00    -0.227 NA
BRANCH  11  12
ATOM     12  C   UNL d   1      13.354  14.618  -4.912  0.00  0.00     0.083 A 
ATOM     13  C   UNL d   1      12.801  15.222  -4.814  0.00  0.00     0.021 A 
ATOM     14  C   UNL d   1      12.860  15.914  -5.274  0.00  0.00     0.021 A 
ATOM     15  C   UNL d   1      13.465  15.991  -5.822  0.00  0.00     0.085 A 
ATOM     16  C   UNL d   1      14.021  15.379  -5.917  0.00  0.00     0.021 A 
ATOM     17  C   UNL d   1      13.962  14.696  -5.463  0.00  0.00     0.021 A 
BRANCH  15  18
ATOM     18  N   UNL d   1      13.522  16.687  -6.283  0.00  0.00    -0.208 NA
ATOM     19  C   UNL d   1      13.653  17.420  -5.926  0.00  0.00     0.279 C 
ATOM     20  O   UNL d   1      13.709  18.112  -6.389  0.00  0.00    -0.265 OA
ATOM     21  C   UNL d   1      13.728  17.465  -5.110  0.00  0.00     0.068 C 
ENDBRANCH  15  18
ENDBRANCH  11  12
ENDBRANCH   3  11
BRANCH   4  22
ATOM     22  C   UNL d   1      14.218  12.191  -1.515  0.00  0.00     0.004 A 
ATOM     23  C   UNL d   1      13.689  12.117  -0.887  0.00  0.00     0.000 A 
ATOM     24  C   UNL d   1      13.970  11.912  -0.139  0.00  0.00     0.000 A 
ATOM     25  C   UNL d   1      14.784  11.779  -0.020  0.00  0.00     0.000 A 
ATOM     26  C   UNL d   1      15.303  11.855  -0.652  0.00  0.00     0.000 A 
ATOM     27  C   UNL d   1      15.018  12.061  -1.399  0.00  0.00     0.000 A 
ENDBRANCH   4  22
TORSDOF 4
ENDMDL
