MODEL 1
REMARK VINA RESULT:      -9.1      0.000      0.000
REMARK  4 active torsions:
REMARK  status: ('A' for Active; 'I' for Inactive)
REMARK    1  A    between atoms: S_9  and  C_3 
REMARK    2  A    between atoms: C_12  and  S_9 
REMARK    3  A    between atoms: C_11  and  C_12 
REMARK    4  A    between atoms: O_16  and  C_11 
ROOT
ATOM      1  C   UNL d   1      53.502  32.756  53.985  0.00  0.00     0.155 A 
ATOM      2  C   UNL d   1      52.841  32.504  53.554  0.00  0.00     0.107 A 
ATOM      3  C   UNL d   1      52.310  33.827  53.604  0.00  0.00     0.182 A 
ATOM      4  N   UNL d   1      52.962  34.079  54.031  0.00  0.00    -0.250 N 
ATOM      5  N   UNL d   1      52.241  33.043  53.362  0.00  0.00    -0.220 NA
ATOM      6  C   UNL d   1      53.562  33.539  54.222  0.00  0.00     0.285 A 
ATOM      7  N   UNL d   1      54.000  32.109  54.093  0.00  0.00    -0.239 NA
ATOM      8  C   UNL d   1      52.927  31.702  53.392  0.00  0.00     0.037 A 
ATOM      9  C   UNL d   1      53.649  31.453  53.727  0.00  0.00     0.083 A 
ATOM     10  O   UNL d   1      54.221  33.800  54.655  0.00  0.00    -0.265 OA
ATOM     11  C   UNL d   1      53.022  34.870  54.270  0.00  0.00     0.104 C 
ATOM     12  C   UNL d   1      52.454  31.162  52.990  0.00  0.00     0.003 A 
ATOM     13  C   UNL d   1      53.890  30.664  53.656  0.00  0.00     0.019 A 
ATOM     14  C   UNL d   1      52.695  30.374  52.919  0.00  0.00     0.000 A 
ATOM     15  C   UNL d   1      53.409  30.129  53.250  0.00  0.00     0.002 A 
ENDROOT
BRANCH   3  16
ATOM     16  S   UNL d   1      51.714  34.366  53.414  0.00  0.00    -0.044 SA
BRANCH  16  17
ATOM     17  C   UNL d   1      51.359  34.350  52.669  0.00  0.00     0.095 C 
ATOM     18  C   UNL d   1      51.822  34.267  51.994  0.00  0.00     0.013 C 
BRANCH  17  19
ATOM     19  C   UNL d   1      50.539  34.417  52.610  0.00  0.00     0.302 C 
ATOM     20  O   UNL d   1      50.106  34.713  53.227  0.00  0.00    -0.259 OA
BRANCH  19  21
ATOM     21  O   UNL d   1      50.152  34.180  51.915  0.00  0.00    -0.295 OA
ATOM     22  C   UNL d   1      49.357  34.383  51.792  0.00  0.00     0.185 C 
ENDBRANCH  19  21
ENDBRANCH  17  19
ENDBRANCH  16  17
ENDBRANCH   3  16
TORSDOF 4
ENDMDL
MODEL 2
REMARK VINA RESULT:      -8.1      1.721      3.694
REMARK  4 active torsions:
REMARK  status: ('A' for Active; 'I' for Inactive)
REMARK    1  A    between atoms: S_9  and  C_3 
REMARK    2  A    between atoms: C_12  and  S_9 
REMARK    3  A    between atoms: C_11  and  C_12 
REMARK    4  A    between atoms: O_16  and  C_11 
ROOT
ATOM      1  C   UNL d   1      52.793  33.995  54.015  0.00  0.00     0.155 A 
ATOM      2  C   UNL d   1      52.381  33.359  53.679  0.00  0.00     0.107 A 
ATOM      3  C   UNL d   1      53.374  32.463  54.174  0.00  0.00     0.182 A 
ATOM      4  N   UNL d   1      53.783  33.089  54.507  0.00  0.00    -0.250 N 
ATOM      5  N   UNL d   1      52.674  32.587  53.759  0.00  0.00    -0.220 NA
ATOM      6  C   UNL d   1      53.489  33.861  54.427  0.00  0.00     0.285 A 
ATOM      7  N   UNL d   1      52.376  34.687  53.848  0.00  0.00    -0.239 NA
ATOM      8  C   UNL d   1      51.711  33.652  53.304  0.00  0.00     0.037 A 
ATOM      9  C   UNL d   1      51.705  34.480  53.408  0.00  0.00     0.083 A 
ATOM     10  O   UNL d   1      53.907  34.493  54.767  0.00  0.00    -0.265 OA
ATOM     11  C   UNL d   1      54.486  32.953  54.923  0.00  0.00     0.104 C 
ATOM     12  C   UNL d   1      51.105  33.289  52.883  0.00  0.00     0.003 A 
ATOM     13  C   UNL d   1      51.091  34.935  53.088  0.00  0.00     0.019 A 
ATOM     14  C   UNL d   1      50.491  33.743  52.564  0.00  0.00     0.000 A 
ATOM     15  C   UNL d   1      50.487  34.561  52.668  0.00  0.00     0.002 A 
ENDROOT
BRANCH   3  16
ATOM     16  S   UNL d   1      53.668  31.695  54.255  0.00  0.00    -0.044 SA
BRANCH  16  17
ATOM     17  C   UNL d   1      53.647  31.171  53.619  0.00  0.00     0.095 C 
ATOM     18  C   UNL d   1      53.960  31.393  52.891  0.00  0.00     0.013 C 
BRANCH  17  19
ATOM     19  C   UNL d   1      53.309  30.425  53.719  0.00  0.00     0.302 C 
ATOM     20  O   UNL d   1      52.749  30.155  53.198  0.00  0.00    -0.259 OA
BRANCH  19  21
ATOM     21  O   UNL d   1      53.541  29.946  54.355  0.00  0.00    -0.295 OA
ATOM     22  C   UNL d   1      53.314  29.148  54.379  0.00  0.00     0.185 C 
ENDBRANCH  19  21
ENDBRANCH  17  19
ENDBRANCH  16  17
ENDBRANCH   3  16
TORSDOF 4
ENDMDL
MODEL 3
REMARK VINA RESULT:      -8.1      1.882      3.814
REMARK  4 active torsions:
REMARK  status: ('A' for Active; 'I' for Inactive)
REMARK    1  A    between atoms: S_9  and  C_3 
REMARK    2  A    between atoms: C_12  and  S_9 
REMARK    3  A    between atoms: C_11  and  C_12 
REMARK    4  A    between atoms: O_16  and  C_11 
ROOT
ATOM      1  C   UNL d   1      52.908  33.562  53.735  0.00  0.00     0.155 A 
ATOM      2  C   UNL d   1      53.380  32.959  54.054  0.00  0.00     0.107 A 
ATOM      3  C   UNL d   1      52.622  31.992  53.330  0.00  0.00     0.182 A 
ATOM      4  N   UNL d   1      52.154  32.586  53.013  0.00  0.00    -0.250 N 
ATOM      5  N   UNL d   1      53.235  32.169  53.849  0.00  0.00    -0.220 NA
ATOM      6  C   UNL d   1      52.299  33.377  53.219  0.00  0.00     0.285 A 
ATOM      7  N   UNL d   1      53.176  34.282  54.033  0.00  0.00    -0.239 NA
ATOM      8  C   UNL d   1      53.940  33.302  54.548  0.00  0.00     0.037 A 
ATOM      9  C   UNL d   1      53.816  34.127  54.538  0.00  0.00     0.083 A 
ATOM     10  O   UNL d   1      51.822  33.974  52.895  0.00  0.00    -0.265 OA
ATOM     11  C   UNL d   1      51.539  32.397  52.491  0.00  0.00     0.104 C 
ATOM     12  C   UNL d   1      54.544  32.985  55.007  0.00  0.00     0.003 A 
ATOM     13  C   UNL d   1      54.300  34.625  54.987  0.00  0.00     0.019 A 
ATOM     14  C   UNL d   1      55.028  33.483  55.457  0.00  0.00     0.000 A 
ATOM     15  C   UNL d   1      54.905  34.298  55.445  0.00  0.00     0.002 A 
ENDROOT
BRANCH   3  16
ATOM     16  S   UNL d   1      52.476  31.205  53.124  0.00  0.00    -0.044 SA
BRANCH  16  17
ATOM     17  C   UNL d   1      53.077  30.643  53.177  0.00  0.00     0.095 C 
ATOM     18  C   UNL d   1      53.815  30.796  52.849  0.00  0.00     0.013 C 
BRANCH  17  19
ATOM     19  C   UNL d   1      52.929  29.927  53.560  0.00  0.00     0.302 C 
ATOM     20  O   UNL d   1      52.307  29.460  53.332  0.00  0.00    -0.259 OA
BRANCH  19  21
ATOM     21  O   UNL d   1      53.418  29.681  54.183  0.00  0.00    -0.295 OA
ATOM     22  C   UNL d   1      53.296  28.943  54.541  0.00  0.00     0.185 C 
ENDBRANCH  19  21
ENDBRANCH  17  19
ENDBRANCH  16  17
ENDBRANCH   3  16
TORSDOF 4
ENDMDL
MODEL 4
REMARK VINA RESULT:      -8.0      1.150      2.356
REMARK  4 active torsions:
REMARK  status: ('A' for Active; 'I' for Inactive)
REMARK    1  A    between atoms: S_9  and  C_3 
REMARK    2  A    between atoms: C_12  and  S_9 
REMARK    3  A    between atoms: C_11  and  C_12 
REMARK    4  A    between atoms: O_16  and  C_11 
ROOT
ATOM      1  C   UNL d   1      53.516  32.476  53.837  0.00  0.00     0.155 A 
ATOM      2  C   UNL d   1      53.244  33.234  54.033  0.00  0.00     0.107 A 
ATOM      3  C   UNL d   1      52.047  32.986  53.299  0.00  0.00     0.182 A 
ATOM      4  N   UNL d   1      52.313  32.237  53.103  0.00  0.00    -0.250 N 
ATOM      5  N   UNL d   1      52.503  33.490  53.762  0.00  0.00    -0.220 NA
ATOM      6  C   UNL d   1      53.055  31.981  53.375  0.00  0.00     0.285 A 
ATOM      7  N   UNL d   1      54.260  32.374  54.179  0.00  0.00    -0.239 NA
ATOM      8  C   UNL d   1      53.814  33.603  54.495  0.00  0.00     0.037 A 
ATOM      9  C   UNL d   1      54.449  33.070  54.588  0.00  0.00     0.083 A 
ATOM     10  O   UNL d   1      53.320  31.220  53.174  0.00  0.00    -0.265 OA
ATOM     11  C   UNL d   1      51.845  31.738  52.637  0.00  0.00     0.104 C 
ATOM     12  C   UNL d   1      53.850  34.346  54.846  0.00  0.00     0.003 A 
ATOM     13  C   UNL d   1      55.114  33.288  55.031  0.00  0.00     0.019 A 
ATOM     14  C   UNL d   1      54.514  34.564  55.289  0.00  0.00     0.000 A 
ATOM     15  C   UNL d   1      55.141  34.036  55.379  0.00  0.00     0.002 A 
ENDROOT
BRANCH   3  16
ATOM     16  S   UNL d   1      51.308  33.240  53.028  0.00  0.00    -0.044 SA
BRANCH  16  17
ATOM     17  C   UNL d   1      51.228  33.977  52.668  0.00  0.00     0.095 C 
ATOM     18  C   UNL d   1      51.803  34.246  52.144  0.00  0.00     0.013 C 
BRANCH  17  19
ATOM     19  C   UNL d   1      50.567  34.441  52.838  0.00  0.00     0.302 C 
ATOM     20  O   UNL d   1      50.610  35.028  53.395  0.00  0.00    -0.259 OA
BRANCH  19  21
ATOM     21  O   UNL d   1      49.852  34.309  52.438  0.00  0.00    -0.295 OA
ATOM     22  C   UNL d   1      49.230  34.853  52.508  0.00  0.00     0.185 C 
ENDBRANCH  19  21
ENDBRANCH  17  19
ENDBRANCH  16  17
ENDBRANCH   3  16
TORSDOF 4
ENDMDL
MODEL 5
REMARK VINA RESULT:      -7.2      1.246      3.034
REMARK  4 active torsions:
REMARK  status: ('A' for Active; 'I' for Inactive)
REMARK    1  A    between atoms: S_9  and  C_3 
REMARK    2  A    between atoms: C_12  and  S_9 
REMARK    3  A    between atoms: C_11  and  C_12 
REMARK    4  A    between atoms: O_16  and  C_11 
ROOT
ATOM      1  C   UNL d   1      52.388  32.296  52.817  0.00  0.00     0.155 A 
ATOM      2  C   UNL d   1      53.010  32.175  53.351  0.00  0.00     0.107 A 
ATOM      3  C   UNL d   1      53.095  33.584  53.560  0.00  0.00     0.182 A 
ATOM      4  N   UNL d   1      52.480  33.706  53.032  0.00  0.00    -0.250 N 
ATOM      5  N   UNL d   1      53.366  32.824  53.725  0.00  0.00    -0.220 NA
ATOM      6  C   UNL d   1      52.124  33.056  52.658  0.00  0.00     0.285 A 
ATOM      7  N   UNL d   1      52.146  31.560  52.534  0.00  0.00    -0.239 NA
ATOM      8  C   UNL d   1      53.155  31.368  53.402  0.00  0.00     0.037 A 
ATOM      9  C   UNL d   1      52.618  30.981  52.894  0.00  0.00     0.083 A 
ATOM     10  O   UNL d   1      51.502  33.186  52.124  0.00  0.00    -0.265 OA
ATOM     11  C   UNL d   1      52.215  34.475  52.873  0.00  0.00     0.104 C 
ATOM     12  C   UNL d   1      53.698  30.927  53.835  0.00  0.00     0.003 A 
ATOM     13  C   UNL d   1      52.631  30.157  52.826  0.00  0.00     0.019 A 
ATOM     14  C   UNL d   1      53.710  30.103  53.768  0.00  0.00     0.000 A 
ATOM     15  C   UNL d   1      53.179  29.722  53.265  0.00  0.00     0.002 A 
ENDROOT
BRANCH   3  16
ATOM     16  S   UNL d   1      53.448  34.232  53.931  0.00  0.00    -0.044 SA
BRANCH  16  17
ATOM     17  C   UNL d   1      53.678  34.184  54.722  0.00  0.00     0.095 C 
ATOM     18  C   UNL d   1      53.135  33.957  55.297  0.00  0.00     0.013 C 
BRANCH  17  19
ATOM     19  C   UNL d   1      54.456  34.366  54.928  0.00  0.00     0.302 C 
ATOM     20  O   UNL d   1      54.777  35.082  54.727  0.00  0.00    -0.259 OA
BRANCH  19  21
ATOM     21  O   UNL d   1      54.915  33.815  55.345  0.00  0.00    -0.295 OA
ATOM     22  C   UNL d   1      55.734  33.927  55.419  0.00  0.00     0.185 C 
ENDBRANCH  19  21
ENDBRANCH  17  19
ENDBRANCH  16  17
ENDBRANCH   3  16
TORSDOF 4
ENDMDL
MODEL 6
REMARK VINA RESULT:      -7.2      1.706      3.956
REMARK  4 active torsions:
REMARK  status: ('A' for Active; 'I' for Inactive)
REMARK    1  A    between atoms: S_9  and  C_3 
REMARK    2  A    between atoms: C_12  and  S_9 
REMARK    3  A    between atoms: C_11  and  C_12 
REMARK    4  A    between atoms: O_16  and  C_11 
ROOT
ATOM      1  C   UNL d   1      52.202  32.432  52.898  0.00  0.00     0.155 A 
ATOM      2  C   UNL d   1      52.383  33.141  53.287  0.00  0.00     0.107 A 
ATOM      3  C   UNL d   1      53.617  32.576  53.728  0.00  0.00     0.182 A 
ATOM      4  N   UNL d   1      53.440  31.875  53.344  0.00  0.00    -0.250 N 
ATOM      5  N   UNL d   1      53.096  33.213  53.706  0.00  0.00    -0.220 NA
ATOM      6  C   UNL d   1      52.727  31.803  52.926  0.00  0.00     0.285 A 
ATOM      7  N   UNL d   1      51.468  32.520  52.534  0.00  0.00    -0.239 NA
ATOM      8  C   UNL d   1      51.765  33.669  53.167  0.00  0.00     0.037 A 
ATOM      9  C   UNL d   1      51.192  33.285  52.697  0.00  0.00     0.083 A 
ATOM     10  O   UNL d   1      52.553  31.089  52.538  0.00  0.00    -0.265 OA
ATOM     11  C   UNL d   1      53.972  31.239  53.373  0.00  0.00     0.104 C 
ATOM     12  C   UNL d   1      51.639  34.443  53.415  0.00  0.00     0.003 A 
ATOM     13  C   UNL d   1      50.499  33.681  52.481  0.00  0.00     0.019 A 
ATOM     14  C   UNL d   1      50.945  34.839  53.200  0.00  0.00     0.000 A 
ATOM     15  C   UNL d   1      50.380  34.458  52.736  0.00  0.00     0.002 A 
ENDROOT
BRANCH   3  16
ATOM     16  S   UNL d   1      54.327  32.645  54.144  0.00  0.00    -0.044 SA
BRANCH  16  17
ATOM     17  C   UNL d   1      54.329  32.915  54.923  0.00  0.00     0.095 C 
ATOM     18  C   UNL d   1      53.898  32.516  55.499  0.00  0.00     0.013 C 
BRANCH  17  19
ATOM     19  C   UNL d   1      54.766  33.587  55.118  0.00  0.00     0.302 C 
ATOM     20  O   UNL d   1      54.450  34.155  55.602  0.00  0.00    -0.259 OA
BRANCH  19  21
ATOM     21  O   UNL d   1      55.534  33.685  54.820  0.00  0.00    -0.295 OA
ATOM     22  C   UNL d   1      55.938  34.400  54.937  0.00  0.00     0.185 C 
ENDBRANCH  19  21
ENDBRANCH  17  19
ENDBRANCH  16  17
ENDBRANCH   3  16
TORSDOF 4
ENDMDL
