MODEL 1
REMARK VINA RESULT:      -0.2      0.000      0.000
REMARK  5 active torsions:
REMARK  status: ('A' for Active; 'I' for Inactive)
REMARK    1  A    between atoms: S_3  and  N_1 
REMARK    2  A    between atoms: C_7  and  C_4 
REMARK    3  A    between atoms: C_8  and  C_5 
REMARK    4  A    between atoms: O_17  and  C_12 
REMARK    5  A    between atoms: C_20  and  O_17 
ROOT
ATOM      1  N   UNL d   1      32.119  17.072 -23.669  0.00  0.00    -0.155 N 
ATOM      2  N   UNL d   1      32.598  17.746 -23.558  0.00  0.00    -0.155 NA
ATOM      3  C   UNL d   1      31.590  17.239 -24.254  0.00  0.00     0.098 A 
ATOM      4  C   UNL d   1      32.345  18.313 -24.086  0.00  0.00     0.110 A 
ATOM      5  C   UNL d   1      31.701  18.006 -24.539  0.00  0.00     0.041 A 
ENDROOT
BRANCH   3   6
ATOM      6  C   UNL d   1      31.013  16.718 -24.536  0.00  0.00     0.041 A 
ATOM      7  C   UNL d   1      30.227  16.939 -24.543  0.00  0.00     0.102 A 
ATOM      8  C   UNL d   1      29.651  16.420 -24.823  0.00  0.00     0.025 A 
ATOM      9  C   UNL d   1      29.862  15.680 -25.097  0.00  0.00     0.002 A 
ATOM     10  C   UNL d   1      30.654  15.453 -25.092  0.00  0.00     0.000 A 
ATOM     11  C   UNL d   1      31.230  15.972 -24.811  0.00  0.00     0.004 A 
BRANCH   7  12
ATOM     12  O   UNL d   1      30.006  17.689 -24.266  0.00  0.00    -0.305 OA
BRANCH  12  13
ATOM     13  C   UNL d   1      29.243  17.964 -24.390  0.00  0.00     0.123 C 
ATOM     14  C   UNL d   1      28.845  18.370 -23.787  0.00  0.00     0.029 C 
ENDBRANCH  12  13
ENDBRANCH   7  12
ENDBRANCH   3   6
BRANCH   1  15
ATOM     15  S   UNL d   1      32.188  16.385 -23.253  0.00  0.00     0.266 S 
ATOM     16  O   UNL d   1      32.643  16.048 -23.872  0.00  0.00    -0.203 OA
ATOM     17  O   UNL d   1      31.751  16.677 -22.631  0.00  0.00    -0.203 OA
ATOM     18  C   UNL d   1      32.274  15.653 -22.834  0.00  0.00     0.165 C 
ENDBRANCH   1  15
BRANCH   4  19
ATOM     19  C   UNL d   1      32.650  19.077 -24.186  0.00  0.00     0.049 A 
ATOM     20  S   UNL d   1      32.621  19.647 -23.599  0.00  0.00    -0.085 SA
ATOM     21  C   UNL d   1      32.978  20.325 -23.909  0.00  0.00     0.035 A 
ATOM     22  C   UNL d   1      33.226  20.170 -24.685  0.00  0.00     0.007 A 
ATOM     23  C   UNL d   1      33.017  19.382 -24.856  0.00  0.00     0.009 A 
ENDBRANCH   4  19
TORSDOF 5
ENDMDL
MODEL 2
REMARK VINA RESULT:       2.6      3.764      5.281
REMARK  5 active torsions:
REMARK  status: ('A' for Active; 'I' for Inactive)
REMARK    1  A    between atoms: S_3  and  N_1 
REMARK    2  A    between atoms: C_7  and  C_4 
REMARK    3  A    between atoms: C_8  and  C_5 
REMARK    4  A    between atoms: O_17  and  C_12 
REMARK    5  A    between atoms: C_20  and  O_17 
ROOT
ATOM      1  N   UNL d   1      32.539  22.291 -21.666  0.00  0.00    -0.155 N 
ATOM      2  N   UNL d   1      32.442  22.910 -22.218  0.00  0.00    -0.155 NA
ATOM      3  C   UNL d   1      32.771  21.633 -22.071  0.00  0.00     0.098 A 
ATOM      4  C   UNL d   1      32.620  22.608 -22.954  0.00  0.00     0.110 A 
ATOM      5  C   UNL d   1      32.832  21.794 -22.879  0.00  0.00     0.041 A 
ENDROOT
BRANCH   3   6
ATOM      6  C   UNL d   1      32.928  20.897 -21.731  0.00  0.00     0.041 A 
ATOM      7  C   UNL d   1      33.008  20.234 -22.202  0.00  0.00     0.102 A 
ATOM      8  C   UNL d   1      33.165  19.499 -21.862  0.00  0.00     0.025 A 
ATOM      9  C   UNL d   1      33.240  19.427 -21.053  0.00  0.00     0.002 A 
ATOM     10  C   UNL d   1      33.160  20.093 -20.574  0.00  0.00     0.000 A 
ATOM     11  C   UNL d   1      33.003  20.828 -20.913  0.00  0.00     0.004 A 
BRANCH   7  12
ATOM     12  O   UNL d   1      32.933  20.301 -23.025  0.00  0.00    -0.305 OA
BRANCH  12  13
ATOM     13  C   UNL d   1      33.033  19.640 -23.501  0.00  0.00     0.123 C 
ATOM     14  C   UNL d   1      32.644  19.592 -24.231  0.00  0.00     0.029 C 
ENDBRANCH  12  13
ENDBRANCH   7  12
ENDBRANCH   3   6
BRANCH   1  15
ATOM     15  S   UNL d   1      32.418  22.360 -20.872  0.00  0.00     0.266 S 
ATOM     16  O   UNL d   1      31.663  22.004 -20.950  0.00  0.00    -0.203 OA
ATOM     17  O   UNL d   1      33.145  22.708 -20.757  0.00  0.00    -0.203 OA
ATOM     18  C   UNL d   1      32.268  22.421 -20.040  0.00  0.00     0.165 C 
ENDBRANCH   1  15
BRANCH   4  19
ATOM     19  C   UNL d   1      32.604  23.012 -23.678  0.00  0.00     0.049 A 
ATOM     20  S   UNL d   1      31.919  23.111 -24.116  0.00  0.00    -0.085 SA
ATOM     21  C   UNL d   1      32.131  23.536 -24.792  0.00  0.00     0.035 A 
ATOM     22  C   UNL d   1      32.944  23.697 -24.768  0.00  0.00     0.007 A 
ATOM     23  C   UNL d   1      33.238  23.364 -24.065  0.00  0.00     0.009 A 
ENDBRANCH   4  19
TORSDOF 5
ENDMDL
