MODEL 1
REMARK VINA RESULT:       2.8      0.000      0.000
REMARK  4 active torsions:
REMARK  status: ('A' for Active; 'I' for Inactive)
REMARK    1  A    between atoms: C_11  and  N_1 
REMARK    2  A    between atoms: S_7  and  C_2 
REMARK    3  A    between atoms: C_13  and  S_7 
REMARK    4  A    between atoms: C_8  and  C_13 
REMARK       I    between atoms: N_9  and  C_8 
ROOT
ATOM      1  N   UNL d   1      58.139  -0.183  31.204  0.00  0.00    -0.254 N 
ATOM      2  C   UNL d   1      57.655  -0.717  30.806  0.00  0.00     0.182 A 
ATOM      3  C   UNL d   1      57.891   0.147  31.919  0.00  0.00     0.274 A 
ATOM      4  C   UNL d   1      57.160  -0.060  32.231  0.00  0.00     0.104 A 
ATOM      5  N   UNL d   1      56.921  -0.923  31.122  0.00  0.00    -0.222 NA
ATOM      6  C   UNL d   1      56.675  -0.594  31.833  0.00  0.00     0.095 A 
ATOM      7  S   UNL d   1      56.770   0.171  32.918  0.00  0.00    -0.080 SA
ATOM      8  O   UNL d   1      58.376   0.682  32.317  0.00  0.00    -0.266 OA
ATOM      9  C   UNL d   1      55.986  -0.693  32.274  0.00  0.00     0.027 A 
ATOM     10  C   UNL d   1      56.043  -0.223  32.940  0.00  0.00     0.037 A 
ENDROOT
BRANCH   2  11
ATOM     11  S   UNL d   1      57.901  -1.053  30.084  0.00  0.00    -0.044 SA
BRANCH  11  12
ATOM     12  C   UNL d   1      57.957  -1.874  30.014  0.00  0.00     0.099 C 
BRANCH  12  13
ATOM     13  C   UNL d   1      58.092  -2.217  29.275  0.00  0.00     0.271 C 
ATOM     14  N   UNL d   1      58.545  -2.903  29.216  0.00  0.00    -0.272 N 
ATOM     15  C   UNL d   1      58.924  -3.358  29.790  0.00  0.00     0.083 A 
ATOM     16  C   UNL d   1      58.680  -3.246  28.482  0.00  0.00     0.083 A 
ATOM     17  C   UNL d   1      59.296  -3.987  29.395  0.00  0.00     0.021 A 
ATOM     18  C   UNL d   1      59.146  -3.917  28.596  0.00  0.00     0.021 A 
ATOM     19  O   UNL d   1      57.773  -1.873  28.596  0.00  0.00    -0.266 OA
ENDBRANCH  12  13
ENDBRANCH  11  12
ENDBRANCH   2  11
BRANCH   1  20
ATOM     20  C   UNL d   1      58.868   0.024  30.894  0.00  0.00     0.069 A 
ATOM     21  C   UNL d   1      59.563  -0.204  31.276  0.00  0.00     0.018 A 
ATOM     22  C   UNL d   1      60.294   0.007  30.960  0.00  0.00     0.002 A 
ATOM     23  C   UNL d   1      60.332   0.446  30.262  0.00  0.00     0.000 A 
ATOM     24  C   UNL d   1      59.638   0.674  29.881  0.00  0.00     0.002 A 
ATOM     25  C   UNL d   1      61.072   0.663  29.936  0.00  0.00     0.000 C 
ATOM     26  C   UNL d   1      58.904   0.463  30.197  0.00  0.00     0.018 A 
ENDBRANCH   1  20
TORSDOF 4
ENDMDL
MODEL 2
REMARK VINA RESULT:       4.9      8.261      9.042
REMARK  4 active torsions:
REMARK  status: ('A' for Active; 'I' for Inactive)
REMARK    1  A    between atoms: C_11  and  N_1 
REMARK    2  A    between atoms: S_7  and  C_2 
REMARK    3  A    between atoms: C_13  and  S_7 
REMARK    4  A    between atoms: C_8  and  C_13 
REMARK       I    between atoms: N_9  and  C_8 
ROOT
ATOM      1  N   UNL d   1      58.557  -9.420  30.444  0.00  0.00    -0.254 N 
ATOM      2  C   UNL d   1      58.671  -9.562  31.248  0.00  0.00     0.182 A 
ATOM      3  C   UNL d   1      57.793  -9.418  30.130  0.00  0.00     0.274 A 
ATOM      4  C   UNL d   1      57.149  -9.556  30.621  0.00  0.00     0.104 A 
ATOM      5  N   UNL d   1      58.022  -9.701  31.738  0.00  0.00    -0.222 NA
ATOM      6  C   UNL d   1      57.264  -9.698  31.425  0.00  0.00     0.095 A 
ATOM      7  S   UNL d   1      56.341  -9.588  30.472  0.00  0.00    -0.080 SA
ATOM      8  O   UNL d   1      57.678  -9.276  29.325  0.00  0.00    -0.266 OA
ATOM      9  C   UNL d   1      56.526  -9.817  31.772  0.00  0.00     0.027 A 
ATOM     10  C   UNL d   1      55.959  -9.750  31.188  0.00  0.00     0.037 A 
ENDROOT
BRANCH   2  11
ATOM     11  S   UNL d   1      59.440  -9.565  31.570  0.00  0.00    -0.044 SA
BRANCH  11  12
ATOM     12  C   UNL d   1      59.554  -9.817  32.348  0.00  0.00     0.099 C 
BRANCH  12  13
ATOM     13  C   UNL d   1      60.247  -9.615  32.750  0.00  0.00     0.271 C 
ATOM     14  N   UNL d   1      60.205  -9.233  33.479  0.00  0.00    -0.272 N 
ATOM     15  C   UNL d   1      59.558  -8.989  33.931  0.00  0.00     0.083 A 
ATOM     16  C   UNL d   1      60.892  -9.031  33.880  0.00  0.00     0.083 A 
ATOM     17  C   UNL d   1      59.863  -8.634  34.617  0.00  0.00     0.021 A 
ATOM     18  C   UNL d   1      60.677  -8.660  34.584  0.00  0.00     0.021 A 
ATOM     19  O   UNL d   1      60.982  -9.795  32.420  0.00  0.00    -0.266 OA
ENDBRANCH  12  13
ENDBRANCH  11  12
ENDBRANCH   2  11
BRANCH   1  20
ATOM     20  C   UNL d   1      59.196  -9.282  29.954  0.00  0.00     0.069 A 
ATOM     21  C   UNL d   1      59.830  -9.810  29.936  0.00  0.00     0.018 A 
ATOM     22  C   UNL d   1      60.472  -9.667  29.440  0.00  0.00     0.002 A 
ATOM     23  C   UNL d   1      60.483  -8.994  28.962  0.00  0.00     0.000 A 
ATOM     24  C   UNL d   1      59.850  -8.466  28.980  0.00  0.00     0.002 A 
ATOM     25  C   UNL d   1      61.133  -8.842  28.456  0.00  0.00     0.000 C 
ATOM     26  C   UNL d   1      59.206  -8.609  29.476  0.00  0.00     0.018 A 
ENDBRANCH   1  20
TORSDOF 4
ENDMDL
