MODEL 1
REMARK VINA RESULT:     -10.4      0.000      0.000
REMARK  4 active torsions:
REMARK  status: ('A' for Active; 'I' for Inactive)
REMARK    1  A    between atoms: C_6  and  N_2 
REMARK    2  A    between atoms: C_11  and  C_6 
REMARK    3  A    between atoms: C_10  and  C_11 
REMARK       I    between atoms: N_14  and  C_10 
REMARK    4  A    between atoms: C_16  and  N_14 
ROOT
ATOM      1  C   UNL d   1      51.314  34.112  52.446  0.00  0.00     0.082 C 
ENDROOT
BRANCH   1   2
ATOM      2  C   UNL d   1      50.625  34.366  52.361  0.00  0.00     0.281 C 
ATOM      3  N   UNL d   1      49.945  34.447  52.815  0.00  0.00    -0.208 NA
ATOM      4  O   UNL d   1      50.859  34.513  51.649  0.00  0.00    -0.265 OA
BRANCH   3   5
ATOM      5  C   UNL d   1      49.265  34.778  52.474  0.00  0.00     0.087 A 
ATOM      6  C   UNL d   1      48.852  35.359  52.881  0.00  0.00     0.046 A 
ATOM      7  C   UNL d   1      48.172  35.690  52.539  0.00  0.00     0.124 A 
ATOM      8  O   UNL d   1      47.760  36.272  52.946  0.00  0.00    -0.301 OA
ATOM      9  C   UNL d   1      47.911  35.445  51.807  0.00  0.00     0.123 A 
ATOM     10  C   UNL d   1      47.086  36.608  52.620  0.00  0.00     0.149 A 
ATOM     11  C   UNL d   1      46.829  36.353  51.879  0.00  0.00     0.149 A 
ATOM     12  O   UNL d   1      47.241  35.772  51.472  0.00  0.00    -0.301 OA
ATOM     13  C   UNL d   1      48.334  34.860  51.407  0.00  0.00     0.028 A 
ATOM     14  C   UNL d   1      49.008  34.524  51.732  0.00  0.00     0.021 A 
ENDBRANCH   3   5
ENDBRANCH   1   2
BRANCH   1  15
ATOM     15  C   UNL d   1      51.883  33.945  53.010  0.00  0.00     0.100 C 
BRANCH  15  16
ATOM     16  N   UNL d   1      52.444  33.377  53.123  0.00  0.00    -0.197 N 
ATOM     17  S   UNL d   1      53.002  32.749  53.194  0.00  0.00     0.274 S 
ATOM     18  C   UNL d   1      53.556  32.962  53.801  0.00  0.00     0.109 A 
ATOM     19  O   UNL d   1      53.682  32.259  53.457  0.00  0.00    -0.200 OA
ATOM     20  O   UNL d   1      52.958  32.060  52.715  0.00  0.00    -0.200 OA
ATOM     21  C   UNL d   1      53.337  33.716  54.099  0.00  0.00     0.069 A 
ATOM     22  C   UNL d   1      54.224  32.567  54.115  0.00  0.00     0.013 A 
ATOM     23  C   UNL d   1      53.785  34.079  54.712  0.00  0.00     0.005 A 
ATOM     24  C   UNL d   1      52.654  33.973  53.683  0.00  0.00     0.275 A 
ATOM     25  C   UNL d   1      54.449  33.677  55.017  0.00  0.00     0.000 A 
ATOM     26  C   UNL d   1      54.668  32.922  54.720  0.00  0.00     0.001 A 
ATOM     27  O   UNL d   1      52.253  34.554  53.716  0.00  0.00    -0.266 OA
ENDBRANCH  15  16
ENDBRANCH   1  15
TORSDOF 4
ENDMDL
MODEL 2
REMARK VINA RESULT:     -10.2      1.370      5.774
REMARK  4 active torsions:
REMARK  status: ('A' for Active; 'I' for Inactive)
REMARK    1  A    between atoms: C_6  and  N_2 
REMARK    2  A    between atoms: C_11  and  C_6 
REMARK    3  A    between atoms: C_10  and  C_11 
REMARK       I    between atoms: N_14  and  C_10 
REMARK    4  A    between atoms: C_16  and  N_14 
ROOT
ATOM      1  C   UNL d   1      50.501  34.430  52.282  0.00  0.00     0.082 C 
ENDROOT
BRANCH   1   2
ATOM      2  C   UNL d   1      51.062  34.077  52.609  0.00  0.00     0.281 C 
ATOM      3  N   UNL d   1      51.172  33.544  53.223  0.00  0.00    -0.208 NA
ATOM      4  O   UNL d   1      51.484  34.454  52.094  0.00  0.00    -0.265 OA
BRANCH   3   5
ATOM      5  C   UNL d   1      51.940  33.285  53.405  0.00  0.00     0.087 A 
ATOM      6  C   UNL d   1      52.367  33.672  53.990  0.00  0.00     0.046 A 
ATOM      7  C   UNL d   1      53.134  33.413  54.172  0.00  0.00     0.124 A 
ATOM      8  O   UNL d   1      53.561  33.800  54.756  0.00  0.00    -0.301 OA
ATOM      9  C   UNL d   1      53.466  32.782  53.777  0.00  0.00     0.123 A 
ATOM     10  C   UNL d   1      54.321  33.555  54.946  0.00  0.00     0.149 A 
ATOM     11  C   UNL d   1      54.649  32.915  54.543  0.00  0.00     0.149 A 
ATOM     12  O   UNL d   1      54.222  32.528  53.958  0.00  0.00    -0.301 OA
ATOM     13  C   UNL d   1      53.027  32.400  53.192  0.00  0.00     0.028 A 
ATOM     14  C   UNL d   1      52.268  32.645  53.002  0.00  0.00     0.021 A 
ENDBRANCH   3   5
ENDBRANCH   1   2
BRANCH   1  15
ATOM     15  C   UNL d   1      49.724  34.662  52.392  0.00  0.00     0.100 C 
BRANCH  15  16
ATOM     16  N   UNL d   1      49.068  34.745  51.931  0.00  0.00    -0.197 N 
ATOM     17  S   UNL d   1      48.408  34.790  51.408  0.00  0.00     0.274 S 
ATOM     18  C   UNL d   1      47.847  35.331  51.743  0.00  0.00     0.109 A 
ATOM     19  O   UNL d   1      47.636  35.008  51.051  0.00  0.00    -0.200 OA
ATOM     20  O   UNL d   1      48.378  34.348  50.694  0.00  0.00    -0.200 OA
ATOM     21  C   UNL d   1      48.162  35.615  52.468  0.00  0.00     0.069 A 
ATOM     22  C   UNL d   1      47.097  35.596  51.481  0.00  0.00     0.013 A 
ATOM     23  C   UNL d   1      47.729  36.165  52.935  0.00  0.00     0.005 A 
ATOM     24  C   UNL d   1      48.912  35.256  52.585  0.00  0.00     0.275 A 
ATOM     25  C   UNL d   1      46.983  36.423  52.664  0.00  0.00     0.000 A 
ATOM     26  C   UNL d   1      46.668  36.139  51.939  0.00  0.00     0.001 A 
ATOM     27  O   UNL d   1      49.400  35.301  53.095  0.00  0.00    -0.266 OA
ENDBRANCH  15  16
ENDBRANCH   1  15
TORSDOF 4
ENDMDL
MODEL 3
REMARK VINA RESULT:      -9.5      1.329      5.853
REMARK  4 active torsions:
REMARK  status: ('A' for Active; 'I' for Inactive)
REMARK    1  A    between atoms: C_6  and  N_2 
REMARK    2  A    between atoms: C_11  and  C_6 
REMARK    3  A    between atoms: C_10  and  C_11 
REMARK       I    between atoms: N_14  and  C_10 
REMARK    4  A    between atoms: C_16  and  N_14 
ROOT
ATOM      1  C   UNL d   1      50.419  34.546  52.366  0.00  0.00     0.082 C 
ENDROOT
BRANCH   1   2
ATOM      2  C   UNL d   1      50.976  34.158  52.658  0.00  0.00     0.281 C 
ATOM      3  N   UNL d   1      51.082  33.577  53.228  0.00  0.00    -0.208 NA
ATOM      4  O   UNL d   1      51.400  34.566  52.170  0.00  0.00    -0.265 OA
BRANCH   3   5
ATOM      5  C   UNL d   1      51.846  33.290  53.381  0.00  0.00     0.087 A 
ATOM      6  C   UNL d   1      52.297  33.639  53.971  0.00  0.00     0.046 A 
ATOM      7  C   UNL d   1      53.060  33.352  54.123  0.00  0.00     0.124 A 
ATOM      8  O   UNL d   1      53.511  33.701  54.713  0.00  0.00    -0.301 OA
ATOM      9  C   UNL d   1      53.365  32.729  53.694  0.00  0.00     0.123 A 
ATOM     10  C   UNL d   1      54.267  33.428  54.875  0.00  0.00     0.149 A 
ATOM     11  C   UNL d   1      54.568  32.798  54.436  0.00  0.00     0.149 A 
ATOM     12  O   UNL d   1      54.117  32.448  53.846  0.00  0.00    -0.301 OA
ATOM     13  C   UNL d   1      52.903  32.386  53.103  0.00  0.00     0.028 A 
ATOM     14  C   UNL d   1      52.147  32.660  52.942  0.00  0.00     0.021 A 
ENDBRANCH   3   5
ENDBRANCH   1   2
BRANCH   1  15
ATOM     15  C   UNL d   1      49.606  34.640  52.392  0.00  0.00     0.100 C 
BRANCH  15  16
ATOM     16  N   UNL d   1      49.090  35.178  52.699  0.00  0.00    -0.197 N 
ATOM     17  S   UNL d   1      48.591  35.748  53.069  0.00  0.00     0.274 S 
ATOM     18  C   UNL d   1      47.901  35.843  52.584  0.00  0.00     0.109 A 
ATOM     19  O   UNL d   1      47.920  36.288  53.239  0.00  0.00    -0.200 OA
ATOM     20  O   UNL d   1      48.803  36.120  53.792  0.00  0.00    -0.200 OA
ATOM     21  C   UNL d   1      47.978  35.332  51.921  0.00  0.00     0.069 A 
ATOM     22  C   UNL d   1      47.221  36.325  52.664  0.00  0.00     0.013 A 
ATOM     23  C   UNL d   1      47.374  35.302  51.335  0.00  0.00     0.005 A 
ATOM     24  C   UNL d   1      48.707  34.923  51.990  0.00  0.00     0.275 A 
ATOM     25  C   UNL d   1      46.701  35.786  51.424  0.00  0.00     0.000 A 
ATOM     26  C   UNL d   1      46.625  36.296  52.087  0.00  0.00     0.001 A 
ATOM     27  O   UNL d   1      49.035  34.440  51.592  0.00  0.00    -0.266 OA
ENDBRANCH  15  16
ENDBRANCH   1  15
TORSDOF 4
ENDMDL
MODEL 4
REMARK VINA RESULT:      -8.2      1.521      5.871
REMARK  4 active torsions:
REMARK  status: ('A' for Active; 'I' for Inactive)
REMARK    1  A    between atoms: C_6  and  N_2 
REMARK    2  A    between atoms: C_11  and  C_6 
REMARK    3  A    between atoms: C_10  and  C_11 
REMARK       I    between atoms: N_14  and  C_10 
REMARK    4  A    between atoms: C_16  and  N_14 
ROOT
ATOM      1  C   UNL d   1      50.902  34.452  53.172  0.00  0.00     0.082 C 
ENDROOT
BRANCH   1   2
ATOM      2  C   UNL d   1      51.408  33.913  53.191  0.00  0.00     0.281 C 
ATOM      3  N   UNL d   1      51.822  33.448  52.656  0.00  0.00    -0.208 NA
ATOM      4  O   UNL d   1      51.352  34.006  53.948  0.00  0.00    -0.265 OA
BRANCH   3   5
ATOM      5  C   UNL d   1      52.362  32.885  52.940  0.00  0.00     0.087 A 
ATOM      6  C   UNL d   1      52.217  32.087  52.812  0.00  0.00     0.046 A 
ATOM      7  C   UNL d   1      52.757  31.524  53.096  0.00  0.00     0.124 A 
ATOM      8  O   UNL d   1      52.611  30.727  52.968  0.00  0.00    -0.301 OA
ATOM      9  C   UNL d   1      53.427  31.756  53.498  0.00  0.00     0.123 A 
ATOM     10  C   UNL d   1      53.136  30.160  53.243  0.00  0.00     0.149 A 
ATOM     11  C   UNL d   1      53.812  30.402  53.649  0.00  0.00     0.149 A 
ATOM     12  O   UNL d   1      53.958  31.200  53.777  0.00  0.00    -0.301 OA
ATOM     13  C   UNL d   1      53.563  32.560  53.621  0.00  0.00     0.028 A 
ATOM     14  C   UNL d   1      53.038  33.127  53.346  0.00  0.00     0.021 A 
ENDBRANCH   3   5
ENDBRANCH   1   2
BRANCH   1  15
ATOM     15  C   UNL d   1      50.147  34.629  52.910  0.00  0.00     0.100 C 
BRANCH  15  16
ATOM     16  N   UNL d   1      49.571  35.159  53.103  0.00  0.00    -0.197 N 
ATOM     17  S   UNL d   1      49.001  35.725  53.359  0.00  0.00     0.274 S 
ATOM     18  C   UNL d   1      48.392  35.765  52.770  0.00  0.00     0.109 A 
ATOM     19  O   UNL d   1      48.293  36.243  53.394  0.00  0.00    -0.200 OA
ATOM     20  O   UNL d   1      49.085  36.142  54.084  0.00  0.00    -0.200 OA
ATOM     21  C   UNL d   1      48.588  35.225  52.157  0.00  0.00     0.069 A 
ATOM     22  C   UNL d   1      47.691  36.221  52.717  0.00  0.00     0.013 A 
ATOM     23  C   UNL d   1      48.085  35.139  51.488  0.00  0.00     0.005 A 
ATOM     24  C   UNL d   1      49.312  34.852  52.360  0.00  0.00     0.275 A 
ATOM     25  C   UNL d   1      47.390  35.598  51.445  0.00  0.00     0.000 A 
ATOM     26  C   UNL d   1      47.193  36.137  52.058  0.00  0.00     0.001 A 
ATOM     27  O   UNL d   1      49.714  34.364  52.044  0.00  0.00    -0.266 OA
ENDBRANCH  15  16
ENDBRANCH   1  15
TORSDOF 4
ENDMDL
MODEL 5
REMARK VINA RESULT:      -7.8      9.761     10.888
REMARK  4 active torsions:
REMARK  status: ('A' for Active; 'I' for Inactive)
REMARK    1  A    between atoms: C_6  and  N_2 
REMARK    2  A    between atoms: C_11  and  C_6 
REMARK    3  A    between atoms: C_10  and  C_11 
REMARK       I    between atoms: N_14  and  C_10 
REMARK    4  A    between atoms: C_16  and  N_14 
ROOT
ATOM      1  C   UNL d   1      45.222  27.947  56.714  0.00  0.00     0.082 C 
ENDROOT
BRANCH   1   2
ATOM      2  C   UNL d   1      45.061  27.226  56.687  0.00  0.00     0.281 C 
ATOM      3  N   UNL d   1      44.399  26.753  56.578  0.00  0.00    -0.208 NA
ATOM      4  O   UNL d   1      45.811  27.143  56.811  0.00  0.00    -0.265 OA
BRANCH   3   5
ATOM      5  C   UNL d   1      44.481  25.927  56.591  0.00  0.00     0.087 A 
ATOM      6  C   UNL d   1      44.686  25.532  55.902  0.00  0.00     0.046 A 
ATOM      7  C   UNL d   1      44.768  24.706  55.916  0.00  0.00     0.124 A 
ATOM      8  O   UNL d   1      44.973  24.311  55.226  0.00  0.00    -0.301 OA
ATOM      9  C   UNL d   1      44.649  24.287  56.604  0.00  0.00     0.123 A 
ATOM     10  C   UNL d   1      45.058  23.495  55.225  0.00  0.00     0.149 A 
ATOM     11  C   UNL d   1      44.935  23.078  55.926  0.00  0.00     0.149 A 
ATOM     12  O   UNL d   1      44.730  23.473  56.616  0.00  0.00    -0.301 OA
ATOM     13  C   UNL d   1      44.443  24.695  57.291  0.00  0.00     0.028 A 
ATOM     14  C   UNL d   1      44.358  25.510  57.292  0.00  0.00     0.021 A 
ENDBRANCH   3   5
ENDBRANCH   1   2
BRANCH   1  15
ATOM     15  C   UNL d   1      44.902  28.681  56.884  0.00  0.00     0.100 C 
BRANCH  15  16
ATOM     16  N   UNL d   1      44.746  29.359  56.475  0.00  0.00    -0.197 N 
ATOM     17  S   UNL d   1      44.581  30.031  55.995  0.00  0.00     0.274 S 
ATOM     18  C   UNL d   1      44.542  30.710  56.503  0.00  0.00     0.109 A 
ATOM     19  O   UNL d   1      44.421  30.854  55.733  0.00  0.00    -0.200 OA
ATOM     20  O   UNL d   1      44.484  29.968  55.162  0.00  0.00    -0.200 OA
ATOM     21  C   UNL d   1      44.682  30.453  57.290  0.00  0.00     0.069 A 
ATOM     22  C   UNL d   1      44.398  31.520  56.347  0.00  0.00     0.013 A 
ATOM     23  C   UNL d   1      44.679  31.005  57.925  0.00  0.00     0.005 A 
ATOM     24  C   UNL d   1      44.808  29.623  57.275  0.00  0.00     0.275 A 
ATOM     25  C   UNL d   1      44.535  31.809  57.759  0.00  0.00     0.000 A 
ATOM     26  C   UNL d   1      44.394  32.066  56.972  0.00  0.00     0.001 A 
ATOM     27  O   UNL d   1      44.946  29.142  57.774  0.00  0.00    -0.266 OA
ENDBRANCH  15  16
ENDBRANCH   1  15
TORSDOF 4
ENDMDL
