MODEL 1
REMARK VINA RESULT:      95.3      0.000      0.000
REMARK  1 active torsions:
REMARK  status: ('A' for Active; 'I' for Inactive)
REMARK    1  A    between atoms: C_12  and  N_1 
ROOT
ATOM      1  N   UNL d   1     -58.271 -98.963 -46.373  0.00  0.00    -0.244 N 
ATOM      2  C   UNL d   1     -57.479 -98.981 -46.237  0.00  0.00     0.251 A 
ATOM      3  C   UNL d   1     -58.591 -98.923 -45.607  0.00  0.00     0.260 A 
ATOM      4  C   UNL d   1     -58.012 -98.919 -45.058  0.00  0.00     0.033 A 
ATOM      5  C   UNL d   1     -57.316 -98.955 -45.450  0.00  0.00     0.125 A 
ATOM      6  C   UNL d   1     -56.781 -98.877 -43.051  0.00  0.00     0.068 A 
ATOM      7  C   UNL d   1     -57.305 -98.923 -44.619  0.00  0.00    -0.010 A 
ATOM      8  C   UNL d   1     -57.851 -98.882 -44.020  0.00  0.00    -0.007 A 
ATOM      9  C   UNL d   1     -57.586 -98.860 -43.239  0.00  0.00    -0.015 A 
ATOM     10  C   UNL d   1     -56.253 -98.917 -43.683  0.00  0.00    -0.015 A 
ATOM     11  C   UNL d   1     -56.511 -98.940 -44.462  0.00  0.00    -0.007 A 
ATOM     12  O   UNL d   1     -57.061 -99.014 -46.745  0.00  0.00    -0.271 OA
ATOM     13  O   UNL d   1     -59.285 -98.900 -45.555  0.00  0.00    -0.267 OA
ATOM     14  C   UNL d   1     -55.967 -98.981 -45.076  0.00  0.00    -0.001 A 
ATOM     15  C   UNL d   1     -58.649 -98.865 -44.189  0.00  0.00    -0.001 A 
ATOM     16  C   UNL d   1     -58.140 -98.818 -42.609  0.00  0.00    -0.004 A 
ATOM     17  C   UNL d   1     -55.450 -98.935 -43.516  0.00  0.00    -0.004 A 
ATOM     18  C   UNL d   1     -55.158 -98.998 -44.896  0.00  0.00    -0.000 A 
ATOM     19  C   UNL d   1     -59.208 -98.823 -43.552  0.00  0.00    -0.000 A 
ATOM     20  C   UNL d   1     -58.942 -98.800 -42.768  0.00  0.00    -0.000 A 
ATOM     21  C   UNL d   1     -54.909 -98.976 -44.132  0.00  0.00    -0.000 A 
ENDROOT
BRANCH   1  22
ATOM     22  C   UNL d   1     -58.669 -98.981 -47.138  0.00  0.00     0.089 A 
ATOM     23  C   UNL d   1     -59.532 -99.030 -47.170  0.00  0.00     0.117 A 
ATOM     24  N   UNL d   1     -59.940 -99.048 -47.941  0.00  0.00    -0.241 NA
ATOM     25  C   UNL d   1     -59.478 -99.018 -48.687  0.00  0.00     0.099 A 
ATOM     26  C   UNL d   1     -58.615 -98.969 -48.647  0.00  0.00     0.022 A 
ATOM     27  C   UNL d   1     -58.209 -98.950 -47.869  0.00  0.00     0.021 A 
ENDBRANCH   1  22
TORSDOF 1
ENDMDL
