MODEL 1
REMARK VINA RESULT:      -5.2      0.000      0.000
REMARK  3 active torsions:
REMARK  status: ('A' for Active; 'I' for Inactive)
REMARK    1  A    between atoms: C_5  and  C_1 
REMARK       I    between atoms: N_7  and  C_5 
REMARK    2  A    between atoms: C_15  and  N_10 
REMARK    3  A    between atoms: C_21  and  C_15 
ROOT
ATOM      1  C   UNL d   1      58.441   0.100  29.319  0.00  0.00     0.270 C 
ATOM      2  N   UNL d   1      58.132   0.221  30.096  0.00  0.00    -0.270 N 
ATOM      3  N   UNL d   1      57.530   0.456  31.639  0.00  0.00    -0.300 N 
ATOM      4  O   UNL d   1      57.997   0.319  28.693  0.00  0.00    -0.269 OA
ATOM      5  C   UNL d   1      57.372   0.566  30.206  0.00  0.00     0.102 A 
ATOM      6  C   UNL d   1      58.598  -0.010  30.747  0.00  0.00     0.102 A 
ATOM      7  C   UNL d   1      57.078   0.681  30.968  0.00  0.00     0.100 A 
ATOM      8  C   UNL d   1      58.290   0.111  31.529  0.00  0.00     0.100 A 
ENDROOT
BRANCH   1   9
ATOM      9  C   UNL d   1      59.155  -0.225  29.215  0.00  0.00     0.191 A 
ATOM     10  O   UNL d   1      59.483   0.477  29.284  0.00  0.00    -0.293 OA
ATOM     11  C   UNL d   1      60.197   0.153  29.180  0.00  0.00     0.275 A 
ATOM     12  O   UNL d   1      60.956   0.422  29.153  0.00  0.00    -0.264 OA
ATOM     13  C   UNL d   1      59.878  -0.568  29.108  0.00  0.00     0.099 A 
ATOM     14  C   UNL d   1      60.139  -1.314  28.985  0.00  0.00     0.047 A 
ATOM     15  C   UNL d   1      60.646  -0.708  29.025  0.00  0.00     0.014 C 
ATOM     16  C   UNL d   1      59.216  -1.016  29.102  0.00  0.00    -0.019 A 
ATOM     17  C   UNL d   1      60.915  -1.444  28.902  0.00  0.00     0.004 C 
ATOM     18  C   UNL d   1      59.804  -2.028  28.915  0.00  0.00     0.004 C 
ATOM     19  C   UNL d   1      58.506  -0.684  29.207  0.00  0.00     0.006 A 
ENDBRANCH   1   9
BRANCH   3  20
ATOM     20  C   UNL d   1      57.231   0.573  32.423  0.00  0.00     0.080 C 
BRANCH  20  21
ATOM     21  C   UNL d   1      56.586   0.111  32.702  0.00  0.00     0.018 A 
ATOM     22  C   UNL d   1      55.897   0.487  32.997  0.00  0.00     0.002 A 
ATOM     23  C   UNL d   1      55.242   0.032  33.280  0.00  0.00     0.000 A 
ATOM     24  C   UNL d   1      55.300  -0.812  33.258  0.00  0.00     0.000 A 
ATOM     25  C   UNL d   1      55.991  -1.190  32.961  0.00  0.00     0.000 A 
ATOM     26  C   UNL d   1      56.633  -0.727  32.684  0.00  0.00     0.002 A 
ENDBRANCH  20  21
ENDBRANCH   3  20
TORSDOF 3
ENDMDL
MODEL 2
REMARK VINA RESULT:      -5.1      0.800      1.150
REMARK  3 active torsions:
REMARK  status: ('A' for Active; 'I' for Inactive)
REMARK    1  A    between atoms: C_5  and  C_1 
REMARK       I    between atoms: N_7  and  C_5 
REMARK    2  A    between atoms: C_15  and  N_10 
REMARK    3  A    between atoms: C_21  and  C_15 
ROOT
ATOM      1  C   UNL d   1      58.371  -0.280  29.177  0.00  0.00     0.270 C 
ATOM      2  N   UNL d   1      58.106  -0.093  29.957  0.00  0.00    -0.270 N 
ATOM      3  N   UNL d   1      57.588   0.271  31.506  0.00  0.00    -0.300 N 
ATOM      4  O   UNL d   1      58.059   0.119  28.561  0.00  0.00    -0.269 OA
ATOM      5  C   UNL d   1      57.525   0.504  30.080  0.00  0.00     0.102 A 
ATOM      6  C   UNL d   1      58.435  -0.512  30.598  0.00  0.00     0.102 A 
ATOM      7  C   UNL d   1      57.271   0.681  30.844  0.00  0.00     0.100 A 
ATOM      8  C   UNL d   1      58.170  -0.325  31.383  0.00  0.00     0.100 A 
ENDROOT
BRANCH   1   9
ATOM      9  C   UNL d   1      58.918  -0.840  29.061  0.00  0.00     0.191 A 
ATOM     10  O   UNL d   1      58.365  -1.387  29.097  0.00  0.00    -0.293 OA
ATOM     11  C   UNL d   1      58.911  -1.947  28.981  0.00  0.00     0.275 A 
ATOM     12  O   UNL d   1      58.912  -2.750  28.922  0.00  0.00    -0.264 OA
ATOM     13  C   UNL d   1      59.485  -1.403  28.943  0.00  0.00     0.099 A 
ATOM     14  C   UNL d   1      60.278  -1.394  28.835  0.00  0.00     0.047 A 
ATOM     15  C   UNL d   1      59.875  -2.076  28.840  0.00  0.00     0.014 C 
ATOM     16  C   UNL d   1      59.686  -0.630  28.972  0.00  0.00    -0.019 A 
ATOM     17  C   UNL d   1      60.661  -2.079  28.732  0.00  0.00     0.004 C 
ATOM     18  C   UNL d   1      60.840  -0.839  28.800  0.00  0.00     0.004 C 
ATOM     19  C   UNL d   1      59.134  -0.076  29.088  0.00  0.00     0.006 A 
ENDBRANCH   1   9
BRANCH   3  20
ATOM     20  C   UNL d   1      57.330   0.451  32.292  0.00  0.00     0.080 C 
BRANCH  20  21
ATOM     21  C   UNL d   1      56.640   0.085  32.604  0.00  0.00     0.018 A 
ATOM     22  C   UNL d   1      56.014   0.555  32.902  0.00  0.00     0.002 A 
ATOM     23  C   UNL d   1      55.315   0.197  33.219  0.00  0.00     0.000 A 
ATOM     24  C   UNL d   1      55.265  -0.648  33.227  0.00  0.00     0.000 A 
ATOM     25  C   UNL d   1      55.894  -1.121  32.928  0.00  0.00     0.000 A 
ATOM     26  C   UNL d   1      56.580  -0.753  32.617  0.00  0.00     0.002 A 
ENDBRANCH  20  21
ENDBRANCH   3  20
TORSDOF 3
ENDMDL
MODEL 3
REMARK VINA RESULT:      -3.0      0.956      1.320
REMARK  3 active torsions:
REMARK  status: ('A' for Active; 'I' for Inactive)
REMARK    1  A    between atoms: C_5  and  C_1 
REMARK       I    between atoms: N_7  and  C_5 
REMARK    2  A    between atoms: C_15  and  N_10 
REMARK    3  A    between atoms: C_21  and  C_15 
ROOT
ATOM      1  C   UNL d   1      57.807   0.200  29.952  0.00  0.00     0.270 C 
ATOM      2  N   UNL d   1      57.544   0.282  30.751  0.00  0.00    -0.270 N 
ATOM      3  N   UNL d   1      57.034   0.439  32.337  0.00  0.00    -0.300 N 
ATOM      4  O   UNL d   1      57.319   0.430  29.365  0.00  0.00    -0.269 OA
ATOM      5  C   UNL d   1      56.783   0.599  30.922  0.00  0.00     0.102 A 
ATOM      6  C   UNL d   1      58.057   0.041  31.362  0.00  0.00     0.102 A 
ATOM      7  C   UNL d   1      56.535   0.675  31.704  0.00  0.00     0.100 A 
ATOM      8  C   UNL d   1      57.795   0.122  32.166  0.00  0.00     0.100 A 
ENDROOT
BRANCH   1   9
ATOM      9  C   UNL d   1      58.522  -0.097  29.792  0.00  0.00     0.191 A 
ATOM     10  O   UNL d   1      58.205  -0.800  29.684  0.00  0.00    -0.293 OA
ATOM     11  C   UNL d   1      58.920  -1.098  29.523  0.00  0.00     0.275 A 
ATOM     12  O   UNL d   1      59.214  -1.822  29.328  0.00  0.00    -0.264 OA
ATOM     13  C   UNL d   1      59.257  -0.390  29.630  0.00  0.00     0.099 A 
ATOM     14  C   UNL d   1      59.995  -0.081  29.596  0.00  0.00     0.047 A 
ATOM     15  C   UNL d   1      59.867  -0.849  29.449  0.00  0.00     0.014 C 
ATOM     16  C   UNL d   1      59.163   0.384  29.808  0.00  0.00    -0.019 A 
ATOM     17  C   UNL d   1      60.603  -0.553  29.413  0.00  0.00     0.004 C 
ATOM     18  C   UNL d   1      60.317   0.633  29.706  0.00  0.00     0.004 C 
ATOM     19  C   UNL d   1      58.444   0.674  29.967  0.00  0.00     0.006 A 
ENDBRANCH   1   9
BRANCH   3  20
ATOM     20  C   UNL d   1      56.781   0.516  33.141  0.00  0.00     0.080 C 
BRANCH  20  21
ATOM     21  C   UNL d   1      56.049   0.184  33.388  0.00  0.00     0.018 A 
ATOM     22  C   UNL d   1      55.433   0.682  33.663  0.00  0.00     0.002 A 
ATOM     23  C   UNL d   1      54.692   0.358  33.913  0.00  0.00     0.000 A 
ATOM     24  C   UNL d   1      54.588  -0.481  33.879  0.00  0.00     0.000 A 
ATOM     25  C   UNL d   1      55.207  -0.982  33.603  0.00  0.00     0.000 A 
ATOM     26  C   UNL d   1      55.935  -0.648  33.358  0.00  0.00     0.002 A 
ENDBRANCH  20  21
ENDBRANCH   3  20
TORSDOF 3
ENDMDL
