MODEL 1
REMARK VINA RESULT:       6.3      0.000      0.000
REMARK  5 active torsions:
REMARK  status: ('A' for Active; 'I' for Inactive)
REMARK    1  A    between atoms: C_9  and  N_1 
REMARK    2  A    between atoms: C_6  and  C_2 
REMARK    3  A    between atoms: O_10  and  C_6 
REMARK    4  A    between atoms: C_13  and  C_9 
REMARK    5  A    between atoms: C_19  and  O_10 
ROOT
ATOM      1  N   UNL d   1     -41.327-122.569 -51.595  0.00  0.00    -0.271 N 
ATOM      2  C   UNL d   1     -41.496-122.429 -52.905  0.00  0.00     0.120 A 
ATOM      3  C   UNL d   1     -41.441-122.985 -52.298  0.00  0.00     0.177 A 
ATOM      4  C   UNL d   1     -41.310-121.763 -51.769  0.00  0.00     0.167 A 
ATOM      5  C   UNL d   1     -41.414-121.677 -52.574  0.00  0.00     0.124 A 
ATOM      6  N   UNL d   1     -41.213-121.100 -51.288  0.00  0.00    -0.225 NA
ATOM      7  N   UNL d   1     -41.422-120.926 -52.912  0.00  0.00    -0.241 NA
ATOM      8  C   UNL d   1     -41.220-120.351 -51.618  0.00  0.00     0.101 A 
ATOM      9  C   UNL d   1     -41.325-120.267 -52.432  0.00  0.00     0.099 A 
ATOM     10  N   UNL d   1     -41.492-123.807 -52.374  0.00  0.00    -0.128 N 
ATOM     11  C   UNL d   1     -41.123-119.695 -51.135  0.00  0.00     0.021 A 
ATOM     12  C   UNL d   1     -41.331-119.505 -52.760  0.00  0.00     0.021 A 
ATOM     13  C   UNL d   1     -41.131-118.935 -51.472  0.00  0.00     0.002 A 
ATOM     14  C   UNL d   1     -41.234-118.853 -52.277  0.00  0.00     0.002 A 
ENDROOT
BRANCH   2  15
ATOM     15  C   UNL d   1     -41.612-122.602 -53.712  0.00  0.00     0.300 C 
ATOM     16  O   UNL d   1     -41.177-123.188 -54.070  0.00  0.00    -0.259 OA
BRANCH  15  17
ATOM     17  O   UNL d   1     -42.176-122.171 -54.146  0.00  0.00    -0.303 OA
BRANCH  17  18
ATOM     18  C   UNL d   1     -42.348-122.398 -54.919  0.00  0.00     0.102 C 
ATOM     19  C   UNL d   1     -42.896-122.958 -54.637  0.00  0.00     0.030 C 
ATOM     20  C   UNL d   1     -41.804-121.844 -55.207  0.00  0.00     0.030 C 
ATOM     21  C   UNL d   1     -42.519-122.625 -55.701  0.00  0.00     0.030 C 
ENDBRANCH  17  18
ENDBRANCH  15  17
ENDBRANCH   2  15
BRANCH   1  22
ATOM     22  C   UNL d   1     -41.243-122.904 -50.847  0.00  0.00     0.108 C 
BRANCH  22  23
ATOM     23  C   UNL d   1     -41.916-123.111 -50.409  0.00  0.00     0.118 A 
ATOM     24  O   UNL d   1     -42.616-122.677 -50.366  0.00  0.00    -0.304 OA
ATOM     25  C   UNL d   1     -43.137-123.090 -49.868  0.00  0.00     0.123 A 
ATOM     26  C   UNL d   1     -42.750-123.766 -49.615  0.00  0.00     0.029 A 
ATOM     27  C   UNL d   1     -42.001-123.783 -49.944  0.00  0.00     0.028 A 
ENDBRANCH  22  23
ENDBRANCH   1  22
TORSDOF 5
ENDMDL
MODEL 2
REMARK VINA RESULT:       6.9      0.684      3.404
REMARK  5 active torsions:
REMARK  status: ('A' for Active; 'I' for Inactive)
REMARK    1  A    between atoms: C_9  and  N_1 
REMARK    2  A    between atoms: C_6  and  C_2 
REMARK    3  A    between atoms: O_10  and  C_6 
REMARK    4  A    between atoms: C_13  and  C_9 
REMARK    5  A    between atoms: C_19  and  O_10 
ROOT
ATOM      1  N   UNL d   1     -41.238-122.420 -53.063  0.00  0.00    -0.271 N 
ATOM      2  C   UNL d   1     -41.337-122.614 -51.752  0.00  0.00     0.120 A 
ATOM      3  C   UNL d   1     -41.304-123.000 -52.480  0.00  0.00     0.177 A 
ATOM      4  C   UNL d   1     -41.229-121.682 -52.695  0.00  0.00     0.167 A 
ATOM      5  C   UNL d   1     -41.290-121.801 -51.889  0.00  0.00     0.124 A 
ATOM      6  N   UNL d   1     -41.173-120.918 -53.000  0.00  0.00    -0.225 NA
ATOM      7  N   UNL d   1     -41.296-121.157 -51.376  0.00  0.00    -0.241 NA
ATOM      8  C   UNL d   1     -41.179-120.274 -52.495  0.00  0.00     0.101 A 
ATOM      9  C   UNL d   1     -41.240-120.397 -51.682  0.00  0.00     0.099 A 
ATOM     10  N   UNL d   1     -41.333-123.817 -52.608  0.00  0.00    -0.128 N 
ATOM     11  C   UNL d   1     -41.123-119.516 -52.804  0.00  0.00     0.021 A 
ATOM     12  C   UNL d   1     -41.245-119.740 -51.174  0.00  0.00     0.021 A 
ATOM     13  C   UNL d   1     -41.128-118.864 -52.289  0.00  0.00     0.002 A 
ATOM     14  C   UNL d   1     -41.189-118.986 -51.485  0.00  0.00     0.002 A 
ENDROOT
BRANCH   2  15
ATOM     15  C   UNL d   1     -41.405-122.984 -51.009  0.00  0.00     0.300 C 
ATOM     16  O   UNL d   1     -41.175-123.759 -50.917  0.00  0.00    -0.259 OA
BRANCH  15  17
ATOM     17  O   UNL d   1     -41.710-122.556 -50.364  0.00  0.00    -0.303 OA
BRANCH  17  18
ATOM     18  C   UNL d   1     -41.948-122.962 -49.688  0.00  0.00     0.102 C 
ATOM     19  C   UNL d   1     -41.165-122.957 -49.404  0.00  0.00     0.030 C 
ATOM     20  C   UNL d   1     -42.729-122.972 -49.964  0.00  0.00     0.030 C 
ATOM     21  C   UNL d   1     -42.192-123.373 -49.006  0.00  0.00     0.030 C 
ENDBRANCH  17  18
ENDBRANCH  15  17
ENDBRANCH   2  15
BRANCH   1  22
ATOM     22  C   UNL d   1     -41.188-122.557 -53.873  0.00  0.00     0.108 C 
BRANCH  22  23
ATOM     23  C   UNL d   1     -41.868-122.502 -54.345  0.00  0.00     0.118 A 
ATOM     24  O   UNL d   1     -42.578-122.902 -54.214  0.00  0.00    -0.304 OA
ATOM     25  C   UNL d   1     -43.103-122.684 -54.819  0.00  0.00     0.123 A 
ATOM     26  C   UNL d   1     -42.710-122.156 -55.307  0.00  0.00     0.029 A 
ATOM     27  C   UNL d   1     -41.952-122.042 -55.020  0.00  0.00     0.028 A 
ENDBRANCH  22  23
ENDBRANCH   1  22
TORSDOF 5
ENDMDL
