MODEL 1
REMARK VINA RESULT:       1.9      0.000      0.000
REMARK  4 active torsions:
REMARK  status: ('A' for Active; 'I' for Inactive)
REMARK    1  A    between atoms: C_7  and  C_1 
REMARK    2  A    between atoms: N_5  and  C_2 
REMARK    3  A    between atoms: C_12  and  N_5 
REMARK    4  A    between atoms: O_21  and  C_14 
ROOT
ATOM      1  C   UNL d   1     -41.542-120.998 -51.600  0.00  0.00     0.101 A 
ATOM      2  C   UNL d   1     -41.470-121.717 -52.023  0.00  0.00     0.187 A 
ATOM      3  C   UNL d   1     -41.891-121.005 -50.853  0.00  0.00     0.010 A 
ATOM      4  O   UNL d   1     -41.748-122.419 -51.685  0.00  0.00    -0.289 OA
ATOM      5  C   UNL d   1     -42.096-122.419 -50.937  0.00  0.00     0.104 A 
ATOM      6  C   UNL d   1     -42.168-121.700 -50.514  0.00  0.00     0.023 A 
ATOM      7  C   UNL d   1     -42.374-123.121 -50.598  0.00  0.00     0.049 A 
ATOM      8  C   UNL d   1     -42.517-121.707 -49.767  0.00  0.00     0.004 A 
ATOM      9  C   UNL d   1     -42.723-123.122 -49.848  0.00  0.00     0.096 A 
ATOM     10  C   UNL d   1     -42.796-122.404 -49.425  0.00  0.00     0.024 A 
ENDROOT
BRANCH   2  11
ATOM     11  N   UNL d   1     -41.123-121.719 -52.769  0.00  0.00    -0.222 NA
BRANCH  11  12
ATOM     12  C   UNL d   1     -41.443-122.199 -53.374  0.00  0.00     0.084 A 
ATOM     13  C   UNL d   1     -41.152-122.961 -53.492  0.00  0.00     0.019 A 
ATOM     14  C   UNL d   1     -41.469-123.437 -54.091  0.00  0.00     0.002 A 
ATOM     15  C   UNL d   1     -42.070-123.140 -54.559  0.00  0.00     0.000 A 
ATOM     16  C   UNL d   1     -42.364-122.388 -54.450  0.00  0.00     0.002 A 
ATOM     17  C   UNL d   1     -42.397-123.600 -55.160  0.00  0.00     0.000 C 
ATOM     18  C   UNL d   1     -42.048-121.912 -53.851  0.00  0.00     0.019 A 
ENDBRANCH  11  12
ENDBRANCH   2  11
BRANCH   1  19
ATOM     19  C   UNL d   1     -41.268-120.289 -51.928  0.00  0.00     0.300 C 
ATOM     20  O   UNL d   1     -41.142-120.225 -52.735  0.00  0.00    -0.264 OA
ATOM     21  N   UNL d   1     -41.123-119.647 -51.429  0.00  0.00    -0.102 N 
ENDBRANCH   1  19
BRANCH   9  22
ATOM     22  O   UNL d   1     -42.998-123.812 -49.513  0.00  0.00    -0.328 OA
ATOM     23  C   UNL d   1     -43.455-123.774 -48.827  0.00  0.00     0.181 C 
ENDBRANCH   9  22
TORSDOF 4
ENDMDL
MODEL 2
REMARK VINA RESULT:       3.9      1.474      2.831
REMARK  4 active torsions:
REMARK  status: ('A' for Active; 'I' for Inactive)
REMARK    1  A    between atoms: C_7  and  C_1 
REMARK    2  A    between atoms: N_5  and  C_2 
REMARK    3  A    between atoms: C_12  and  N_5 
REMARK    4  A    between atoms: O_21  and  C_14 
ROOT
ATOM      1  C   UNL d   1     -41.723-122.621 -51.547  0.00  0.00     0.101 A 
ATOM      2  C   UNL d   1     -41.692-122.385 -52.349  0.00  0.00     0.187 A 
ATOM      3  C   UNL d   1     -41.631-122.053 -50.956  0.00  0.00     0.010 A 
ATOM      4  O   UNL d   1     -41.569-121.588 -52.535  0.00  0.00    -0.289 OA
ATOM      5  C   UNL d   1     -41.478-121.024 -51.939  0.00  0.00     0.104 A 
ATOM      6  C   UNL d   1     -41.510-121.261 -51.137  0.00  0.00     0.023 A 
ATOM      7  C   UNL d   1     -41.356-120.227 -52.125  0.00  0.00     0.049 A 
ATOM      8  C   UNL d   1     -41.417-120.692 -50.547  0.00  0.00     0.004 A 
ATOM      9  C   UNL d   1     -41.264-119.661 -51.529  0.00  0.00     0.096 A 
ATOM     10  C   UNL d   1     -41.295-119.897 -50.727  0.00  0.00     0.024 A 
ENDROOT
BRANCH   2  11
ATOM     11  N   UNL d   1     -41.783-122.946 -52.944  0.00  0.00    -0.222 NA
BRANCH  11  12
ATOM     12  C   UNL d   1     -41.805-122.702 -53.744  0.00  0.00     0.084 A 
ATOM     13  C   UNL d   1     -41.164-122.854 -54.238  0.00  0.00     0.019 A 
ATOM     14  C   UNL d   1     -41.186-122.613 -55.030  0.00  0.00     0.002 A 
ATOM     15  C   UNL d   1     -41.849-122.226 -55.310  0.00  0.00     0.000 A 
ATOM     16  C   UNL d   1     -42.488-122.071 -54.829  0.00  0.00     0.002 A 
ATOM     17  C   UNL d   1     -41.888-121.979 -56.096  0.00  0.00     0.000 C 
ATOM     18  C   UNL d   1     -42.466-122.312 -54.037  0.00  0.00     0.019 A 
ENDBRANCH  11  12
ENDBRANCH   2  11
BRANCH   1  19
ATOM     19  C   UNL d   1     -41.845-123.416 -51.348  0.00  0.00     0.300 C 
ATOM     20  O   UNL d   1     -42.534-123.799 -51.571  0.00  0.00    -0.264 OA
ATOM     21  N   UNL d   1     -41.262-123.816 -50.921  0.00  0.00    -0.102 N 
ENDBRANCH   1  19
BRANCH   9  22
ATOM     22  O   UNL d   1     -41.143-118.875 -51.709  0.00  0.00    -0.328 OA
ATOM     23  C   UNL d   1     -41.203-118.627 -52.493  0.00  0.00     0.181 C 
ENDBRANCH   9  22
TORSDOF 4
ENDMDL
