MODEL 1
REMARK VINA RESULT:      -3.9      0.000      0.000
REMARK  6 active torsions:
REMARK  status: ('A' for Active; 'I' for Inactive)
REMARK    1  A    between atoms: C_2  and  S_1 
REMARK    2  A    between atoms: N_6  and  S_1 
REMARK    3  A    between atoms: C_14  and  N_6 
REMARK    4  A    between atoms: C_8  and  C_13 
REMARK    5  A    between atoms: C_13  and  C_15 
REMARK    6  A    between atoms: C_15  and  C_14 
ROOT
ATOM      1  S   UNL d   1      56.929  -0.349  31.443  0.00  0.00     0.291 S 
ATOM      2  O   UNL d   1      56.871   0.475  31.561  0.00  0.00    -0.198 OA
ATOM      3  O   UNL d   1      56.989  -1.168  31.322  0.00  0.00    -0.198 OA
ENDROOT
BRANCH   1   4
ATOM      4  C   UNL d   1      56.510  -0.485  32.149  0.00  0.00     0.135 A 
ATOM      5  S   UNL d   1      56.254   0.080  32.684  0.00  0.00    -0.073 SA
ATOM      6  C   UNL d   1      55.861  -0.303  33.303  0.00  0.00     0.036 A 
ATOM      7  C   UNL d   1      55.867  -1.087  33.167  0.00  0.00     0.008 A 
ATOM      8  C   UNL d   1      56.268  -1.223  32.449  0.00  0.00     0.020 A 
ENDBRANCH   1   4
BRANCH   1   9
ATOM      9  N   UNL d   1      57.352  -0.215  30.731  0.00  0.00    -0.156 NA
BRANCH   9  10
ATOM     10  C   UNL d   1      58.133   0.056  30.742  0.00  0.00     0.112 C 
BRANCH  10  11
ATOM     11  C   UNL d   1      58.584   0.082  30.060  0.00  0.00     0.028 C 
BRANCH  11  12
ATOM     12  C   UNL d   1      59.339   0.410  30.079  0.00  0.00     0.072 C 
BRANCH  12  13
ATOM     13  C   UNL d   1      59.865   0.309  29.451  0.00  0.00     0.211 C 
ATOM     14  O   UNL d   1      59.738   0.678  28.716  0.00  0.00    -0.644 OA
ATOM     15  O   UNL d   1      60.533  -0.163  29.538  0.00  0.00    -0.644 OA
ENDBRANCH  12  13
ENDBRANCH  11  12
ENDBRANCH  10  11
ENDBRANCH   9  10
ENDBRANCH   1   9
TORSDOF 6
ENDMDL
MODEL 2
REMARK VINA RESULT:      -3.8      1.521      4.174
REMARK  6 active torsions:
REMARK  status: ('A' for Active; 'I' for Inactive)
REMARK    1  A    between atoms: C_2  and  S_1 
REMARK    2  A    between atoms: N_6  and  S_1 
REMARK    3  A    between atoms: C_14  and  N_6 
REMARK    4  A    between atoms: C_8  and  C_13 
REMARK    5  A    between atoms: C_13  and  C_15 
REMARK    6  A    between atoms: C_15  and  C_14 
ROOT
ATOM      1  S   UNL d   1      58.127   0.254  30.324  0.00  0.00     0.291 S 
ATOM      2  O   UNL d   1      58.465   0.682  30.955  0.00  0.00    -0.198 OA
ATOM      3  O   UNL d   1      57.787  -0.171  29.697  0.00  0.00    -0.198 OA
ENDROOT
BRANCH   1   4
ATOM      4  C   UNL d   1      58.845   0.294  29.905  0.00  0.00     0.135 A 
ATOM      5  S   UNL d   1      59.004  -0.031  29.170  0.00  0.00    -0.073 SA
ATOM      6  C   UNL d   1      59.787   0.145  28.968  0.00  0.00     0.036 A 
ATOM      7  C   UNL d   1      60.116   0.568  29.556  0.00  0.00     0.008 A 
ATOM      8  C   UNL d   1      59.544   0.673  30.153  0.00  0.00     0.020 A 
ENDBRANCH   1   4
BRANCH   1   9
ATOM      9  N   UNL d   1      57.401   0.213  30.743  0.00  0.00    -0.156 NA
BRANCH   9  10
ATOM     10  C   UNL d   1      57.347  -0.187  31.464  0.00  0.00     0.112 C 
BRANCH  10  11
ATOM     11  C   UNL d   1      56.623  -0.402  31.778  0.00  0.00     0.028 C 
BRANCH  11  12
ATOM     12  C   UNL d   1      56.562  -0.598  32.576  0.00  0.00     0.072 C 
BRANCH  12  13
ATOM     13  C   UNL d   1      55.893  -0.980  32.872  0.00  0.00     0.211 C 
ATOM     14  O   UNL d   1      55.800  -1.804  32.807  0.00  0.00    -0.644 OA
ATOM     15  O   UNL d   1      55.298  -0.549  33.243  0.00  0.00    -0.644 OA
ENDBRANCH  12  13
ENDBRANCH  11  12
ENDBRANCH  10  11
ENDBRANCH   9  10
ENDBRANCH   1   9
TORSDOF 6
ENDMDL
MODEL 3
REMARK VINA RESULT:      -2.6      9.237      9.696
REMARK  6 active torsions:
REMARK  status: ('A' for Active; 'I' for Inactive)
REMARK    1  A    between atoms: C_2  and  S_1 
REMARK    2  A    between atoms: N_6  and  S_1 
REMARK    3  A    between atoms: C_14  and  N_6 
REMARK    4  A    between atoms: C_8  and  C_13 
REMARK    5  A    between atoms: C_13  and  C_15 
REMARK    6  A    between atoms: C_15  and  C_14 
ROOT
ATOM      1  S   UNL d   1      59.846  -8.630  35.129  0.00  0.00     0.291 S 
ATOM      2  O   UNL d   1      59.329  -8.898  35.726  0.00  0.00    -0.198 OA
ATOM      3  O   UNL d   1      60.359  -8.367  34.532  0.00  0.00    -0.198 OA
ENDROOT
BRANCH   1   4
ATOM      4  C   UNL d   1      60.042  -7.966  35.590  0.00  0.00     0.135 A 
ATOM      5  S   UNL d   1      60.774  -7.793  35.914  0.00  0.00    -0.073 SA
ATOM      6  C   UNL d   1      60.717  -7.080  36.330  0.00  0.00     0.036 A 
ATOM      7  C   UNL d   1      59.971  -6.807  36.271  0.00  0.00     0.008 A 
ATOM      8  C   UNL d   1      59.532  -7.347  35.813  0.00  0.00     0.020 A 
ENDBRANCH   1   4
BRANCH   1   9
ATOM      9  N   UNL d   1      59.649  -9.299  34.661  0.00  0.00    -0.156 NA
BRANCH   9  10
ATOM     10  C   UNL d   1      59.480  -9.222  33.856  0.00  0.00     0.112 C 
BRANCH  10  11
ATOM     11  C   UNL d   1      59.018  -9.772  33.464  0.00  0.00     0.028 C 
BRANCH  11  12
ATOM     12  C   UNL d   1      59.016  -9.795  32.641  0.00  0.00     0.072 C 
BRANCH  12  13
ATOM     13  C   UNL d   1      58.309  -9.809  32.216  0.00  0.00     0.211 C 
ATOM     14  O   UNL d   1      57.571  -9.817  32.601  0.00  0.00    -0.644 OA
ATOM     15  O   UNL d   1      58.317  -9.816  31.393  0.00  0.00    -0.644 OA
ENDBRANCH  12  13
ENDBRANCH  11  12
ENDBRANCH  10  11
ENDBRANCH   9  10
ENDBRANCH   1   9
TORSDOF 6
ENDMDL
MODEL 4
REMARK VINA RESULT:      -1.7      9.596      9.813
REMARK  6 active torsions:
REMARK  status: ('A' for Active; 'I' for Inactive)
REMARK    1  A    between atoms: C_2  and  S_1 
REMARK    2  A    between atoms: N_6  and  S_1 
REMARK    3  A    between atoms: C_14  and  N_6 
REMARK    4  A    between atoms: C_8  and  C_13 
REMARK    5  A    between atoms: C_13  and  C_15 
REMARK    6  A    between atoms: C_15  and  C_14 
ROOT
ATOM      1  S   UNL d   1      59.661  -9.433  33.358  0.00  0.00     0.291 S 
ATOM      2  O   UNL d   1      59.096  -9.754  33.881  0.00  0.00    -0.198 OA
ATOM      3  O   UNL d   1      60.220  -9.115  32.834  0.00  0.00    -0.198 OA
ENDROOT
BRANCH   1   4
ATOM      4  C   UNL d   1      60.039  -9.050  33.993  0.00  0.00     0.135 A 
ATOM      5  S   UNL d   1      60.837  -8.876  34.056  0.00  0.00    -0.073 SA
ATOM      6  C   UNL d   1      60.967  -8.495  34.778  0.00  0.00     0.036 A 
ATOM      7  C   UNL d   1      60.273  -8.428  35.162  0.00  0.00     0.008 A 
ATOM      8  C   UNL d   1      59.679  -8.769  34.689  0.00  0.00     0.020 A 
ENDBRANCH   1   4
BRANCH   1   9
ATOM      9  N   UNL d   1      59.282  -9.818  32.716  0.00  0.00    -0.156 NA
BRANCH   9  10
ATOM     10  C   UNL d   1      58.562  -9.542  32.417  0.00  0.00     0.112 C 
BRANCH  10  11
ATOM     11  C   UNL d   1      58.262  -9.818  31.708  0.00  0.00     0.028 C 
BRANCH  11  12
ATOM     12  C   UNL d   1      57.633  -9.427  31.347  0.00  0.00     0.072 C 
BRANCH  12  13
ATOM     13  C   UNL d   1      57.410  -9.601  30.572  0.00  0.00     0.211 C 
ATOM     14  O   UNL d   1      57.966  -9.609  29.953  0.00  0.00    -0.644 OA
ATOM     15  O   UNL d   1      56.625  -9.771  30.392  0.00  0.00    -0.644 OA
ENDBRANCH  12  13
ENDBRANCH  11  12
ENDBRANCH  10  11
ENDBRANCH   9  10
ENDBRANCH   1   9
TORSDOF 6
ENDMDL
