MODEL 1
REMARK VINA RESULT:      26.7      0.000      0.000
REMARK  6 active torsions:
REMARK  status: ('A' for Active; 'I' for Inactive)
REMARK    1  A    between atoms: N_2  and  S_1 
REMARK    2  A    between atoms: C_6  and  S_1 
REMARK    3  A    between atoms: S_7  and  C_3 
REMARK    4  A    between atoms: N_4  and  C_10 
REMARK    5  A    between atoms: C_21  and  S_7 
REMARK    6  A    between atoms: C_20  and  C_21 
ROOT
ATOM      1  N   UNL d   1      45.805 -16.728  43.841  0.00  0.00    -0.208 N 
ATOM      2  C   UNL d   1      45.519 -16.078  44.273  0.00  0.00     0.189 A 
ATOM      3  N   UNL d   1      45.147 -16.365  44.955  0.00  0.00    -0.219 NA
ATOM      4  C   UNL d   1      45.608 -17.420  44.260  0.00  0.00     0.114 A 
ATOM      5  C   UNL d   1      45.203 -17.191  44.943  0.00  0.00     0.121 A 
ENDROOT
BRANCH   1   6
ATOM      6  S   UNL d   1      46.215 -16.689  43.121  0.00  0.00     0.273 S 
ATOM      7  O   UNL d   1      46.298 -15.886  43.252  0.00  0.00    -0.200 OA
ATOM      8  O   UNL d   1      46.635 -16.406  42.466  0.00  0.00    -0.200 OA
BRANCH   6   9
ATOM      9  C   UNL d   1      46.141 -17.499  42.971  0.00  0.00     0.104 A 
ATOM     10  C   UNL d   1      45.566 -17.761  42.446  0.00  0.00     0.015 A 
ATOM     11  C   UNL d   1      45.488 -18.571  42.293  0.00  0.00     0.024 A 
ATOM     12  C   UNL d   1      45.994 -19.102  42.673  0.00  0.00     0.127 A 
ATOM     13  C   UNL d   1      46.569 -18.832  43.197  0.00  0.00     0.024 A 
ATOM     14  C   UNL d   1      46.647 -18.026  43.350  0.00  0.00     0.015 A 
BRANCH  12  15
ATOM     15  N   UNL d   1      45.918 -19.920  42.520  0.00  0.00    -0.114 N 
ATOM     16  O   UNL d   1      46.547 -20.330  42.169  0.00  0.00    -0.532 OA
ATOM     17  O   UNL d   1      45.222 -20.313  42.717  0.00  0.00    -0.532 OA
ENDBRANCH  12  15
ENDBRANCH   6   9
ENDBRANCH   1   6
BRANCH   2  18
ATOM     18  S   UNL d   1      45.595 -15.277  44.056  0.00  0.00    -0.049 SA
BRANCH  18  19
ATOM     19  C   UNL d   1      45.373 -14.686  44.588  0.00  0.00     0.040 C 
BRANCH  19  20
ATOM     20  C   UNL d   1      45.472 -13.894  44.385  0.00  0.00     0.026 A 
ATOM     21  C   UNL d   1      45.984 -13.406  44.839  0.00  0.00     0.099 A 
ATOM     22  N   UNL d   1      46.094 -12.614  44.650  0.00  0.00    -0.242 NA
ATOM     23  C   UNL d   1      45.689 -12.303  44.001  0.00  0.00     0.099 A 
ATOM     24  C   UNL d   1      45.185 -12.777  43.552  0.00  0.00     0.021 A 
ATOM     25  C   UNL d   1      45.078 -13.572  43.746  0.00  0.00     0.004 A 
ENDBRANCH  19  20
ENDBRANCH  18  19
ENDBRANCH   2  18
TORSDOF 6
ENDMDL
