MODEL 1
REMARK VINA RESULT:      65.4      0.000      0.000
REMARK  7 active torsions:
REMARK  status: ('A' for Active; 'I' for Inactive)
REMARK    1  A    between atoms: S_3  and  N_12 
REMARK    2  A    between atoms: C_16  and  S_3 
REMARK    3  A    between atoms: C_17  and  C_7 
REMARK    4  A    between atoms: O_19  and  C_8 
REMARK    5  A    between atoms: O_20  and  C_11 
REMARK    6  A    between atoms: N_12  and  C_18 
REMARK    7  A    between atoms: C_18  and  C_17 
ROOT
ATOM      1  N   UNL d   1      59.862  48.935  49.969  0.00  0.00    -0.206 NA
ATOM      2  C   UNL d   1      60.320  49.016  51.318  0.00  0.00     0.042 A 
ATOM      3  C   UNL d   1      59.734  49.148  50.753  0.00  0.00     0.109 A 
ATOM      4  C   UNL d   1      61.037  48.670  51.102  0.00  0.00     0.008 A 
ATOM      5  C   UNL d   1      60.581  48.586  49.743  0.00  0.00     0.279 A 
ATOM      6  C   UNL d   1      61.167  48.454  50.308  0.00  0.00     0.060 A 
ATOM      7  C   UNL d   1      60.192  49.229  52.104  0.00  0.00     0.096 A 
ATOM      8  C   UNL d   1      59.020  49.493  50.973  0.00  0.00     0.112 A 
ATOM      9  O   UNL d   1      60.710  48.373  48.958  0.00  0.00    -0.265 OA
ATOM     10  C   UNL d   1      59.478  49.574  52.322  0.00  0.00     0.026 A 
ATOM     11  C   UNL d   1      58.891  49.706  51.757  0.00  0.00     0.028 A 
ENDROOT
BRANCH   6  12
ATOM     12  C   UNL d   1      61.885  48.107  50.085  0.00  0.00     0.026 C 
BRANCH  12  13
ATOM     13  C   UNL d   1      61.886  47.432  49.614  0.00  0.00     0.112 C 
BRANCH  13  14
ATOM     14  N   UNL d   1      61.802  46.690  49.961  0.00  0.00    -0.157 NA
BRANCH  14  15
ATOM     15  S   UNL d   1      62.009  46.015  49.529  0.00  0.00     0.286 S 
ATOM     16  O   UNL d   1      62.298  45.477  48.975  0.00  0.00    -0.198 OA
ATOM     17  O   UNL d   1      62.312  46.646  49.093  0.00  0.00    -0.198 OA
BRANCH  15  18
ATOM     18  C   UNL d   1      61.697  45.395  49.981  0.00  0.00     0.117 C 
ATOM     19  C   UNL d   1      61.271  44.791  49.617  0.00  0.00     0.014 C 
ENDBRANCH  15  18
ENDBRANCH  14  15
ENDBRANCH  13  14
ENDBRANCH  12  13
ENDBRANCH   6  12
BRANCH   7  20
ATOM     20  O   UNL d   1      60.772  49.098  52.663  0.00  0.00    -0.328 OA
ATOM     21  C   UNL d   1      60.998  49.708  53.174  0.00  0.00     0.181 C 
ENDBRANCH   7  20
BRANCH   8  22
ATOM     22  O   UNL d   1      58.433  49.626  50.408  0.00  0.00    -0.327 OA
ATOM     23  C   UNL d   1      57.633  49.542  50.615  0.00  0.00     0.181 C 
ENDBRANCH   8  22
TORSDOF 7
ENDMDL
MODEL 2
REMARK VINA RESULT:      67.5      1.576      4.204
REMARK  7 active torsions:
REMARK  status: ('A' for Active; 'I' for Inactive)
REMARK    1  A    between atoms: S_3  and  N_12 
REMARK    2  A    between atoms: C_16  and  S_3 
REMARK    3  A    between atoms: C_17  and  C_7 
REMARK    4  A    between atoms: O_19  and  C_8 
REMARK    5  A    between atoms: O_20  and  C_11 
REMARK    6  A    between atoms: N_12  and  C_18 
REMARK    7  A    between atoms: C_18  and  C_17 
ROOT
ATOM      1  N   UNL d   1      60.523  46.565  51.366  0.00  0.00    -0.206 NA
ATOM      2  C   UNL d   1      61.426  46.630  50.263  0.00  0.00     0.042 A 
ATOM      3  C   UNL d   1      60.968  46.187  50.786  0.00  0.00     0.109 A 
ATOM      4  C   UNL d   1      61.442  47.453  50.317  0.00  0.00     0.008 A 
ATOM      5  C   UNL d   1      60.534  47.393  51.427  0.00  0.00     0.279 A 
ATOM      6  C   UNL d   1      60.992  47.836  50.904  0.00  0.00     0.060 A 
ATOM      7  C   UNL d   1      61.872  46.252  49.682  0.00  0.00     0.096 A 
ATOM      8  C   UNL d   1      60.955  45.365  50.729  0.00  0.00     0.112 A 
ATOM      9  O   UNL d   1      60.089  47.772  52.007  0.00  0.00    -0.265 OA
ATOM     10  C   UNL d   1      61.858  45.431  49.626  0.00  0.00     0.026 A 
ATOM     11  C   UNL d   1      61.399  44.987  50.149  0.00  0.00     0.028 A 
ENDROOT
BRANCH   6  12
ATOM     12  C   UNL d   1      61.005  48.661  50.962  0.00  0.00     0.026 C 
BRANCH  12  13
ATOM     13  C   UNL d   1      60.713  49.121  50.345  0.00  0.00     0.112 C 
BRANCH  13  14
ATOM     14  N   UNL d   1      60.109  49.663  50.488  0.00  0.00    -0.157 NA
BRANCH  14  15
ATOM     15  S   UNL d   1      59.453  49.680  49.984  0.00  0.00     0.286 S 
ATOM     16  O   UNL d   1      58.939  49.694  49.339  0.00  0.00    -0.198 OA
ATOM     17  O   UNL d   1      60.105  49.662  49.480  0.00  0.00    -0.198 OA
BRANCH  15  18
ATOM     18  C   UNL d   1      58.811  49.698  50.507  0.00  0.00     0.117 C 
ATOM     19  C   UNL d   1      58.055  49.506  50.241  0.00  0.00     0.014 C 
ENDBRANCH  15  18
ENDBRANCH  14  15
ENDBRANCH  13  14
ENDBRANCH  12  13
ENDBRANCH   6  12
BRANCH   7  20
ATOM     20  O   UNL d   1      62.326  46.691  49.164  0.00  0.00    -0.328 OA
ATOM     21  C   UNL d   1      63.012  46.363  48.839  0.00  0.00     0.181 C 
ENDBRANCH   7  20
BRANCH   8  22
ATOM     22  O   UNL d   1      60.496  44.922  51.252  0.00  0.00    -0.327 OA
ATOM     23  C   UNL d   1      60.760  44.175  51.501  0.00  0.00     0.181 C 
ENDBRANCH   8  22
TORSDOF 7
ENDMDL
