MODEL 1
REMARK VINA RESULT:      29.6      0.000      0.000
REMARK  4 active torsions:
REMARK  status: ('A' for Active; 'I' for Inactive)
REMARK    1  A    between atoms: N_10  and  C_3 
REMARK    2  A    between atoms: C_12  and  C_5 
REMARK    3  A    between atoms: C_11  and  C_8 
REMARK    4  A    between atoms: C_13  and  N_10 
ROOT
ATOM      1  C   UNL d   1      46.226 -18.019  42.693  0.00  0.00     0.168 A 
ATOM      2  N   UNL d   1      46.134 -17.257  43.029  0.00  0.00    -0.184 N 
ATOM      3  C   UNL d   1      45.987 -17.201  43.820  0.00  0.00     0.217 A 
ATOM      4  N   UNL d   1      46.165 -18.682  43.167  0.00  0.00    -0.231 NA
ATOM      5  C   UNL d   1      46.375 -18.098  41.903  0.00  0.00     0.057 A 
ATOM      6  N   UNL d   1      46.344 -16.689  41.768  0.00  0.00    -0.160 NA
ATOM      7  C   UNL d   1      45.923 -17.859  44.305  0.00  0.00     0.067 A 
ATOM      8  C   UNL d   1      46.014 -18.609  43.974  0.00  0.00     0.064 A 
ATOM      9  C   UNL d   1      46.434 -17.439  41.437  0.00  0.00     0.124 A 
ENDROOT
BRANCH   5  10
ATOM     10  C   UNL d   1      46.465 -18.849  41.571  0.00  0.00     0.004 A 
ATOM     11  C   UNL d   1      46.463 -19.496  42.058  0.00  0.00     0.000 A 
ATOM     12  C   UNL d   1      46.553 -20.246  41.727  0.00  0.00     0.000 A 
ATOM     13  C   UNL d   1      46.642 -20.326  40.920  0.00  0.00     0.000 A 
ATOM     14  C   UNL d   1      46.642 -19.670  40.446  0.00  0.00     0.000 A 
ATOM     15  C   UNL d   1      46.552 -18.920  40.777  0.00  0.00     0.000 A 
ENDBRANCH   5  10
BRANCH   3  16
ATOM     16  N   UNL d   1      45.894 -16.426  44.162  0.00  0.00    -0.383 NA
BRANCH  16  17
ATOM     17  C   UNL d   1      45.797 -15.657  44.501  0.00  0.00     0.134 C 
ATOM     18  C   UNL d   1      45.094 -15.479  44.940  0.00  0.00     0.035 C 
ATOM     19  C   UNL d   1      46.407 -15.069  44.399  0.00  0.00     0.035 C 
ENDBRANCH  16  17
ENDBRANCH   3  16
BRANCH   8  20
ATOM     20  C   UNL d   1      45.951 -19.304  44.465  0.00  0.00     0.036 C 
ATOM     21  C   UNL d   1      45.197 -19.689  44.555  0.00  0.00     0.006 C 
ATOM     22  C   UNL d   1      46.644 -19.609  44.862  0.00  0.00     0.006 C 
ATOM     23  C   UNL d   1      45.893 -19.990  44.950  0.00  0.00     0.006 C 
ENDBRANCH   8  20
TORSDOF 4
ENDMDL
