MODEL 1
REMARK VINA RESULT:     104.7      0.000      0.000
REMARK  8 active torsions:
REMARK  status: ('A' for Active; 'I' for Inactive)
REMARK    1  A    between atoms: C_14  and  C_1 
REMARK    2  A    between atoms: C_6  and  C_2 
REMARK    3  A    between atoms: C_19  and  C_4 
REMARK       I    between atoms: N_13  and  C_6 
REMARK    4  A    between atoms: C_7  and  S_18 
REMARK    5  A    between atoms: C_26  and  N_13 
REMARK    6  A    between atoms: C_22  and  C_14 
REMARK    7  A    between atoms: S_18  and  C_22 
REMARK    8  A    between atoms: O_31  and  C_27 
ROOT
ATOM      1  C   UNL d   1     -48.662  29.784  34.403  0.00  0.00     0.076 A 
ATOM      2  C   UNL d   1     -48.691  28.466  34.903  0.00  0.00     0.092 A 
ATOM      3  C   UNL d   1     -48.389  29.220  34.929  0.00  0.00     0.018 A 
ATOM      4  C   UNL d   1     -49.267  28.269  34.352  0.00  0.00     0.120 A 
ATOM      5  N   UNL d   1     -49.541  28.827  33.827  0.00  0.00    -0.238 NA
ATOM      6  C   UNL d   1     -49.238  29.587  33.852  0.00  0.00     0.087 A 
ATOM      7  C   UNL d   1     -48.418  27.902  35.430  0.00  0.00     0.103 C 
ATOM      8  N   UNL d   1     -48.150  27.346  35.948  0.00  0.00    -0.191 NA
ATOM      9  C   UNL d   1     -49.492  30.134  33.353  0.00  0.00     0.021 C 
ENDROOT
BRANCH   4  10
ATOM     10  S   UNL d   1     -49.570  27.509  34.328  0.00  0.00    -0.063 SA
BRANCH  10  11
ATOM     11  C   UNL d   1     -50.102  27.298  33.747  0.00  0.00     0.079 C 
BRANCH  11  12
ATOM     12  C   UNL d   1     -50.191  26.518  33.535  0.00  0.00     0.207 C 
ATOM     13  O   UNL d   1     -49.491  26.051  33.319  0.00  0.00    -0.286 OA
BRANCH  12  14
ATOM     14  C   UNL d   1     -50.799  26.034  33.469  0.00  0.00     0.103 A 
ATOM     15  C   UNL d   1     -51.597  26.135  33.373  0.00  0.00     0.303 A 
ATOM     16  O   UNL d   1     -52.077  25.482  33.325  0.00  0.00    -0.273 OA
ATOM     17  O   UNL d   1     -51.964  26.912  33.320  0.00  0.00    -0.259 OA
ATOM     18  C   UNL d   1     -51.759  24.730  33.373  0.00  0.00     0.103 A 
ATOM     19  C   UNL d   1     -50.965  24.625  33.469  0.00  0.00     0.023 A 
ATOM     20  C   UNL d   1     -52.267  24.061  33.322  0.00  0.00     0.025 A 
ATOM     21  C   UNL d   1     -50.476  25.286  33.518  0.00  0.00     0.011 A 
ATOM     22  C   UNL d   1     -50.632  23.856  33.518  0.00  0.00     0.002 A 
ATOM     23  C   UNL d   1     -51.123  23.192  33.469  0.00  0.00     0.000 A 
ATOM     24  C   UNL d   1     -51.949  23.298  33.370  0.00  0.00     0.002 A 
ENDBRANCH  12  14
ENDBRANCH  11  12
ENDBRANCH  10  11
ENDBRANCH   4  10
BRANCH   3  25
ATOM     25  C   UNL d   1     -47.815  29.416  35.478  0.00  0.00     0.001 A 
ATOM     26  C   UNL d   1     -48.026  29.775  36.192  0.00  0.00     0.002 A 
ATOM     27  C   UNL d   1     -47.444  29.973  36.748  0.00  0.00     0.024 A 
ATOM     28  C   UNL d   1     -46.653  29.812  36.590  0.00  0.00     0.094 A 
ATOM     29  C   UNL d   1     -46.436  29.454  35.880  0.00  0.00     0.024 A 
ATOM     30  C   UNL d   1     -47.018  29.256  35.323  0.00  0.00     0.002 A 
BRANCH  28  31
ATOM     31  O   UNL d   1     -46.103  30.016  37.149  0.00  0.00    -0.328 OA
ATOM     32  C   UNL d   1     -46.431  30.247  37.974  0.00  0.00     0.181 C 
ENDBRANCH  28  31
ENDBRANCH   3  25
BRANCH   1  33
ATOM     33  C   UNL d   1     -48.324  30.775  34.372  0.00  0.00     0.281 C 
ATOM     34  N   UNL d   1     -48.481  31.449  34.012  0.00  0.00    -0.208 NA
ATOM     35  O   UNL d   1     -47.602  31.033  34.921  0.00  0.00    -0.265 OA
BRANCH  34  36
ATOM     36  C   UNL d   1     -48.026  32.100  34.196  0.00  0.00     0.085 A 
ATOM     37  C   UNL d   1     -47.722  32.176  34.960  0.00  0.00     0.019 A 
ATOM     38  C   UNL d   1     -47.257  32.836  35.161  0.00  0.00     0.002 A 
ATOM     39  C   UNL d   1     -47.099  33.420  34.585  0.00  0.00     0.000 A 
ATOM     40  C   UNL d   1     -47.408  33.343  33.811  0.00  0.00     0.002 A 
ATOM     41  C   UNL d   1     -47.872  32.677  33.625  0.00  0.00     0.019 A 
ENDBRANCH  34  36
ENDBRANCH   1  33
TORSDOF 8
ENDMDL
