MODEL 1
REMARK VINA RESULT:      54.6      0.000      0.000
REMARK  3 active torsions:
REMARK  status: ('A' for Active; 'I' for Inactive)
REMARK    1  A    between atoms: N_6  and  C_1 
REMARK    2  A    between atoms: C_14  and  N_4 
REMARK    3  A    between atoms: C_9  and  N_6 
ROOT
ATOM      1  C   UNL d   1     -50.964  24.855  33.356  0.00  0.00     0.157 A 
ATOM      2  C   UNL d   1     -51.331  25.591  33.365  0.00  0.00     0.298 A 
ATOM      3  N   UNL d   1     -50.008  25.770  33.442  0.00  0.00    -0.238 N 
ATOM      4  N   UNL d   1     -50.731  26.163  33.419  0.00  0.00    -0.209 N 
ATOM      5  C   UNL d   1     -50.152  24.951  33.403  0.00  0.00     0.104 A 
ATOM      6  O   UNL d   1     -52.141  25.745  33.329  0.00  0.00    -0.263 OA
ATOM      7  C   UNL d   1     -49.264  26.132  33.495  0.00  0.00     0.120 C 
ATOM      8  C   UNL d   1     -49.587  24.357  33.409  0.00  0.00     0.022 C 
ENDROOT
BRANCH   1   9
ATOM      9  N   UNL d   1     -51.360  24.123  33.307  0.00  0.00    -0.239 NA
BRANCH   9  10
ATOM     10  C   UNL d   1     -52.075  24.011  33.709  0.00  0.00     0.082 A 
ATOM     11  C   UNL d   1     -52.073  23.833  34.523  0.00  0.00     0.022 A 
ATOM     12  C   UNL d   1     -52.779  23.723  34.915  0.00  0.00     0.041 A 
ATOM     13  C   UNL d   1     -52.779  23.546  35.726  0.00  0.00     0.003 C 
ATOM     14  C   UNL d   1     -53.506  23.787  34.513  0.00  0.00     0.196 A 
ATOM     15  C   UNL d   1     -53.504  23.963  33.706  0.00  0.00     0.041 A 
ATOM     16  O   UNL d   1     -54.221  23.675  34.915  0.00  0.00    -0.287 OA
ATOM     17  C   UNL d   1     -52.790  24.074  33.309  0.00  0.00     0.022 A 
ATOM     18  C   UNL d   1     -54.223  24.025  33.315  0.00  0.00     0.003 C 
ENDBRANCH   9  10
ENDBRANCH   1   9
BRANCH   4  19
ATOM     19  C   UNL d   1     -50.842  26.980  33.445  0.00  0.00     0.085 A 
ATOM     20  C   UNL d   1     -50.208  27.478  33.589  0.00  0.00     0.019 A 
ATOM     21  C   UNL d   1     -50.315  28.300  33.616  0.00  0.00     0.002 A 
ATOM     22  C   UNL d   1     -51.068  28.618  33.497  0.00  0.00     0.000 A 
ATOM     23  C   UNL d   1     -51.705  28.120  33.353  0.00  0.00     0.002 A 
ATOM     24  C   UNL d   1     -51.599  27.294  33.325  0.00  0.00     0.019 A 
ENDBRANCH   4  19
TORSDOF 3
ENDMDL
MODEL 2
REMARK VINA RESULT:      56.0      1.660      4.339
REMARK  3 active torsions:
REMARK  status: ('A' for Active; 'I' for Inactive)
REMARK    1  A    between atoms: N_6  and  C_1 
REMARK    2  A    between atoms: C_14  and  N_4 
REMARK    3  A    between atoms: C_9  and  N_6 
ROOT
ATOM      1  C   UNL d   1     -50.672  26.368  33.334  0.00  0.00     0.157 A 
ATOM      2  C   UNL d   1     -50.784  25.554  33.355  0.00  0.00     0.298 A 
ATOM      3  N   UNL d   1     -51.980  26.153  33.343  0.00  0.00    -0.238 N 
ATOM      4  N   UNL d   1     -51.604  25.420  33.361  0.00  0.00    -0.209 N 
ATOM      5  C   UNL d   1     -51.398  26.747  33.326  0.00  0.00     0.104 A 
ATOM      6  O   UNL d   1     -50.201  24.970  33.368  0.00  0.00    -0.263 OA
ATOM      7  C   UNL d   1     -52.800  26.273  33.342  0.00  0.00     0.120 C 
ATOM      8  C   UNL d   1     -51.529  27.556  33.306  0.00  0.00     0.022 C 
ENDROOT
BRANCH   1   9
ATOM      9  N   UNL d   1     -49.930  26.749  33.322  0.00  0.00    -0.239 NA
BRANCH   9  10
ATOM     10  C   UNL d   1     -49.663  27.158  33.991  0.00  0.00     0.082 A 
ATOM     11  C   UNL d   1     -49.912  26.923  34.751  0.00  0.00     0.022 A 
ATOM     12  C   UNL d   1     -49.647  27.328  35.407  0.00  0.00     0.041 A 
ATOM     13  C   UNL d   1     -49.894  27.096  36.164  0.00  0.00     0.003 C 
ATOM     14  C   UNL d   1     -49.130  27.976  35.328  0.00  0.00     0.196 A 
ATOM     15  C   UNL d   1     -48.885  28.206  34.573  0.00  0.00     0.041 A 
ATOM     16  O   UNL d   1     -48.863  28.385  35.997  0.00  0.00    -0.287 OA
ATOM     17  C   UNL d   1     -49.152  27.796  33.910  0.00  0.00     0.022 A 
ATOM     18  C   UNL d   1     -48.374  28.845  34.502  0.00  0.00     0.003 C 
ENDBRANCH   9  10
ENDBRANCH   1   9
BRANCH   4  19
ATOM     19  C   UNL d   1     -51.975  24.683  33.380  0.00  0.00     0.085 A 
ATOM     20  C   UNL d   1     -51.533  23.997  33.307  0.00  0.00     0.019 A 
ATOM     21  C   UNL d   1     -51.902  23.255  33.327  0.00  0.00     0.002 A 
ATOM     22  C   UNL d   1     -52.721  23.208  33.420  0.00  0.00     0.000 A 
ATOM     23  C   UNL d   1     -53.165  23.895  33.493  0.00  0.00     0.002 A 
ATOM     24  C   UNL d   1     -52.796  24.641  33.474  0.00  0.00     0.019 A 
ENDBRANCH   4  19
TORSDOF 3
ENDMDL
