MODEL 1
REMARK VINA RESULT:      -7.3      0.000      0.000
REMARK  3 active torsions:
REMARK  status: ('A' for Active; 'I' for Inactive)
REMARK    1  A    between atoms: S_10  and  C_6 
REMARK    2  A    between atoms: C_14  and  S_10 
REMARK    3  A    between atoms: C_15  and  C_14 
ROOT
ATOM      1  C   UNL d   1     -47.921  13.568  23.018  0.00  0.00     0.141 A 
ATOM      2  O   UNL d   1     -48.321  12.873  23.211  0.00  0.00    -0.303 OA
ATOM      3  C   UNL d   1     -47.111  13.415  23.051  0.00  0.00     0.110 A 
ATOM      4  C   UNL d   1     -47.010  12.624  23.265  0.00  0.00     0.043 A 
ATOM      5  C   UNL d   1     -47.759  12.289  23.364  0.00  0.00     0.102 A 
ATOM      6  C   UNL d   1     -48.190  14.322  22.816  0.00  0.00     0.137 A 
ATOM      7  N   UNL d   1     -47.649  14.921  22.647  0.00  0.00    -0.215 NA
ATOM      8  N   UNL d   1     -46.570  14.013  22.882  0.00  0.00    -0.222 NA
ATOM      9  C   UNL d   1     -46.839  14.767  22.680  0.00  0.00     0.200 A 
ATOM     10  C   UNL d   1     -46.335  12.165  23.382  0.00  0.00     0.004 A 
ATOM     11  C   UNL d   1     -47.830  11.496  23.581  0.00  0.00     0.025 A 
ATOM     12  C   UNL d   1     -46.407  11.372  23.599  0.00  0.00     0.000 A 
ATOM     13  C   UNL d   1     -47.154  11.038  23.698  0.00  0.00     0.002 A 
ENDROOT
BRANCH   6  14
ATOM     14  S   UNL d   1     -48.999  14.476  22.783  0.00  0.00    -0.062 SA
BRANCH  14  15
ATOM     15  C   UNL d   1     -49.271  15.255  22.777  0.00  0.00     0.082 C 
BRANCH  15  16
ATOM     16  C   UNL d   1     -50.048  15.422  23.002  0.00  0.00     0.241 C 
ATOM     17  O   UNL d   1     -50.579  15.728  22.451  0.00  0.00    -0.283 OA
ENDBRANCH  15  16
ENDBRANCH  14  15
ENDBRANCH   6  14
TORSDOF 3
ENDMDL
MODEL 2
REMARK VINA RESULT:      -7.2      1.354      3.541
REMARK  3 active torsions:
REMARK  status: ('A' for Active; 'I' for Inactive)
REMARK    1  A    between atoms: S_10  and  C_6 
REMARK    2  A    between atoms: C_14  and  S_10 
REMARK    3  A    between atoms: C_15  and  C_14 
ROOT
ATOM      1  C   UNL d   1     -47.644  13.381  23.049  0.00  0.00     0.141 A 
ATOM      2  O   UNL d   1     -48.419  13.097  23.062  0.00  0.00    -0.303 OA
ATOM      3  C   UNL d   1     -47.669  14.186  22.872  0.00  0.00     0.110 A 
ATOM      4  C   UNL d   1     -48.460  14.401  22.775  0.00  0.00     0.043 A 
ATOM      5  C   UNL d   1     -48.923  13.728  22.893  0.00  0.00     0.102 A 
ATOM      6  C   UNL d   1     -46.918  13.009  23.176  0.00  0.00     0.137 A 
ATOM      7  N   UNL d   1     -46.218  13.442  23.126  0.00  0.00    -0.215 NA
ATOM      8  N   UNL d   1     -46.969  14.619  22.822  0.00  0.00    -0.222 NA
ATOM      9  C   UNL d   1     -46.244  14.247  22.949  0.00  0.00     0.200 A 
ATOM     10  C   UNL d   1     -48.818  15.122  22.595  0.00  0.00     0.004 A 
ATOM     11  C   UNL d   1     -49.745  13.776  22.830  0.00  0.00     0.025 A 
ATOM     12  C   UNL d   1     -49.639  15.170  22.533  0.00  0.00     0.000 A 
ATOM     13  C   UNL d   1     -50.102  14.498  22.650  0.00  0.00     0.002 A 
ENDROOT
BRANCH   6  14
ATOM     14  S   UNL d   1     -46.893  12.204  23.353  0.00  0.00    -0.062 SA
BRANCH  14  15
ATOM     15  C   UNL d   1     -46.166  11.816  23.410  0.00  0.00     0.082 C 
BRANCH  15  16
ATOM     16  C   UNL d   1     -46.143  11.003  23.553  0.00  0.00     0.241 C 
ATOM     17  O   UNL d   1     -45.421  10.632  23.698  0.00  0.00    -0.283 OA
ENDBRANCH  15  16
ENDBRANCH  14  15
ENDBRANCH   6  14
TORSDOF 3
ENDMDL
MODEL 3
REMARK VINA RESULT:      -7.1      1.580      2.034
REMARK  3 active torsions:
REMARK  status: ('A' for Active; 'I' for Inactive)
REMARK    1  A    between atoms: S_10  and  C_6 
REMARK    2  A    between atoms: C_14  and  S_10 
REMARK    3  A    between atoms: C_15  and  C_14 
ROOT
ATOM      1  C   UNL d   1     -48.796  12.792  23.304  0.00  0.00     0.141 A 
ATOM      2  O   UNL d   1     -48.066  13.162  23.202  0.00  0.00    -0.303 OA
ATOM      3  C   UNL d   1     -48.658  12.005  23.506  0.00  0.00     0.110 A 
ATOM      4  C   UNL d   1     -47.841  11.887  23.530  0.00  0.00     0.043 A 
ATOM      5  C   UNL d   1     -47.475  12.603  23.341  0.00  0.00     0.102 A 
ATOM      6  C   UNL d   1     -49.570  13.071  23.238  0.00  0.00     0.137 A 
ATOM      7  N   UNL d   1     -50.205  12.562  23.375  0.00  0.00    -0.215 NA
ATOM      8  N   UNL d   1     -49.292  11.496  23.643  0.00  0.00    -0.222 NA
ATOM      9  C   UNL d   1     -50.066  11.775  23.578  0.00  0.00     0.200 A 
ATOM     10  C   UNL d   1     -47.383  11.222  23.698  0.00  0.00     0.004 A 
ATOM     11  C   UNL d   1     -46.652  12.653  23.322  0.00  0.00     0.025 A 
ATOM     12  C   UNL d   1     -46.560  11.272  23.678  0.00  0.00     0.000 A 
ATOM     13  C   UNL d   1     -46.195  11.987  23.490  0.00  0.00     0.002 A 
ENDROOT
BRANCH   6  14
ATOM     14  S   UNL d   1     -49.709  13.858  23.036  0.00  0.00    -0.062 SA
BRANCH  14  15
ATOM     15  C   UNL d   1     -50.460  14.094  22.787  0.00  0.00     0.082 C 
BRANCH  15  16
ATOM     16  C   UNL d   1     -50.633  14.897  22.704  0.00  0.00     0.241 C 
ATOM     17  O   UNL d   1     -51.056  15.161  22.048  0.00  0.00    -0.283 OA
ENDBRANCH  15  16
ENDBRANCH  14  15
ENDBRANCH   6  14
TORSDOF 3
ENDMDL
MODEL 4
REMARK VINA RESULT:      -7.0      1.632      3.697
REMARK  3 active torsions:
REMARK  status: ('A' for Active; 'I' for Inactive)
REMARK    1  A    between atoms: S_10  and  C_6 
REMARK    2  A    between atoms: C_14  and  S_10 
REMARK    3  A    between atoms: C_15  and  C_14 
ROOT
ATOM      1  C   UNL d   1     -48.085  13.773  22.942  0.00  0.00     0.141 A 
ATOM      2  O   UNL d   1     -48.176  14.588  22.847  0.00  0.00    -0.303 OA
ATOM      3  C   UNL d   1     -48.823  13.453  23.123  0.00  0.00     0.110 A 
ATOM      4  C   UNL d   1     -49.371  14.069  23.141  0.00  0.00     0.043 A 
ATOM      5  C   UNL d   1     -48.971  14.771  22.970  0.00  0.00     0.102 A 
ATOM      6  C   UNL d   1     -47.424  13.282  22.886  0.00  0.00     0.137 A 
ATOM      7  N   UNL d   1     -47.502  12.470  23.011  0.00  0.00    -0.215 NA
ATOM      8  N   UNL d   1     -48.901  12.642  23.248  0.00  0.00    -0.222 NA
ATOM      9  C   UNL d   1     -48.240  12.150  23.192  0.00  0.00     0.200 A 
ATOM     10  C   UNL d   1     -50.182  14.083  23.290  0.00  0.00     0.004 A 
ATOM     11  C   UNL d   1     -49.383  15.486  22.949  0.00  0.00     0.025 A 
ATOM     12  C   UNL d   1     -50.594  14.798  23.269  0.00  0.00     0.000 A 
ATOM     13  C   UNL d   1     -50.194  15.499  23.098  0.00  0.00     0.002 A 
ENDROOT
BRANCH   6  14
ATOM     14  S   UNL d   1     -46.686  13.602  22.705  0.00  0.00    -0.062 SA
BRANCH  14  15
ATOM     15  C   UNL d   1     -46.056  13.104  22.516  0.00  0.00     0.082 C 
BRANCH  15  16
ATOM     16  C   UNL d   1     -45.355  13.422  22.217  0.00  0.00     0.241 C 
ATOM     17  O   UNL d   1     -44.679  12.953  22.166  0.00  0.00    -0.283 OA
ENDBRANCH  15  16
ENDBRANCH  14  15
ENDBRANCH   6  14
TORSDOF 3
ENDMDL
MODEL 5
REMARK VINA RESULT:      -6.2      1.464      2.016
REMARK  3 active torsions:
REMARK  status: ('A' for Active; 'I' for Inactive)
REMARK    1  A    between atoms: S_10  and  C_6 
REMARK    2  A    between atoms: C_14  and  S_10 
REMARK    3  A    between atoms: C_15  and  C_14 
ROOT
ATOM      1  C   UNL d   1     -48.120  13.518  23.096  0.00  0.00     0.141 A 
ATOM      2  O   UNL d   1     -47.672  12.845  23.265  0.00  0.00    -0.303 OA
ATOM      3  C   UNL d   1     -47.619  14.080  22.760  0.00  0.00     0.110 A 
ATOM      4  C   UNL d   1     -46.861  13.756  22.722  0.00  0.00     0.043 A 
ATOM      5  C   UNL d   1     -46.894  12.993  23.034  0.00  0.00     0.102 A 
ATOM      6  C   UNL d   1     -48.920  13.690  23.204  0.00  0.00     0.137 A 
ATOM      7  N   UNL d   1     -49.218  14.424  22.976  0.00  0.00    -0.215 NA
ATOM      8  N   UNL d   1     -47.917  14.815  22.532  0.00  0.00    -0.222 NA
ATOM      9  C   UNL d   1     -48.717  14.987  22.641  0.00  0.00     0.200 A 
ATOM     10  C   UNL d   1     -46.145  14.057  22.443  0.00  0.00     0.004 A 
ATOM     11  C   UNL d   1     -46.212  12.531  23.068  0.00  0.00     0.025 A 
ATOM     12  C   UNL d   1     -45.463  13.595  22.477  0.00  0.00     0.000 A 
ATOM     13  C   UNL d   1     -45.496  12.833  22.789  0.00  0.00     0.002 A 
ENDROOT
BRANCH   6  14
ATOM     14  S   UNL d   1     -49.421  13.127  23.539  0.00  0.00    -0.062 SA
BRANCH  14  15
ATOM     15  C   UNL d   1     -50.219  13.106  23.327  0.00  0.00     0.082 C 
BRANCH  15  16
ATOM     16  C   UNL d   1     -50.692  12.473  23.565  0.00  0.00     0.241 C 
ATOM     17  O   UNL d   1     -51.013  11.964  23.002  0.00  0.00    -0.283 OA
ENDBRANCH  15  16
ENDBRANCH  14  15
ENDBRANCH   6  14
TORSDOF 3
ENDMDL
MODEL 6
REMARK VINA RESULT:      -5.8      8.412      8.953
REMARK  3 active torsions:
REMARK  status: ('A' for Active; 'I' for Inactive)
REMARK    1  A    between atoms: S_10  and  C_6 
REMARK    2  A    between atoms: C_14  and  S_10 
REMARK    3  A    between atoms: C_15  and  C_14 
ROOT
ATOM      1  C   UNL d   1     -40.524  15.242  18.555  0.00  0.00     0.141 A 
ATOM      2  O   UNL d   1     -40.860  15.783  19.081  0.00  0.00    -0.303 OA
ATOM      3  C   UNL d   1     -40.069  14.711  18.991  0.00  0.00     0.110 A 
ATOM      4  C   UNL d   1     -40.123  14.922  19.787  0.00  0.00     0.043 A 
ATOM      5  C   UNL d   1     -40.613  15.585  19.842  0.00  0.00     0.102 A 
ATOM      6  C   UNL d   1     -40.574  15.166  17.734  0.00  0.00     0.137 A 
ATOM      7  N   UNL d   1     -40.168  14.559  17.351  0.00  0.00    -0.215 NA
ATOM      8  N   UNL d   1     -39.663  14.104  18.608  0.00  0.00    -0.222 NA
ATOM      9  C   UNL d   1     -39.713  14.028  17.788  0.00  0.00     0.200 A 
ATOM     10  C   UNL d   1     -39.791  14.598  20.469  0.00  0.00     0.004 A 
ATOM     11  C   UNL d   1     -40.769  15.922  20.579  0.00  0.00     0.025 A 
ATOM     12  C   UNL d   1     -39.947  14.935  21.205  0.00  0.00     0.000 A 
ATOM     13  C   UNL d   1     -40.436  15.597  21.260  0.00  0.00     0.002 A 
ENDROOT
BRANCH   6  14
ATOM     14  S   UNL d   1     -41.029  15.697  17.298  0.00  0.00    -0.062 SA
BRANCH  14  15
ATOM     15  C   UNL d   1     -41.336  15.473  16.565  0.00  0.00     0.082 C 
BRANCH  15  16
ATOM     16  C   UNL d   1     -41.933  15.922  16.214  0.00  0.00     0.241 C 
ATOM     17  O   UNL d   1     -42.492  15.556  15.731  0.00  0.00    -0.283 OA
ENDBRANCH  15  16
ENDBRANCH  14  15
ENDBRANCH   6  14
TORSDOF 3
ENDMDL
MODEL 7
REMARK VINA RESULT:      -5.2      2.194      2.865
REMARK  3 active torsions:
REMARK  status: ('A' for Active; 'I' for Inactive)
REMARK    1  A    between atoms: S_10  and  C_6 
REMARK    2  A    between atoms: C_14  and  S_10 
REMARK    3  A    between atoms: C_15  and  C_14 
ROOT
ATOM      1  C   UNL d   1     -46.372  11.637  23.395  0.00  0.00     0.141 A 
ATOM      2  O   UNL d   1     -46.217  10.865  23.643  0.00  0.00    -0.303 OA
ATOM      3  C   UNL d   1     -45.663  11.969  23.137  0.00  0.00     0.110 A 
ATOM      4  C   UNL d   1     -45.069  11.403  23.225  0.00  0.00     0.043 A 
ATOM      5  C   UNL d   1     -45.412  10.720  23.538  0.00  0.00     0.102 A 
ATOM      6  C   UNL d   1     -47.068  12.079  23.371  0.00  0.00     0.137 A 
ATOM      7  N   UNL d   1     -47.054  12.854  23.089  0.00  0.00    -0.215 NA
ATOM      8  N   UNL d   1     -45.649  12.744  22.855  0.00  0.00    -0.222 NA
ATOM      9  C   UNL d   1     -46.345  13.187  22.831  0.00  0.00     0.200 A 
ATOM     10  C   UNL d   1     -44.260  11.420  23.061  0.00  0.00     0.004 A 
ATOM     11  C   UNL d   1     -44.946  10.056  23.687  0.00  0.00     0.025 A 
ATOM     12  C   UNL d   1     -43.795  10.756  23.210  0.00  0.00     0.000 A 
ATOM     13  C   UNL d   1     -44.137  10.074  23.523  0.00  0.00     0.002 A 
ENDROOT
BRANCH   6  14
ATOM     14  S   UNL d   1     -47.777  11.747  23.629  0.00  0.00    -0.062 SA
BRANCH  14  15
ATOM     15  C   UNL d   1     -48.497  12.068  23.384  0.00  0.00     0.082 C 
BRANCH  15  16
ATOM     16  C   UNL d   1     -49.206  11.765  23.680  0.00  0.00     0.241 C 
ATOM     17  O   UNL d   1     -49.603  11.172  23.268  0.00  0.00    -0.283 OA
ENDBRANCH  15  16
ENDBRANCH  14  15
ENDBRANCH   6  14
TORSDOF 3
ENDMDL
MODEL 8
REMARK VINA RESULT:      -5.2      8.796      9.629
REMARK  3 active torsions:
REMARK  status: ('A' for Active; 'I' for Inactive)
REMARK    1  A    between atoms: S_10  and  C_6 
REMARK    2  A    between atoms: C_14  and  S_10 
REMARK    3  A    between atoms: C_15  and  C_14 
ROOT
ATOM      1  C   UNL d   1     -39.870  14.700  18.321  0.00  0.00     0.141 A 
ATOM      2  O   UNL d   1     -39.447  14.060  18.626  0.00  0.00    -0.303 OA
ATOM      3  C   UNL d   1     -39.706  14.753  17.515  0.00  0.00     0.110 A 
ATOM      4  C   UNL d   1     -39.182  14.146  17.321  0.00  0.00     0.043 A 
ATOM      5  C   UNL d   1     -39.021  13.718  18.008  0.00  0.00     0.102 A 
ATOM      6  C   UNL d   1     -40.385  15.241  18.674  0.00  0.00     0.137 A 
ATOM      7  N   UNL d   1     -40.734  15.834  18.220  0.00  0.00    -0.215 NA
ATOM      8  N   UNL d   1     -40.055  15.346  17.060  0.00  0.00    -0.222 NA
ATOM      9  C   UNL d   1     -40.570  15.887  17.413  0.00  0.00     0.200 A 
ATOM     10  C   UNL d   1     -38.828  13.928  16.608  0.00  0.00     0.004 A 
ATOM     11  C   UNL d   1     -38.509  13.072  17.982  0.00  0.00     0.025 A 
ATOM     12  C   UNL d   1     -38.316  13.282  16.582  0.00  0.00     0.000 A 
ATOM     13  C   UNL d   1     -38.156  12.855  17.269  0.00  0.00     0.002 A 
ENDROOT
BRANCH   6  14
ATOM     14  S   UNL d   1     -40.549  15.188  19.480  0.00  0.00    -0.062 SA
BRANCH  14  15
ATOM     15  C   UNL d   1     -40.937  15.807  19.864  0.00  0.00     0.082 C 
BRANCH  15  16
ATOM     16  C   UNL d   1     -40.964  15.828  20.689  0.00  0.00     0.241 C 
ATOM     17  O   UNL d   1     -41.686  15.922  21.074  0.00  0.00    -0.283 OA
ENDBRANCH  15  16
ENDBRANCH  14  15
ENDBRANCH   6  14
TORSDOF 3
ENDMDL
MODEL 9
REMARK VINA RESULT:      -5.1      8.276      9.156
REMARK  3 active torsions:
REMARK  status: ('A' for Active; 'I' for Inactive)
REMARK    1  A    between atoms: S_10  and  C_6 
REMARK    2  A    between atoms: C_14  and  S_10 
REMARK    3  A    between atoms: C_15  and  C_14 
ROOT
ATOM      1  C   UNL d   1     -40.064  14.821  19.794  0.00  0.00     0.141 A 
ATOM      2  O   UNL d   1     -39.739  14.353  19.196  0.00  0.00    -0.303 OA
ATOM      3  C   UNL d   1     -40.562  15.376  19.442  0.00  0.00     0.110 A 
ATOM      4  C   UNL d   1     -40.546  15.253  18.627  0.00  0.00     0.043 A 
ATOM      5  C   UNL d   1     -40.037  14.620  18.474  0.00  0.00     0.102 A 
ATOM      6  C   UNL d   1     -39.970  14.811  20.614  0.00  0.00     0.137 A 
ATOM      7  N   UNL d   1     -40.375  15.358  21.081  0.00  0.00    -0.215 NA
ATOM      8  N   UNL d   1     -40.966  15.922  19.909  0.00  0.00    -0.222 NA
ATOM      9  C   UNL d   1     -40.872  15.913  20.730  0.00  0.00     0.200 A 
ATOM     10  C   UNL d   1     -40.928  15.633  18.002  0.00  0.00     0.004 A 
ATOM     11  C   UNL d   1     -39.911  14.370  17.699  0.00  0.00     0.025 A 
ATOM     12  C   UNL d   1     -40.801  15.383  17.227  0.00  0.00     0.000 A 
ATOM     13  C   UNL d   1     -40.293  14.752  17.075  0.00  0.00     0.002 A 
ENDROOT
BRANCH   6  14
ATOM     14  S   UNL d   1     -39.472  14.256  20.966  0.00  0.00    -0.062 SA
BRANCH  14  15
ATOM     15  C   UNL d   1     -39.446  14.188  21.788  0.00  0.00     0.082 C 
BRANCH  15  16
ATOM     16  C   UNL d   1     -38.903  13.676  22.142  0.00  0.00     0.241 C 
ATOM     17  O   UNL d   1     -39.068  13.348  22.880  0.00  0.00    -0.283 OA
ENDBRANCH  15  16
ENDBRANCH  14  15
ENDBRANCH   6  14
TORSDOF 3
ENDMDL
