MODEL 1
REMARK VINA RESULT:      -7.2      0.000      0.000
REMARK  4 active torsions:
REMARK  status: ('A' for Active; 'I' for Inactive)
REMARK    1  A    between atoms: S_10  and  C_6 
REMARK    2  A    between atoms: C_16  and  S_10 
REMARK    3  A    between atoms: C_11  and  C_16 
REMARK       I    between atoms: N_13  and  C_11 
REMARK    4  A    between atoms: C_14  and  N_13 
ROOT
ATOM      1  C   UNL d   1     -49.520  14.085  23.039  0.00  0.00     0.155 A 
ATOM      2  C   UNL d   1     -49.102  13.378  23.147  0.00  0.00     0.107 A 
ATOM      3  N   UNL d   1     -48.294  14.762  22.749  0.00  0.00    -0.250 N 
ATOM      4  C   UNL d   1     -49.118  14.774  22.840  0.00  0.00     0.285 A 
ATOM      5  N   UNL d   1     -48.277  13.366  23.055  0.00  0.00    -0.220 NA
ATOM      6  C   UNL d   1     -47.883  14.061  22.856  0.00  0.00     0.182 A 
ATOM      7  N   UNL d   1     -50.321  13.932  23.164  0.00  0.00    -0.239 NA
ATOM      8  C   UNL d   1     -49.640  12.784  23.340  0.00  0.00     0.037 A 
ATOM      9  C   UNL d   1     -50.401  13.127  23.351  0.00  0.00     0.083 A 
ATOM     10  O   UNL d   1     -49.531  15.488  22.730  0.00  0.00    -0.265 OA
ATOM     11  C   UNL d   1     -47.886  15.457  22.548  0.00  0.00     0.104 C 
ATOM     12  C   UNL d   1     -49.548  11.983  23.506  0.00  0.00     0.003 A 
ATOM     13  C   UNL d   1     -51.064  12.662  23.530  0.00  0.00     0.019 A 
ATOM     14  C   UNL d   1     -50.211  11.518  23.685  0.00  0.00     0.000 A 
ATOM     15  C   UNL d   1     -50.962  11.857  23.696  0.00  0.00     0.002 A 
ENDROOT
BRANCH   6  16
ATOM     16  S   UNL d   1     -47.060  14.051  22.764  0.00  0.00    -0.044 SA
BRANCH  16  17
ATOM     17  C   UNL d   1     -46.705  13.514  22.247  0.00  0.00     0.101 C 
BRANCH  17  18
ATOM     18  C   UNL d   1     -45.910  13.316  22.340  0.00  0.00     0.286 C 
ATOM     19  N   UNL d   1     -45.547  12.839  21.781  0.00  0.00    -0.208 NA
ATOM     20  O   UNL d   1     -45.479  13.588  22.983  0.00  0.00    -0.265 OA
BRANCH  19  21
ATOM     21  C   UNL d   1     -44.747  12.635  21.869  0.00  0.00     0.085 A 
ATOM     22  C   UNL d   1     -44.181  13.022  21.428  0.00  0.00     0.019 A 
ATOM     23  C   UNL d   1     -43.381  12.819  21.515  0.00  0.00     0.002 A 
ATOM     24  C   UNL d   1     -42.789  13.211  21.066  0.00  0.00     0.000 C 
ATOM     25  C   UNL d   1     -43.162  12.231  22.046  0.00  0.00     0.000 A 
ATOM     26  C   UNL d   1     -43.741  11.839  22.494  0.00  0.00     0.002 A 
ATOM     27  C   UNL d   1     -44.529  12.046  22.400  0.00  0.00     0.019 A 
ENDBRANCH  19  21
ENDBRANCH  17  18
ENDBRANCH  16  17
ENDBRANCH   6  16
TORSDOF 4
ENDMDL
MODEL 2
REMARK VINA RESULT:      -6.7      1.170      2.021
REMARK  4 active torsions:
REMARK  status: ('A' for Active; 'I' for Inactive)
REMARK    1  A    between atoms: S_10  and  C_6 
REMARK    2  A    between atoms: C_16  and  S_10 
REMARK    3  A    between atoms: C_11  and  C_16 
REMARK       I    between atoms: N_13  and  C_11 
REMARK    4  A    between atoms: C_14  and  N_13 
ROOT
ATOM      1  C   UNL d   1     -49.928  13.190  23.311  0.00  0.00     0.155 A 
ATOM      2  C   UNL d   1     -49.348  13.781  23.285  0.00  0.00     0.107 A 
ATOM      3  N   UNL d   1     -48.913  12.192  23.167  0.00  0.00    -0.250 N 
ATOM      4  C   UNL d   1     -49.712  12.399  23.253  0.00  0.00     0.285 A 
ATOM      5  N   UNL d   1     -48.548  13.573  23.200  0.00  0.00    -0.220 NA
ATOM      6  C   UNL d   1     -48.341  12.779  23.142  0.00  0.00     0.182 A 
ATOM      7  N   UNL d   1     -50.663  13.554  23.398  0.00  0.00    -0.239 NA
ATOM      8  C   UNL d   1     -49.719  14.514  23.356  0.00  0.00     0.037 A 
ATOM      9  C   UNL d   1     -50.538  14.375  23.426  0.00  0.00     0.083 A 
ATOM     10  O   UNL d   1     -50.289  11.800  23.278  0.00  0.00    -0.265 OA
ATOM     11  C   UNL d   1     -48.694  11.393  23.108  0.00  0.00     0.104 C 
ATOM     12  C   UNL d   1     -49.430  15.284  23.366  0.00  0.00     0.003 A 
ATOM     13  C   UNL d   1     -51.063  15.013  23.507  0.00  0.00     0.019 A 
ATOM     14  C   UNL d   1     -49.953  15.922  23.446  0.00  0.00     0.000 A 
ATOM     15  C   UNL d   1     -50.763  15.785  23.516  0.00  0.00     0.002 A 
ENDROOT
BRANCH   6  16
ATOM     16  S   UNL d   1     -47.545  12.570  23.057  0.00  0.00    -0.044 SA
BRANCH  16  17
ATOM     17  C   UNL d   1     -46.985  13.137  22.840  0.00  0.00     0.101 C 
BRANCH  17  18
ATOM     18  C   UNL d   1     -46.184  12.945  22.834  0.00  0.00     0.286 C 
ATOM     19  N   UNL d   1     -45.815  12.783  22.119  0.00  0.00    -0.208 NA
ATOM     20  O   UNL d   1     -45.751  12.915  23.530  0.00  0.00    -0.265 OA
BRANCH  19  21
ATOM     21  C   UNL d   1     -45.007  12.590  22.107  0.00  0.00     0.085 A 
ATOM     22  C   UNL d   1     -44.498  13.018  21.637  0.00  0.00     0.019 A 
ATOM     23  C   UNL d   1     -43.690  12.825  21.624  0.00  0.00     0.002 A 
ATOM     24  C   UNL d   1     -43.154  13.260  21.144  0.00  0.00     0.000 C 
ATOM     25  C   UNL d   1     -43.409  12.205  22.084  0.00  0.00     0.000 A 
ATOM     26  C   UNL d   1     -43.931  11.771  22.561  0.00  0.00     0.002 A 
ATOM     27  C   UNL d   1     -44.727  11.969  22.567  0.00  0.00     0.019 A 
ENDBRANCH  19  21
ENDBRANCH  17  18
ENDBRANCH  16  17
ENDBRANCH   6  16
TORSDOF 4
ENDMDL
MODEL 3
REMARK VINA RESULT:      -6.5      1.520      5.458
REMARK  4 active torsions:
REMARK  status: ('A' for Active; 'I' for Inactive)
REMARK    1  A    between atoms: S_10  and  C_6 
REMARK    2  A    between atoms: C_16  and  S_10 
REMARK    3  A    between atoms: C_11  and  C_16 
REMARK       I    between atoms: N_13  and  C_11 
REMARK    4  A    between atoms: C_14  and  N_13 
ROOT
ATOM      1  C   UNL d   1     -44.474  12.232  22.537  0.00  0.00     0.155 A 
ATOM      2  C   UNL d   1     -44.949  11.739  23.003  0.00  0.00     0.107 A 
ATOM      3  N   UNL d   1     -45.531  13.194  22.483  0.00  0.00    -0.250 N 
ATOM      4  C   UNL d   1     -44.763  12.956  22.278  0.00  0.00     0.285 A 
ATOM      5  N   UNL d   1     -45.718  11.977  23.208  0.00  0.00    -0.220 NA
ATOM      6  C   UNL d   1     -45.999  12.704  22.944  0.00  0.00     0.182 A 
ATOM      7  N   UNL d   1     -43.748  11.858  22.423  0.00  0.00    -0.239 NA
ATOM      8  C   UNL d   1     -44.521  11.057  23.180  0.00  0.00     0.037 A 
ATOM      9  C   UNL d   1     -43.773  11.128  22.820  0.00  0.00     0.083 A 
ATOM     10  O   UNL d   1     -44.292  13.458  21.810  0.00  0.00    -0.265 OA
ATOM     11  C   UNL d   1     -45.825  13.926  22.222  0.00  0.00     0.104 C 
ATOM     12  C   UNL d   1     -44.705  10.383  23.616  0.00  0.00     0.003 A 
ATOM     13  C   UNL d   1     -43.213  10.521  22.900  0.00  0.00     0.019 A 
ATOM     14  C   UNL d   1     -44.146   9.777  23.696  0.00  0.00     0.000 A 
ATOM     15  C   UNL d   1     -43.406   9.847  23.340  0.00  0.00     0.002 A 
ENDROOT
BRANCH   6  16
ATOM     16  S   UNL d   1     -46.765  12.943  23.147  0.00  0.00    -0.044 SA
BRANCH  16  17
ATOM     17  C   UNL d   1     -47.323  12.388  23.396  0.00  0.00     0.101 C 
BRANCH  17  18
ATOM     18  C   UNL d   1     -48.128  12.564  23.355  0.00  0.00     0.286 C 
ATOM     19  N   UNL d   1     -48.645  12.006  23.049  0.00  0.00    -0.208 NA
ATOM     20  O   UNL d   1     -48.417  13.286  23.614  0.00  0.00    -0.265 OA
BRANCH  19  21
ATOM     21  C   UNL d   1     -49.457  12.177  23.005  0.00  0.00     0.085 A 
ATOM     22  C   UNL d   1     -49.741  12.621  22.382  0.00  0.00     0.019 A 
ATOM     23  C   UNL d   1     -50.553  12.792  22.338  0.00  0.00     0.002 A 
ATOM     24  C   UNL d   1     -50.859  13.248  21.702  0.00  0.00     0.000 C 
ATOM     25  C   UNL d   1     -51.064  12.516  22.918  0.00  0.00     0.000 A 
ATOM     26  C   UNL d   1     -50.770  12.065  23.550  0.00  0.00     0.002 A 
ATOM     27  C   UNL d   1     -49.967  11.900  23.586  0.00  0.00     0.019 A 
ENDBRANCH  19  21
ENDBRANCH  17  18
ENDBRANCH  16  17
ENDBRANCH   6  16
TORSDOF 4
ENDMDL
MODEL 4
REMARK VINA RESULT:      -5.1      8.425      9.788
REMARK  4 active torsions:
REMARK  status: ('A' for Active; 'I' for Inactive)
REMARK    1  A    between atoms: S_10  and  C_6 
REMARK    2  A    between atoms: C_16  and  S_10 
REMARK    3  A    between atoms: C_11  and  C_16 
REMARK       I    between atoms: N_13  and  C_11 
REMARK    4  A    between atoms: C_14  and  N_13 
ROOT
ATOM      1  C   UNL d   1     -40.007  15.064  17.152  0.00  0.00     0.155 A 
ATOM      2  C   UNL d   1     -39.375  14.660  17.503  0.00  0.00     0.107 A 
ATOM      3  N   UNL d   1     -40.444  15.497  18.443  0.00  0.00    -0.250 N 
ATOM      4  C   UNL d   1     -40.540  15.480  17.619  0.00  0.00     0.285 A 
ATOM      5  N   UNL d   1     -39.279  14.678  18.328  0.00  0.00    -0.220 NA
ATOM      6  C   UNL d   1     -39.817  15.097  18.788  0.00  0.00     0.182 A 
ATOM      7  N   UNL d   1     -39.963  14.950  16.336  0.00  0.00    -0.239 NA
ATOM      8  C   UNL d   1     -38.935  14.296  16.909  0.00  0.00     0.037 A 
ATOM      9  C   UNL d   1     -39.300  14.475  16.180  0.00  0.00     0.083 A 
ATOM     10  O   UNL d   1     -41.178  15.888  17.273  0.00  0.00    -0.265 OA
ATOM     11  C   UNL d   1     -40.982  15.918  18.916  0.00  0.00     0.104 C 
ATOM     12  C   UNL d   1     -38.258  13.828  16.925  0.00  0.00     0.003 A 
ATOM     13  C   UNL d   1     -38.981  14.182  15.472  0.00  0.00     0.019 A 
ATOM     14  C   UNL d   1     -37.940  13.536  16.219  0.00  0.00     0.000 A 
ATOM     15  C   UNL d   1     -38.300  13.713  15.498  0.00  0.00     0.002 A 
ENDROOT
BRANCH   6  16
ATOM     16  S   UNL d   1     -39.724  15.116  19.610  0.00  0.00    -0.044 SA
BRANCH  16  17
ATOM     17  C   UNL d   1     -39.625  14.415  20.035  0.00  0.00     0.101 C 
BRANCH  17  18
ATOM     18  C   UNL d   1     -39.211  14.418  20.747  0.00  0.00     0.286 C 
ATOM     19  N   UNL d   1     -39.621  14.320  21.451  0.00  0.00    -0.208 NA
ATOM     20  O   UNL d   1     -38.397  14.518  20.762  0.00  0.00    -0.265 OA
BRANCH  19  21
ATOM     21  C   UNL d   1     -39.208  14.322  22.172  0.00  0.00     0.085 A 
ATOM     22  C   UNL d   1     -39.085  15.027  22.564  0.00  0.00     0.019 A 
ATOM     23  C   UNL d   1     -38.673  15.030  23.284  0.00  0.00     0.002 A 
ATOM     24  C   UNL d   1     -38.540  15.749  23.698  0.00  0.00     0.000 C 
ATOM     25  C   UNL d   1     -38.391  14.325  23.599  0.00  0.00     0.000 A 
ATOM     26  C   UNL d   1     -38.517  13.610  23.198  0.00  0.00     0.002 A 
ATOM     27  C   UNL d   1     -38.926  13.617  22.486  0.00  0.00     0.019 A 
ENDBRANCH  19  21
ENDBRANCH  17  18
ENDBRANCH  16  17
ENDBRANCH   6  16
TORSDOF 4
ENDMDL
MODEL 5
REMARK VINA RESULT:      -4.8      2.574      4.327
REMARK  4 active torsions:
REMARK  status: ('A' for Active; 'I' for Inactive)
REMARK    1  A    between atoms: S_10  and  C_6 
REMARK    2  A    between atoms: C_16  and  S_10 
REMARK    3  A    between atoms: C_11  and  C_16 
REMARK       I    between atoms: N_13  and  C_11 
REMARK    4  A    between atoms: C_14  and  N_13 
ROOT
ATOM      1  C   UNL d   1     -45.503  12.264  23.037  0.00  0.00     0.155 A 
ATOM      2  C   UNL d   1     -45.430  12.927  22.546  0.00  0.00     0.107 A 
ATOM      3  N   UNL d   1     -44.215  11.811  22.613  0.00  0.00    -0.250 N 
ATOM      4  C   UNL d   1     -44.899  11.708  23.071  0.00  0.00     0.285 A 
ATOM      5  N   UNL d   1     -44.745  13.030  22.088  0.00  0.00    -0.220 NA
ATOM      6  C   UNL d   1     -44.145  12.469  22.128  0.00  0.00     0.182 A 
ATOM      7  N   UNL d   1     -46.232  12.307  23.421  0.00  0.00    -0.239 NA
ATOM      8  C   UNL d   1     -46.112  13.384  22.623  0.00  0.00     0.037 A 
ATOM      9  C   UNL d   1     -46.613  13.000  23.167  0.00  0.00     0.083 A 
ATOM     10  O   UNL d   1     -44.965  11.039  23.562  0.00  0.00    -0.265 OA
ATOM     11  C   UNL d   1     -43.602  11.251  22.646  0.00  0.00     0.104 C 
ATOM     12  C   UNL d   1     -46.348  14.093  22.277  0.00  0.00     0.003 A 
ATOM     13  C   UNL d   1     -47.349  13.331  23.361  0.00  0.00     0.019 A 
ATOM     14  C   UNL d   1     -47.083  14.423  22.469  0.00  0.00     0.000 A 
ATOM     15  C   UNL d   1     -47.578  14.044  23.007  0.00  0.00     0.002 A 
ENDROOT
BRANCH   6  16
ATOM     16  S   UNL d   1     -43.461  12.569  21.672  0.00  0.00    -0.044 SA
BRANCH  16  17
ATOM     17  C   UNL d   1     -43.222  13.324  21.439  0.00  0.00     0.101 C 
BRANCH  17  18
ATOM     18  C   UNL d   1     -42.497  13.431  21.064  0.00  0.00     0.286 C 
ATOM     19  N   UNL d   1     -42.036  14.081  21.258  0.00  0.00    -0.208 NA
ATOM     20  O   UNL d   1     -42.230  12.898  20.500  0.00  0.00    -0.265 OA
BRANCH  19  21
ATOM     21  C   UNL d   1     -41.303  14.193  20.882  0.00  0.00     0.085 A 
ATOM     22  C   UNL d   1     -40.614  14.084  21.303  0.00  0.00     0.019 A 
ATOM     23  C   UNL d   1     -39.881  14.196  20.928  0.00  0.00     0.002 A 
ATOM     24  C   UNL d   1     -39.163  14.087  21.351  0.00  0.00     0.000 C 
ATOM     25  C   UNL d   1     -39.854  14.417  20.137  0.00  0.00     0.000 A 
ATOM     26  C   UNL d   1     -40.558  14.527  19.712  0.00  0.00     0.002 A 
ATOM     27  C   UNL d   1     -41.277  14.414  20.091  0.00  0.00     0.019 A 
ENDBRANCH  19  21
ENDBRANCH  17  18
ENDBRANCH  16  17
ENDBRANCH   6  16
TORSDOF 4
ENDMDL
