MODEL 1
REMARK VINA RESULT:      -3.3      0.000      0.000
REMARK  2 active torsions:
REMARK  status: ('A' for Active; 'I' for Inactive)
REMARK    1  A    between atoms: C_3  and  C_1 
REMARK       I    between atoms: N_7  and  C_3 
REMARK    2  A    between atoms: C_11  and  N_7 
ROOT
ATOM      1  C   UNL d   1      33.049  19.580 -23.000  0.00  0.00     0.121 A 
ATOM      2  C   UNL d   1      33.154  19.661 -23.816  0.00  0.00     0.305 A 
ATOM      3  C   UNL d   1      32.977  18.829 -22.677  0.00  0.00     0.012 A 
ATOM      4  O   UNL d   1      33.187  19.000 -24.308  0.00  0.00    -0.273 OA
ATOM      5  C   UNL d   1      33.008  18.159 -23.157  0.00  0.00     0.023 A 
ATOM      6  C   UNL d   1      33.114  18.249 -23.976  0.00  0.00     0.103 A 
ATOM      7  O   UNL d   1      33.228  20.426 -24.150  0.00  0.00    -0.259 OA
ATOM      8  C   UNL d   1      32.935  17.404 -22.835  0.00  0.00     0.002 A 
ATOM      9  C   UNL d   1      33.146  17.580 -24.464  0.00  0.00     0.025 A 
ATOM     10  C   UNL d   1      32.967  16.751 -23.312  0.00  0.00     0.000 A 
ATOM     11  C   UNL d   1      33.073  16.842 -24.131  0.00  0.00     0.002 A 
ENDROOT
BRANCH   1  12
ATOM     12  C   UNL d   1      33.017  20.249 -22.512  0.00  0.00     0.284 C 
ATOM     13  N   UNL d   1      32.757  20.166 -21.728  0.00  0.00    -0.208 NA
ATOM     14  O   UNL d   1      33.241  20.976 -22.811  0.00  0.00    -0.265 OA
BRANCH  13  15
ATOM     15  C   UNL d   1      32.728  20.842 -21.248  0.00  0.00     0.085 A 
ATOM     16  C   UNL d   1      32.196  21.459 -21.406  0.00  0.00     0.021 A 
ATOM     17  C   UNL d   1      32.178  22.120 -20.925  0.00  0.00     0.031 A 
ATOM     18  C   UNL d   1      32.684  22.180 -20.283  0.00  0.00     0.140 A 
ATOM     19  C   UNL d   1      33.220  21.567 -20.117  0.00  0.00     0.031 A 
ATOM     20  F   UNL d   1      32.665  22.838 -19.805  0.00  0.00    -0.204 F 
ATOM     21  C   UNL d   1      33.241  20.895 -20.604  0.00  0.00     0.021 A 
ENDBRANCH  13  15
ENDBRANCH   1  12
TORSDOF 2
ENDMDL
MODEL 2
REMARK VINA RESULT:      -3.3      2.120      4.464
REMARK  2 active torsions:
REMARK  status: ('A' for Active; 'I' for Inactive)
REMARK    1  A    between atoms: C_3  and  C_1 
REMARK       I    between atoms: N_7  and  C_3 
REMARK    2  A    between atoms: C_11  and  N_7 
ROOT
ATOM      1  C   UNL d   1      32.978  19.767 -23.047  0.00  0.00     0.121 A 
ATOM      2  C   UNL d   1      33.153  20.467 -23.452  0.00  0.00     0.305 A 
ATOM      3  C   UNL d   1      32.893  19.786 -22.231  0.00  0.00     0.012 A 
ATOM      4  O   UNL d   1      33.241  21.180 -23.049  0.00  0.00    -0.273 OA
ATOM      5  C   UNL d   1      32.978  20.493 -21.815  0.00  0.00     0.023 A 
ATOM      6  C   UNL d   1      33.154  21.191 -22.229  0.00  0.00     0.103 A 
ATOM      7  O   UNL d   1      33.241  20.452 -24.285  0.00  0.00    -0.259 OA
ATOM      8  C   UNL d   1      32.893  20.514 -20.995  0.00  0.00     0.002 A 
ATOM      9  C   UNL d   1      33.241  21.905 -21.816  0.00  0.00     0.025 A 
ATOM     10  C   UNL d   1      32.978  21.211 -20.593  0.00  0.00     0.000 A 
ATOM     11  C   UNL d   1      33.153  21.909 -21.008  0.00  0.00     0.002 A 
ENDROOT
BRANCH   1  12
ATOM     12  C   UNL d   1      32.891  19.054 -23.459  0.00  0.00     0.284 C 
ATOM     13  N   UNL d   1      32.518  18.413 -23.086  0.00  0.00    -0.208 NA
ATOM     14  O   UNL d   1      33.172  18.994 -24.224  0.00  0.00    -0.265 OA
BRANCH  13  15
ATOM     15  C   UNL d   1      32.436  17.703 -23.508  0.00  0.00     0.085 A 
ATOM     16  C   UNL d   1      33.021  17.115 -23.477  0.00  0.00     0.021 A 
ATOM     17  C   UNL d   1      32.927  16.420 -23.897  0.00  0.00     0.031 A 
ATOM     18  C   UNL d   1      32.257  16.296 -24.352  0.00  0.00     0.140 A 
ATOM     19  C   UNL d   1      31.666  16.880 -24.388  0.00  0.00     0.031 A 
ATOM     20  F   UNL d   1      32.165  15.604 -24.769  0.00  0.00    -0.204 F 
ATOM     21  C   UNL d   1      31.758  17.587 -23.963  0.00  0.00     0.021 A 
ENDBRANCH  13  15
ENDBRANCH   1  12
TORSDOF 2
ENDMDL
MODEL 3
REMARK VINA RESULT:      -2.5      1.948      4.708
REMARK  2 active torsions:
REMARK  status: ('A' for Active; 'I' for Inactive)
REMARK    1  A    between atoms: C_3  and  C_1 
REMARK       I    between atoms: N_7  and  C_3 
REMARK    2  A    between atoms: C_11  and  N_7 
ROOT
ATOM      1  C   UNL d   1      32.907  20.863 -21.491  0.00  0.00     0.121 A 
ATOM      2  C   UNL d   1      33.029  20.846 -20.673  0.00  0.00     0.305 A 
ATOM      3  C   UNL d   1      32.700  21.570 -21.851  0.00  0.00     0.012 A 
ATOM      4  O   UNL d   1      32.946  21.527 -20.217  0.00  0.00    -0.273 OA
ATOM      5  C   UNL d   1      32.613  22.260 -21.407  0.00  0.00     0.023 A 
ATOM      6  C   UNL d   1      32.737  22.234 -20.586  0.00  0.00     0.103 A 
ATOM      7  O   UNL d   1      33.241  20.125 -20.301  0.00  0.00    -0.259 OA
ATOM      8  C   UNL d   1      32.405  22.971 -21.767  0.00  0.00     0.002 A 
ATOM      9  C   UNL d   1      32.652  22.924 -20.134  0.00  0.00     0.025 A 
ATOM     10  C   UNL d   1      32.321  23.644 -21.325  0.00  0.00     0.000 A 
ATOM     11  C   UNL d   1      32.446  23.617 -20.504  0.00  0.00     0.002 A 
ENDROOT
BRANCH   1  12
ATOM     12  C   UNL d   1      32.993  20.174 -21.943  0.00  0.00     0.284 C 
ATOM     13  N   UNL d   1      32.829  20.200 -22.756  0.00  0.00    -0.208 NA
ATOM     14  O   UNL d   1      33.236  19.483 -21.581  0.00  0.00    -0.265 OA
BRANCH  13  15
ATOM     15  C   UNL d   1      32.918  19.504 -23.199  0.00  0.00     0.085 A 
ATOM     16  C   UNL d   1      32.778  18.759 -22.862  0.00  0.00     0.021 A 
ATOM     17  C   UNL d   1      32.869  18.081 -23.310  0.00  0.00     0.031 A 
ATOM     18  C   UNL d   1      33.099  18.129 -24.095  0.00  0.00     0.140 A 
ATOM     19  C   UNL d   1      33.241  18.872 -24.441  0.00  0.00     0.031 A 
ATOM     20  F   UNL d   1      33.189  17.454 -24.540  0.00  0.00    -0.204 F 
ATOM     21  C   UNL d   1      33.149  19.562 -23.989  0.00  0.00     0.021 A 
ENDBRANCH  13  15
ENDBRANCH   1  12
TORSDOF 2
ENDMDL
MODEL 4
REMARK VINA RESULT:      -2.4      4.161      5.564
REMARK  2 active torsions:
REMARK  status: ('A' for Active; 'I' for Inactive)
REMARK    1  A    between atoms: C_3  and  C_1 
REMARK       I    between atoms: N_7  and  C_3 
REMARK    2  A    between atoms: C_11  and  N_7 
ROOT
ATOM      1  C   UNL d   1      30.801  16.728 -24.108  0.00  0.00     0.121 A 
ATOM      2  C   UNL d   1      31.266  16.316 -24.653  0.00  0.00     0.305 A 
ATOM      3  C   UNL d   1      31.069  17.446 -23.813  0.00  0.00     0.012 A 
ATOM      4  O   UNL d   1      31.993  16.614 -24.903  0.00  0.00    -0.273 OA
ATOM      5  C   UNL d   1      31.794  17.756 -24.054  0.00  0.00     0.023 A 
ATOM      6  C   UNL d   1      32.255  17.335 -24.603  0.00  0.00     0.103 A 
ATOM      7  O   UNL d   1      30.996  15.583 -24.957  0.00  0.00    -0.259 OA
ATOM      8  C   UNL d   1      32.065  18.476 -23.759  0.00  0.00     0.002 A 
ATOM      9  C   UNL d   1      32.985  17.642 -24.849  0.00  0.00     0.025 A 
ATOM     10  C   UNL d   1      32.778  18.775 -24.001  0.00  0.00     0.000 A 
ATOM     11  C   UNL d   1      33.238  18.353 -24.549  0.00  0.00     0.002 A 
ENDROOT
BRANCH   1  12
ATOM     12  C   UNL d   1      30.072  16.422 -23.861  0.00  0.00     0.284 C 
ATOM     13  N   UNL d   1      29.372  16.759 -24.153  0.00  0.00    -0.208 NA
ATOM     14  O   UNL d   1      30.055  15.796 -23.337  0.00  0.00    -0.265 OA
BRANCH  13  15
ATOM     15  C   UNL d   1      28.646  16.445 -23.900  0.00  0.00     0.085 A 
ATOM     16  C   UNL d   1      28.338  15.752 -24.236  0.00  0.00     0.021 A 
ATOM     17  C   UNL d   1      27.622  15.453 -23.978  0.00  0.00     0.031 A 
ATOM     18  C   UNL d   1      27.202  15.833 -23.386  0.00  0.00     0.140 A 
ATOM     19  C   UNL d   1      27.504  16.528 -23.044  0.00  0.00     0.031 A 
ATOM     20  F   UNL d   1      26.490  15.535 -23.129  0.00  0.00    -0.204 F 
ATOM     21  C   UNL d   1      28.230  16.834 -23.304  0.00  0.00     0.021 A 
ENDBRANCH  13  15
ENDBRANCH   1  12
TORSDOF 2
ENDMDL
MODEL 5
REMARK VINA RESULT:      -2.3      1.827      4.769
REMARK  2 active torsions:
REMARK  status: ('A' for Active; 'I' for Inactive)
REMARK    1  A    between atoms: C_3  and  C_1 
REMARK       I    between atoms: N_7  and  C_3 
REMARK    2  A    between atoms: C_11  and  N_7 
ROOT
ATOM      1  C   UNL d   1      32.798  21.883 -21.242  0.00  0.00     0.121 A 
ATOM      2  C   UNL d   1      32.450  22.603 -21.454  0.00  0.00     0.305 A 
ATOM      3  C   UNL d   1      33.056  21.775 -20.471  0.00  0.00     0.012 A 
ATOM      4  O   UNL d   1      32.359  23.210 -20.904  0.00  0.00    -0.273 OA
ATOM      5  C   UNL d   1      32.972  22.373 -19.909  0.00  0.00     0.023 A 
ATOM      6  C   UNL d   1      32.621  23.093 -20.131  0.00  0.00     0.103 A 
ATOM      7  O   UNL d   1      32.185  22.719 -22.241  0.00  0.00    -0.259 OA
ATOM      8  C   UNL d   1      33.230  22.265 -19.134  0.00  0.00     0.002 A 
ATOM      9  C   UNL d   1      32.534  23.698 -19.571  0.00  0.00     0.025 A 
ATOM     10  C   UNL d   1      33.145  22.857 -18.589  0.00  0.00     0.000 A 
ATOM     11  C   UNL d   1      32.794  23.576 -18.811  0.00  0.00     0.002 A 
ENDROOT
BRANCH   1  12
ATOM     12  C   UNL d   1      32.886  21.278 -21.801  0.00  0.00     0.284 C 
ATOM     13  N   UNL d   1      32.760  20.492 -21.569  0.00  0.00    -0.208 NA
ATOM     14  O   UNL d   1      33.093  21.466 -22.568  0.00  0.00    -0.265 OA
BRANCH  13  15
ATOM     15  C   UNL d   1      32.850  19.893 -22.136  0.00  0.00     0.085 A 
ATOM     16  C   UNL d   1      32.650  20.021 -22.932  0.00  0.00     0.021 A 
ATOM     17  C   UNL d   1      32.743  19.423 -23.481  0.00  0.00     0.031 A 
ATOM     18  C   UNL d   1      33.035  18.692 -23.253  0.00  0.00     0.140 A 
ATOM     19  C   UNL d   1      33.238  18.555 -22.459  0.00  0.00     0.031 A 
ATOM     20  F   UNL d   1      33.128  18.097 -23.800  0.00  0.00    -0.204 F 
ATOM     21  C   UNL d   1      33.144  19.160 -21.899  0.00  0.00     0.021 A 
ENDBRANCH  13  15
ENDBRANCH   1  12
TORSDOF 2
ENDMDL
