MODEL 1
REMARK VINA RESULT:      -2.9      0.000      0.000
REMARK  1 active torsions:
REMARK  status: ('A' for Active; 'I' for Inactive)
REMARK    1  A    between atoms: C_5  and  C_1 
ROOT
ATOM      1  C   UNL d   1      23.838  12.795  -0.675  0.00  0.00     0.169 A 
ATOM      2  N   UNL d   1      24.245  12.152  -0.374  0.00  0.00    -0.142 NA
ATOM      3  C   UNL d   1      23.983  12.830  -1.481  0.00  0.00     0.048 A 
ATOM      4  N   UNL d   1      24.646  11.783  -0.994  0.00  0.00    -0.148 NA
ATOM      5  C   UNL d   1      24.483  12.205  -1.683  0.00  0.00     0.105 A 
ATOM      6  C   UNL d   1      24.768  12.034  -2.438  0.00  0.00     0.023 C 
ENDROOT
BRANCH   1   7
ATOM      7  C   UNL d   1      23.363  13.318  -0.242  0.00  0.00     0.231 C 
ATOM      8  O   UNL d   1      23.665  14.050  -0.014  0.00  0.00    -0.643 OA
ATOM      9  O   UNL d   1      22.594  13.106  -0.041  0.00  0.00    -0.643 OA
ENDBRANCH   1   7
TORSDOF 1
ENDMDL
MODEL 2
REMARK VINA RESULT:      -1.5      1.665      2.172
REMARK  1 active torsions:
REMARK  status: ('A' for Active; 'I' for Inactive)
REMARK    1  A    between atoms: C_5  and  C_1 
ROOT
ATOM      1  C   UNL d   1      24.135  12.674  -1.260  0.00  0.00     0.169 A 
ATOM      2  N   UNL d   1      23.722  12.514  -0.571  0.00  0.00    -0.142 NA
ATOM      3  C   UNL d   1      24.574  13.355  -1.137  0.00  0.00     0.048 A 
ATOM      4  N   UNL d   1      23.905  13.097  -0.015  0.00  0.00    -0.148 NA
ATOM      5  C   UNL d   1      24.434  13.620  -0.368  0.00  0.00     0.105 A 
ATOM      6  C   UNL d   1      24.766  14.289  -0.016  0.00  0.00     0.023 C 
ENDROOT
BRANCH   1   7
ATOM      7  C   UNL d   1      24.112  12.227  -1.957  0.00  0.00     0.231 C 
ATOM      8  O   UNL d   1      24.768  11.780  -2.177  0.00  0.00    -0.643 OA
ATOM      9  O   UNL d   1      23.437  12.231  -2.427  0.00  0.00    -0.643 OA
ENDBRANCH   1   7
TORSDOF 1
ENDMDL
