MODEL 1
REMARK VINA RESULT:      83.5      0.000      0.000
REMARK  8 active torsions:
REMARK  status: ('A' for Active; 'I' for Inactive)
REMARK    1  A    between atoms: N_3  and  C_1 
REMARK    2  A    between atoms: C_20  and  N_2 
REMARK       I    between atoms: C_7  and  N_3 
REMARK    3  A    between atoms: C_10  and  C_7 
REMARK    4  A    between atoms: C_9  and  C_10 
REMARK    5  A    between atoms: C_15  and  C_9 
REMARK       I    between atoms: C_12  and  N_13 
REMARK    6  A    between atoms: N_13  and  C_14 
REMARK    7  A    between atoms: C_26  and  C_20 
REMARK    8  A    between atoms: O_22  and  C_26 
ROOT
ATOM      1  C   UNL d   1      57.906  49.414  51.757  0.00  0.00     0.182 A 
ATOM      2  N   UNL d   1      57.158  49.078  51.796  0.00  0.00    -0.283 N 
ATOM      3  S   UNL d   1      58.096  49.700  52.507  0.00  0.00    -0.048 SA
ATOM      4  C   UNL d   1      57.460  49.537  53.011  0.00  0.00     0.050 A 
ATOM      5  C   UNL d   1      56.878  49.151  52.570  0.00  0.00     0.072 A 
ATOM      6  C   UNL d   1      57.337  49.691  53.812  0.00  0.00     0.027 A 
ATOM      7  C   UNL d   1      56.173  48.919  52.930  0.00  0.00     0.020 A 
ATOM      8  C   UNL d   1      56.632  49.459  54.171  0.00  0.00     0.085 A 
ATOM      9  C   UNL d   1      56.050  49.073  53.730  0.00  0.00     0.021 A 
ENDROOT
BRANCH   1  10
ATOM     10  N   UNL d   1      58.380  49.455  51.081  0.00  0.00    -0.184 NA
ATOM     11  C   UNL d   1      59.198  49.509  51.161  0.00  0.00     0.281 C 
ATOM     12  O   UNL d   1      59.537  49.520  51.913  0.00  0.00    -0.265 OA
BRANCH  11  13
ATOM     13  C   UNL d   1      59.678  49.551  50.490  0.00  0.00     0.063 C 
BRANCH  13  14
ATOM     14  C   UNL d   1      60.490  49.447  50.556  0.00  0.00     0.006 C 
BRANCH  14  15
ATOM     15  C   UNL d   1      60.853  48.771  50.273  0.00  0.00     0.011 A 
ATOM     16  C   UNL d   1      61.315  48.305  50.781  0.00  0.00     0.058 A 
ATOM     17 CL   UNL d   1      61.405  48.531  51.580  0.00  0.00    -0.082 Cl
ATOM     18  C   UNL d   1      61.688  47.611  50.491  0.00  0.00     0.011 A 
ATOM     19  C   UNL d   1      61.604  47.384  49.713  0.00  0.00     0.001 A 
ATOM     20  C   UNL d   1      61.143  47.847  49.202  0.00  0.00     0.000 A 
ATOM     21  C   UNL d   1      60.773  48.535  49.487  0.00  0.00     0.001 A 
ENDBRANCH  14  15
ENDBRANCH  13  14
ENDBRANCH  11  13
ENDBRANCH   1  10
BRANCH   2  22
ATOM     22  C   UNL d   1      56.747  48.723  51.171  0.00  0.00     0.108 C 
BRANCH  22  23
ATOM     23  C   UNL d   1      56.336  49.183  50.626  0.00  0.00     0.135 C 
BRANCH  23  24
ATOM     24  O   UNL d   1      56.461  49.079  49.820  0.00  0.00    -0.325 OA
ATOM     25  C   UNL d   1      56.099  49.582  49.268  0.00  0.00     0.182 C 
ENDBRANCH  23  24
ENDBRANCH  22  23
ENDBRANCH   2  22
BRANCH   8  26
ATOM     26  N   UNL d   1      56.506  49.615  54.985  0.00  0.00    -0.208 NA
ATOM     27  C   UNL d   1      56.379  48.994  55.501  0.00  0.00     0.279 C 
ATOM     28  O   UNL d   1      56.255  49.149  56.301  0.00  0.00    -0.265 OA
ATOM     29  C   UNL d   1      56.374  48.213  55.233  0.00  0.00     0.068 C 
ENDBRANCH   8  26
TORSDOF 8
ENDMDL
