MODEL 1
REMARK VINA RESULT:      -1.1      0.000      0.000
REMARK  6 active torsions:
REMARK  status: ('A' for Active; 'I' for Inactive)
REMARK    1  A    between atoms: C_11  and  S_1 
REMARK    2  A    between atoms: C_2  and  C_5 
REMARK       I    between atoms: N_3  and  C_2 
REMARK    3  A    between atoms: C_12  and  N_3 
REMARK    4  A    between atoms: N_4  and  C_5 
REMARK       I    between atoms: C_6  and  N_4 
REMARK    5  A    between atoms: C_5  and  C_7 
REMARK    6  A    between atoms: C_7  and  C_11 
ROOT
ATOM      1  C   UNL d   1      32.166  17.726 -24.345  0.00  0.00     0.143 C 
ENDROOT
BRANCH   1   2
ATOM      2  C   UNL d   1      31.407  17.428 -24.496  0.00  0.00     0.297 C 
ATOM      3  N   UNL d   1      30.766  17.687 -24.051  0.00  0.00    -0.207 NA
ATOM      4  O   UNL d   1      31.293  16.870 -25.097  0.00  0.00    -0.264 OA
BRANCH   3   5
ATOM      5  C   UNL d   1      30.002  17.381 -24.211  0.00  0.00     0.085 A 
ATOM      6  C   UNL d   1      29.684  16.850 -23.659  0.00  0.00     0.019 A 
ATOM      7  C   UNL d   1      28.919  16.541 -23.814  0.00  0.00     0.002 A 
ATOM      8  C   UNL d   1      28.581  16.000 -23.264  0.00  0.00     0.000 C 
ATOM      9  C   UNL d   1      28.510  16.757 -24.480  0.00  0.00     0.000 A 
ATOM     10  C   UNL d   1      28.854  17.289 -25.012  0.00  0.00     0.002 A 
ATOM     11  C   UNL d   1      29.605  17.598 -24.869  0.00  0.00     0.019 A 
ENDBRANCH   3   5
ENDBRANCH   1   2
BRANCH   1  12
ATOM     12  N   UNL d   1      32.479  18.315 -24.828  0.00  0.00    -0.203 NA
ATOM     13  C   UNL d   1      32.492  19.095 -24.570  0.00  0.00     0.280 C 
ATOM     14  O   UNL d   1      32.193  19.288 -23.830  0.00  0.00    -0.265 OA
ATOM     15  C   UNL d   1      32.805  19.684 -25.054  0.00  0.00     0.068 C 
ENDBRANCH   1  12
BRANCH   1  16
ATOM     16  C   UNL d   1      32.605  17.435 -23.713  0.00  0.00     0.036 C 
BRANCH  16  17
ATOM     17  C   UNL d   1      33.008  16.723 -23.789  0.00  0.00     0.096 C 
BRANCH  17  18
ATOM     18  S   UNL d   1      33.126  16.247 -23.129  0.00  0.00     0.192 S 
ATOM     19  O   UNL d   1      33.224  15.605 -22.608  0.00  0.00    -0.222 OA
ATOM     20  O   UNL d   1      33.035  15.712 -23.756  0.00  0.00    -0.222 OA
ATOM     21  C   UNL d   1      33.239  16.592 -22.391  0.00  0.00     0.145 C 
ENDBRANCH  17  18
ENDBRANCH  16  17
ENDBRANCH   1  16
TORSDOF 6
ENDMDL
MODEL 2
REMARK VINA RESULT:      -0.4      2.071      3.754
REMARK  6 active torsions:
REMARK  status: ('A' for Active; 'I' for Inactive)
REMARK    1  A    between atoms: C_11  and  S_1 
REMARK    2  A    between atoms: C_2  and  C_5 
REMARK       I    between atoms: N_3  and  C_2 
REMARK    3  A    between atoms: C_12  and  N_3 
REMARK    4  A    between atoms: N_4  and  C_5 
REMARK       I    between atoms: C_6  and  N_4 
REMARK    5  A    between atoms: C_5  and  C_7 
REMARK    6  A    between atoms: C_7  and  C_11 
ROOT
ATOM      1  C   UNL d   1      32.153  18.274 -23.610  0.00  0.00     0.143 C 
ENDROOT
BRANCH   1   2
ATOM      2  C   UNL d   1      32.512  18.977 -23.358  0.00  0.00     0.297 C 
ATOM      3  N   UNL d   1      32.146  19.447 -22.791  0.00  0.00    -0.207 NA
ATOM      4  O   UNL d   1      33.240  19.209 -23.677  0.00  0.00    -0.264 OA
BRANCH   3   5
ATOM      5  C   UNL d   1      32.516  20.157 -22.541  0.00  0.00     0.085 A 
ATOM      6  C   UNL d   1      32.688  20.230 -21.734  0.00  0.00     0.019 A 
ATOM      7  C   UNL d   1      33.058  20.940 -21.478  0.00  0.00     0.002 A 
ATOM      8  C   UNL d   1      33.240  21.031 -20.661  0.00  0.00     0.000 C 
ATOM      9  C   UNL d   1      33.238  21.528 -22.006  0.00  0.00     0.000 A 
ATOM     10  C   UNL d   1      33.054  21.425 -22.806  0.00  0.00     0.002 A 
ATOM     11  C   UNL d   1      32.691  20.732 -23.067  0.00  0.00     0.019 A 
ENDBRANCH   3   5
ENDBRANCH   1   2
BRANCH   1  12
ATOM     12  N   UNL d   1      31.341  18.253 -23.743  0.00  0.00    -0.203 NA
ATOM     13  C   UNL d   1      31.041  18.436 -24.486  0.00  0.00     0.280 C 
ATOM     14  O   UNL d   1      31.552  18.639 -25.096  0.00  0.00    -0.265 OA
ATOM     15  C   UNL d   1      30.228  18.416 -24.619  0.00  0.00     0.068 C 
ENDBRANCH   1  12
BRANCH   1  16
ATOM     16  C   UNL d   1      32.607  17.598 -23.727  0.00  0.00     0.036 C 
BRANCH  16  17
ATOM     17  C   UNL d   1      32.824  17.134 -23.084  0.00  0.00     0.096 C 
BRANCH  17  18
ATOM     18  S   UNL d   1      33.031  16.347 -23.199  0.00  0.00     0.192 S 
ATOM     19  O   UNL d   1      33.241  15.547 -23.097  0.00  0.00    -0.222 OA
ATOM     20  O   UNL d   1      33.000  16.435 -22.375  0.00  0.00    -0.222 OA
ATOM     21  C   UNL d   1      33.116  16.054 -23.963  0.00  0.00     0.145 C 
ENDBRANCH  17  18
ENDBRANCH  16  17
ENDBRANCH   1  16
TORSDOF 6
ENDMDL
MODEL 3
REMARK VINA RESULT:       0.4      3.315      4.554
REMARK  6 active torsions:
REMARK  status: ('A' for Active; 'I' for Inactive)
REMARK    1  A    between atoms: C_11  and  S_1 
REMARK    2  A    between atoms: C_2  and  C_5 
REMARK       I    between atoms: N_3  and  C_2 
REMARK    3  A    between atoms: C_12  and  N_3 
REMARK    4  A    between atoms: N_4  and  C_5 
REMARK       I    between atoms: C_6  and  N_4 
REMARK    5  A    between atoms: C_5  and  C_7 
REMARK    6  A    between atoms: C_7  and  C_11 
ROOT
ATOM      1  C   UNL d   1      32.788  21.387 -22.597  0.00  0.00     0.143 C 
ENDROOT
BRANCH   1   2
ATOM      2  C   UNL d   1      32.635  20.635 -22.909  0.00  0.00     0.297 C 
ATOM      3  N   UNL d   1      33.241  20.202 -23.259  0.00  0.00    -0.207 NA
ATOM      4  O   UNL d   1      31.872  20.317 -22.871  0.00  0.00    -0.264 OA
BRANCH   3   5
ATOM      5  C   UNL d   1      33.078  19.443 -23.573  0.00  0.00     0.085 A 
ATOM      6  C   UNL d   1      33.236  18.791 -23.086  0.00  0.00     0.019 A 
ATOM      7  C   UNL d   1      33.075  18.026 -23.396  0.00  0.00     0.002 A 
ATOM      8  C   UNL d   1      33.229  17.353 -22.915  0.00  0.00     0.000 C 
ATOM      9  C   UNL d   1      32.776  17.936 -24.144  0.00  0.00     0.000 A 
ATOM     10  C   UNL d   1      32.629  18.606 -24.606  0.00  0.00     0.002 A 
ATOM     11  C   UNL d   1      32.784  19.361 -24.311  0.00  0.00     0.019 A 
ENDBRANCH   3   5
ENDBRANCH   1   2
BRANCH   1  12
ATOM     12  N   UNL d   1      33.056  21.990 -23.091  0.00  0.00    -0.203 NA
ATOM     13  C   UNL d   1      32.531  22.560 -23.365  0.00  0.00     0.280 C 
ATOM     14  O   UNL d   1      31.740  22.529 -23.146  0.00  0.00    -0.265 OA
ATOM     15  C   UNL d   1      32.800  23.163 -23.859  0.00  0.00     0.068 C 
ENDBRANCH   1  12
BRANCH   1  16
ATOM     16  C   UNL d   1      32.672  21.533 -21.795  0.00  0.00     0.036 C 
BRANCH  16  17
ATOM     17  C   UNL d   1      33.222  21.263 -21.247  0.00  0.00     0.096 C 
BRANCH  17  18
ATOM     18  S   UNL d   1      33.128  21.443 -20.451  0.00  0.00     0.192 S 
ATOM     19  O   UNL d   1      32.990  21.412 -19.630  0.00  0.00    -0.222 OA
ATOM     20  O   UNL d   1      32.982  20.628 -20.498  0.00  0.00    -0.222 OA
ATOM     21  C   UNL d   1      33.232  22.217 -20.191  0.00  0.00     0.145 C 
ENDBRANCH  17  18
ENDBRANCH  16  17
ENDBRANCH   1  16
TORSDOF 6
ENDMDL
