MODEL 1
REMARK VINA RESULT:      36.5      0.000      0.000
REMARK  5 active torsions:
REMARK  status: ('A' for Active; 'I' for Inactive)
REMARK    1  A    between atoms: C_8  and  C_1 
REMARK    2  A    between atoms: N_9  and  C_8 
REMARK    3  A    between atoms: C_15  and  C_8 
REMARK    4  A    between atoms: C_16  and  N_11 
REMARK    5  A    between atoms: C_19  and  C_16 
ROOT
ATOM      1  C   UNL d   1      46.050 -18.243  43.378  0.00  0.00     0.075 C 
ENDROOT
BRANCH   1   2
ATOM      2  C   UNL d   1      46.034 -18.256  42.550  0.00  0.00     0.106 A 
ATOM      3  C   UNL d   1      45.395 -18.020  42.069  0.00  0.00     0.290 A 
ATOM      4  N   UNL d   1      45.616 -18.123  41.281  0.00  0.00    -0.169 N 
ATOM      5  O   UNL d   1      44.665 -17.732  42.338  0.00  0.00    -0.265 OA
ATOM      6  N   UNL d   1      45.367 -18.044  40.501  0.00  0.00    -0.138 NA
ATOM      7  C   UNL d   1      46.389 -18.422  41.270  0.00  0.00     0.200 A 
ATOM      8  C   UNL d   1      45.979 -18.291  40.005  0.00  0.00     0.222 A 
ATOM      9  N   UNL d   1      46.610 -18.525  40.482  0.00  0.00    -0.197 NA
ATOM     10  S   UNL d   1      46.647 -18.504  42.049  0.00  0.00    -0.042 SA
ENDBRANCH   1   2
BRANCH   1  11
ATOM     11  N   UNL d   1      45.959 -17.526  43.772  0.00  0.00    -0.301 N 
ATOM     12  C   UNL d   1      46.551 -16.949  43.714  0.00  0.00     0.100 A 
ATOM     13  C   UNL d   1      46.466 -16.225  44.107  0.00  0.00     0.100 A 
ATOM     14  N   UNL d   1      45.781 -16.075  44.564  0.00  0.00    -0.300 N 
ATOM     15  C   UNL d   1      45.196 -16.658  44.615  0.00  0.00     0.100 A 
ATOM     16  C   UNL d   1      45.287 -17.376  44.221  0.00  0.00     0.100 A 
BRANCH  14  17
ATOM     17  C   UNL d   1      45.694 -15.361  44.954  0.00  0.00     0.080 C 
BRANCH  17  18
ATOM     18  C   UNL d   1      45.511 -14.679  44.529  0.00  0.00     0.018 A 
ATOM     19  C   UNL d   1      46.110 -14.183  44.260  0.00  0.00     0.002 A 
ATOM     20  C   UNL d   1      45.931 -13.507  43.839  0.00  0.00     0.000 A 
ATOM     21  C   UNL d   1      45.143 -13.317  43.680  0.00  0.00     0.000 A 
ATOM     22  C   UNL d   1      44.535 -13.811  43.948  0.00  0.00     0.000 A 
ATOM     23  C   UNL d   1      44.725 -14.492  44.372  0.00  0.00     0.002 A 
ENDBRANCH  17  18
ENDBRANCH  14  17
ENDBRANCH   1  11
BRANCH   1  24
ATOM     24  C   UNL d   1      46.157 -18.941  43.798  0.00  0.00     0.017 A 
ATOM     25  C   UNL d   1      46.534 -18.912  44.534  0.00  0.00     0.002 A 
ATOM     26  C   UNL d   1      46.640 -19.618  44.955  0.00  0.00     0.000 A 
ATOM     27  C   UNL d   1      46.382 -20.320  44.655  0.00  0.00     0.000 A 
ATOM     28  C   UNL d   1      46.001 -20.328  43.906  0.00  0.00     0.000 A 
ATOM     29  C   UNL d   1      45.892 -19.648  43.487  0.00  0.00     0.002 A 
ENDBRANCH   1  24
TORSDOF 5
ENDMDL
