MODEL 1
REMARK VINA RESULT:      18.0      0.000      0.000
REMARK  6 active torsions:
REMARK  status: ('A' for Active; 'I' for Inactive)
REMARK       I    between atoms: C_2  and  N_1 
REMARK    1  A    between atoms: C_3  and  N_1 
REMARK    2  A    between atoms: C_8  and  C_2 
REMARK    3  A    between atoms: C_4  and  C_9 
REMARK    4  A    between atoms: O_10  and  C_4 
REMARK    5  A    between atoms: O_11  and  C_5 
REMARK    6  A    between atoms: C_9  and  C_8 
ROOT
ATOM      1  N   UNL d   1      58.807  49.555  51.585  0.00  0.00    -0.320 N 
ATOM      2  C   UNL d   1      58.009  49.548  51.317  0.00  0.00     0.258 C 
ATOM      3  O   UNL d   1      57.392  49.501  51.857  0.00  0.00    -0.267 OA
ATOM      4  H   UNL d   1      58.972  49.515  52.388  0.00  0.00     0.169 HD
ENDROOT
BRANCH   1   5
ATOM      5  C   UNL d   1      59.430  49.603  51.021  0.00  0.00     0.082 A 
ATOM      6  C   UNL d   1      60.224  49.596  51.287  0.00  0.00     0.110 A 
ATOM      7  C   UNL d   1      60.844  49.644  50.735  0.00  0.00     0.026 A 
ATOM      8  C   UNL d   1      60.676  49.696  49.938  0.00  0.00     0.002 A 
ATOM      9  C   UNL d   1      59.894  49.703  49.677  0.00  0.00     0.002 A 
ATOM     10  C   UNL d   1      59.279  49.657  50.211  0.00  0.00     0.019 A 
BRANCH   6  11
ATOM     11  O   UNL d   1      60.386  49.542  52.101  0.00  0.00    -0.327 OA
ATOM     12  C   UNL d   1      61.145  49.705  52.378  0.00  0.00     0.181 C 
ENDBRANCH   6  11
ENDBRANCH   1   5
BRANCH   2  13
ATOM     13  C   UNL d   1      57.844  49.588  50.508  0.00  0.00     0.067 C 
BRANCH  13  14
ATOM     14  C   UNL d   1      57.067  49.686  50.249  0.00  0.00     0.072 C 
BRANCH  14  15
ATOM     15  C   UNL d   1      56.798  49.278  49.588  0.00  0.00     0.178 C 
ATOM     16  O   UNL d   1      56.700  49.673  48.871  0.00  0.00    -0.646 OA
BRANCH  15  17
ATOM     17  O   UNL d   1      56.625  48.474  49.638  0.00  0.00    -0.773 OA
ATOM     18  H   UNL d   1      56.890  48.040  50.287  0.00  0.00     0.167 HD
ENDBRANCH  15  17
ENDBRANCH  14  15
ENDBRANCH  13  14
ENDBRANCH   2  13
TORSDOF 6
ENDMDL
MODEL 2
REMARK VINA RESULT:      19.1      1.133      3.256
REMARK  6 active torsions:
REMARK  status: ('A' for Active; 'I' for Inactive)
REMARK       I    between atoms: C_2  and  N_1 
REMARK    1  A    between atoms: C_3  and  N_1 
REMARK    2  A    between atoms: C_8  and  C_2 
REMARK    3  A    between atoms: C_4  and  C_9 
REMARK    4  A    between atoms: O_10  and  C_4 
REMARK    5  A    between atoms: O_11  and  C_5 
REMARK    6  A    between atoms: C_9  and  C_8 
ROOT
ATOM      1  N   UNL d   1      58.405  49.625  51.596  0.00  0.00    -0.320 N 
ATOM      2  C   UNL d   1      59.246  49.656  51.621  0.00  0.00     0.258 C 
ATOM      3  O   UNL d   1      59.638  49.635  52.343  0.00  0.00    -0.267 OA
ATOM      4  H   UNL d   1      57.973  49.573  52.292  0.00  0.00     0.169 HD
ENDROOT
BRANCH   1   5
ATOM      5  C   UNL d   1      58.014  49.647  50.851  0.00  0.00     0.082 A 
ATOM      6  C   UNL d   1      57.178  49.686  50.827  0.00  0.00     0.110 A 
ATOM      7  C   UNL d   1      56.787  49.708  50.094  0.00  0.00     0.026 A 
ATOM      8  C   UNL d   1      57.218  49.692  49.402  0.00  0.00     0.002 A 
ATOM      9  C   UNL d   1      58.042  49.654  49.425  0.00  0.00     0.002 A 
ATOM     10  C   UNL d   1      58.435  49.631  50.140  0.00  0.00     0.019 A 
BRANCH   6  11
ATOM     11  O   UNL d   1      56.747  49.702  51.538  0.00  0.00    -0.327 OA
ATOM     12  C   UNL d   1      56.039  49.282  51.595  0.00  0.00     0.181 C 
ENDBRANCH   6  11
ENDBRANCH   1   5
BRANCH   2  13
ATOM     13  C   UNL d   1      59.679  49.707  50.919  0.00  0.00     0.067 C 
BRANCH  13  14
ATOM     14  C   UNL d   1      60.503  49.704  50.942  0.00  0.00     0.072 C 
BRANCH  14  15
ATOM     15  C   UNL d   1      60.923  49.080  50.611  0.00  0.00     0.178 C 
ATOM     16  O   UNL d   1      61.090  49.077  49.803  0.00  0.00    -0.646 OA
BRANCH  15  17
ATOM     17  O   UNL d   1      61.178  48.455  51.082  0.00  0.00    -0.773 OA
ATOM     18  H   UNL d   1      60.636  48.056  51.559  0.00  0.00     0.167 HD
ENDBRANCH  15  17
ENDBRANCH  14  15
ENDBRANCH  13  14
ENDBRANCH   2  13
TORSDOF 6
ENDMDL
