MODEL 1
REMARK VINA RESULT:      70.0      0.000      0.000
REMARK  6 active torsions:
REMARK  status: ('A' for Active; 'I' for Inactive)
REMARK    1  A    between atoms: N_10  and  C_3 
REMARK    2  A    between atoms: C_9  and  C_4 
REMARK    3  A    between atoms: C_20  and  N_13 
REMARK    4  A    between atoms: O_24  and  C_14 
REMARK    5  A    between atoms: O_26  and  C_16 
REMARK    6  A    between atoms: C_25  and  C_20 
ROOT
ATOM      1  N   UNL d   1      13.988  14.910  -3.970  0.00  0.00    -0.196 N 
ATOM      2  C   UNL d   1      14.084  14.455  -3.288  0.00  0.00     0.167 A 
ATOM      3  C   UNL d   1      14.200  15.694  -3.956  0.00  0.00     0.152 A 
ATOM      4  C   UNL d   1      13.878  13.673  -3.283  0.00  0.00     0.055 A 
ATOM      5  N   UNL d   1      13.475  13.790  -4.645  0.00  0.00    -0.163 NA
ATOM      6  C   UNL d   1      13.571  13.335  -3.964  0.00  0.00     0.104 A 
ATOM      7  N   UNL d   1      14.391  14.793  -2.607  0.00  0.00    -0.227 NA
ATOM      8  C   UNL d   1      14.505  16.041  -3.288  0.00  0.00     0.057 A 
ATOM      9  C   UNL d   1      14.601  15.586  -2.607  0.00  0.00     0.086 A 
ATOM     10  C   UNL d   1      13.362  12.557  -3.971  0.00  0.00     0.023 C 
ATOM     11  C   UNL d   1      14.919  15.938  -1.902  0.00  0.00     0.021 C 
ENDROOT
BRANCH   3  12
ATOM     12  N   UNL d   1      14.101  16.160  -4.655  0.00  0.00    -0.286 N 
ATOM     13  C   UNL d   1      14.610  16.820  -4.511  0.00  0.00     0.101 A 
ATOM     14  C   UNL d   1      14.674  17.431  -5.090  0.00  0.00     0.100 A 
ATOM     15  N   UNL d   1      14.237  17.391  -5.809  0.00  0.00    -0.300 N 
ATOM     16  C   UNL d   1      13.723  16.721  -5.950  0.00  0.00     0.100 A 
ATOM     17  C   UNL d   1      13.656  16.112  -5.379  0.00  0.00     0.101 A 
BRANCH  15  18
ATOM     18  C   UNL d   1      14.307  18.013  -6.387  0.00  0.00     0.080 C 
BRANCH  18  19
ATOM     19  C   UNL d   1      14.031  18.789  -6.200  0.00  0.00     0.018 A 
ATOM     20  C   UNL d   1      14.569  19.376  -5.940  0.00  0.00     0.002 A 
ATOM     21  C   UNL d   1      14.290  20.154  -5.753  0.00  0.00     0.000 A 
ATOM     22  C   UNL d   1      13.475  20.332  -5.830  0.00  0.00     0.000 A 
ATOM     23  C   UNL d   1      12.936  19.737  -6.093  0.00  0.00     0.000 A 
ATOM     24  C   UNL d   1      13.216  18.967  -6.277  0.00  0.00     0.002 A 
ENDBRANCH  18  19
ENDBRANCH  15  18
ENDBRANCH   3  12
BRANCH   4  25
ATOM     25  C   UNL d   1      13.973  13.225  -2.612  0.00  0.00     0.007 A 
ATOM     26  C   UNL d   1      14.626  13.344  -2.141  0.00  0.00     0.026 A 
ATOM     27  C   UNL d   1      14.722  12.889  -1.460  0.00  0.00     0.116 A 
ATOM     28  C   UNL d   1      14.163  12.325  -1.263  0.00  0.00     0.116 A 
ATOM     29  C   UNL d   1      13.519  12.220  -1.741  0.00  0.00     0.026 A 
ATOM     30  C   UNL d   1      13.424  12.672  -2.419  0.00  0.00     0.002 A 
BRANCH  27  31
ATOM     31  O   UNL d   1      15.386  12.999  -0.970  0.00  0.00    -0.326 OA
ATOM     32  C   UNL d   1      15.314  12.889  -0.124  0.00  0.00     0.181 C 
ENDBRANCH  27  31
BRANCH  28  33
ATOM     33  O   UNL d   1      14.262  11.856  -0.560  0.00  0.00    -0.326 OA
ATOM     34  C   UNL d   1      13.612  11.780  -0.014  0.00  0.00     0.181 C 
ENDBRANCH  28  33
ENDBRANCH   4  25
TORSDOF 6
ENDMDL
