MODEL 1
REMARK VINA RESULT:      26.3      0.000      0.000
REMARK  4 active torsions:
REMARK  status: ('A' for Active; 'I' for Inactive)
REMARK    1  A    between atoms: O_7  and  C_2 
REMARK    2  A    between atoms: C_13  and  C_3 
REMARK    3  A    between atoms: C_11  and  O_7 
REMARK    4  A    between atoms: O_25  and  C_20 
ROOT
ATOM      1  C   UNL d   1      59.870  -0.061  31.020  0.00  0.00     0.066 A 
ATOM      2  C   UNL d   1      59.246  -0.022  31.551  0.00  0.00     0.186 A 
ATOM      3  C   UNL d   1      59.950  -0.391  30.245  0.00  0.00     0.012 A 
ATOM      4  C   UNL d   1      60.701  -0.254  30.008  0.00  0.00     0.037 A 
ATOM      5  C   UNL d   1      60.605   0.275  31.226  0.00  0.00     0.116 A 
ATOM      6  S   UNL d   1      61.133   0.155  30.588  0.00  0.00    -0.067 SA
ATOM      7  N   UNL d   1      59.357   0.349  32.279  0.00  0.00    -0.200 NA
ATOM      8  N   UNL d   1      60.716   0.647  31.955  0.00  0.00    -0.217 NA
ATOM      9  C   UNL d   1      60.092   0.682  32.477  0.00  0.00     0.201 A 
ENDROOT
BRANCH   2  10
ATOM     10  O   UNL d   1      58.503  -0.358  31.353  0.00  0.00    -0.288 OA
BRANCH  10  11
ATOM     11  C   UNL d   1      57.903  -0.469  31.944  0.00  0.00     0.119 A 
ATOM     12  C   UNL d   1      57.115  -0.251  31.836  0.00  0.00     0.104 A 
ATOM     13  N   UNL d   1      56.884   0.102  31.104  0.00  0.00    -0.244 NA
ATOM     14  C   UNL d   1      56.559  -0.372  32.427  0.00  0.00     0.020 A 
ATOM     15  C   UNL d   1      56.097   0.320  30.996  0.00  0.00     0.082 A 
ATOM     16  C   UNL d   1      55.830   0.681  30.263  0.00  0.00     0.021 C 
ATOM     17  C   UNL d   1      55.541   0.199  31.587  0.00  0.00     0.019 A 
ATOM     18  C   UNL d   1      55.754  -0.144  32.306  0.00  0.00     0.003 A 
ATOM     19  C   UNL d   1      56.773  -0.715  33.146  0.00  0.00     0.002 A 
ATOM     20  C   UNL d   1      57.561  -0.933  33.254  0.00  0.00     0.002 A 
ATOM     21  C   UNL d   1      58.116  -0.812  32.663  0.00  0.00     0.026 A 
ENDBRANCH  10  11
ENDBRANCH   2  10
BRANCH   3  22
ATOM     22  C   UNL d   1      59.371  -0.782  29.811  0.00  0.00     0.001 A 
ATOM     23  C   UNL d   1      59.376  -1.606  29.709  0.00  0.00     0.002 A 
ATOM     24  C   UNL d   1      58.784  -1.972  29.269  0.00  0.00     0.024 A 
ATOM     25  C   UNL d   1      58.177  -1.502  28.925  0.00  0.00     0.094 A 
ATOM     26  C   UNL d   1      58.180  -0.672  29.033  0.00  0.00     0.024 A 
ATOM     27  C   UNL d   1      58.774  -0.308  29.474  0.00  0.00     0.002 A 
BRANCH  25  28
ATOM     28  O   UNL d   1      57.541  -1.821  28.462  0.00  0.00    -0.328 OA
ATOM     29  C   UNL d   1      57.205  -2.541  28.685  0.00  0.00     0.181 C 
ENDBRANCH  25  28
ENDBRANCH   3  22
TORSDOF 4
ENDMDL
