MODEL 1
REMARK VINA RESULT:      52.0      0.000      0.000
REMARK  7 active torsions:
REMARK  status: ('A' for Active; 'I' for Inactive)
REMARK    1  A    between atoms: C_7  and  N_2 
REMARK    2  A    between atoms: C_21  and  C_7 
REMARK    3  A    between atoms: C_8  and  C_19 
REMARK       I    between atoms: N_13  and  C_8 
REMARK    4  A    between atoms: C_9  and  C_20 
REMARK    5  A    between atoms: O_14  and  C_11 
REMARK    6  A    between atoms: C_20  and  N_13 
REMARK    7  A    between atoms: C_19  and  O_14 
ROOT
ATOM      1  C   UNL d   1      13.171  12.487  -4.038  0.00  0.00     0.265 A 
ATOM      2  N   UNL d   1      13.436  12.537  -3.254  0.00  0.00    -0.272 N 
ATOM      3  C   UNL d   1      13.195  13.168  -4.509  0.00  0.00     0.059 A 
ATOM      4  C   UNL d   1      13.478  13.880  -4.202  0.00  0.00     0.029 A 
ATOM      5  C   UNL d   1      13.738  13.921  -3.425  0.00  0.00     0.021 A 
ATOM      6  C   UNL d   1      13.718  13.249  -2.947  0.00  0.00     0.083 A 
ATOM      7  O   UNL d   1      12.891  11.782  -4.342  0.00  0.00    -0.267 OA
ATOM      8  C   UNL d   1      13.501  14.558  -4.674  0.00  0.00     0.100 A 
ATOM      9  C   UNL d   1      12.932  13.123  -5.292  0.00  0.00     0.005 A 
ATOM     10  C   UNL d   1      12.956  13.803  -5.762  0.00  0.00     0.002 A 
ATOM     11  C   UNL d   1      13.240  14.518  -5.454  0.00  0.00     0.025 A 
ENDROOT
BRANCH   8  12
ATOM     12  O   UNL d   1      13.782  15.266  -4.369  0.00  0.00    -0.300 OA
BRANCH  12  13
ATOM     13  C   UNL d   1      13.754  15.947  -4.836  0.00  0.00     0.185 C 
BRANCH  13  14
ATOM     14  C   UNL d   1      14.241  16.590  -4.663  0.00  0.00     0.304 C 
ATOM     15  N   UNL d   1      14.200  17.282  -5.111  0.00  0.00    -0.203 NA
ATOM     16  O   UNL d   1      14.777  16.540  -4.033  0.00  0.00    -0.263 OA
BRANCH  15  17
ATOM     17  C   UNL d   1      14.692  17.918  -4.927  0.00  0.00     0.127 C 
BRANCH  17  18
ATOM     18  C   UNL d   1      14.617  18.619  -5.342  0.00  0.00     0.119 A 
ATOM     19  O   UNL d   1      15.206  19.171  -5.482  0.00  0.00    -0.304 OA
ATOM     20  C   UNL d   1      14.893  19.786  -5.916  0.00  0.00     0.123 A 
ATOM     21  C   UNL d   1      14.098  19.622  -6.053  0.00  0.00     0.029 A 
ATOM     22  C   UNL d   1      13.933  18.895  -5.694  0.00  0.00     0.028 A 
ENDBRANCH  17  18
ENDBRANCH  15  17
ENDBRANCH  13  14
ENDBRANCH  12  13
ENDBRANCH   8  12
BRANCH   2  23
ATOM     23  C   UNL d   1      13.417  11.871  -2.777  0.00  0.00     0.083 C 
BRANCH  23  24
ATOM     24  C   UNL d   1      13.856  11.848  -2.084  0.00  0.00     0.018 A 
ATOM     25  C   UNL d   1      14.685  11.823  -2.133  0.00  0.00     0.002 A 
ATOM     26  C   UNL d   1      15.120  11.800  -1.432  0.00  0.00     0.007 A 
ATOM     27  C   UNL d   1      14.732  11.803  -0.705  0.00  0.00     0.035 A 
ATOM     28  C   UNL d   1      13.908  11.828  -0.680  0.00  0.00     0.007 A 
ATOM     29 BR   UNL d   1      15.174  11.780  -0.014  0.00  0.00    -0.049 Br
ATOM     30  C   UNL d   1      13.475  11.850  -1.372  0.00  0.00     0.002 A 
ENDBRANCH  23  24
ENDBRANCH   2  23
TORSDOF 7
ENDMDL
MODEL 2
REMARK VINA RESULT:      52.8      2.293      5.062
REMARK  7 active torsions:
REMARK  status: ('A' for Active; 'I' for Inactive)
REMARK    1  A    between atoms: C_7  and  N_2 
REMARK    2  A    between atoms: C_21  and  C_7 
REMARK    3  A    between atoms: C_8  and  C_19 
REMARK       I    between atoms: N_13  and  C_8 
REMARK    4  A    between atoms: C_9  and  C_20 
REMARK    5  A    between atoms: O_14  and  C_11 
REMARK    6  A    between atoms: C_20  and  N_13 
REMARK    7  A    between atoms: C_19  and  O_14 
ROOT
ATOM      1  C   UNL d   1      13.436  13.989  -4.918  0.00  0.00     0.265 A 
ATOM      2  N   UNL d   1      13.438  14.672  -4.446  0.00  0.00    -0.272 N 
ATOM      3  C   UNL d   1      13.363  13.252  -4.548  0.00  0.00     0.059 A 
ATOM      4  C   UNL d   1      13.293  13.199  -3.728  0.00  0.00     0.029 A 
ATOM      5  C   UNL d   1      13.297  13.879  -3.268  0.00  0.00     0.021 A 
ATOM      6  C   UNL d   1      13.369  14.619  -3.626  0.00  0.00     0.083 A 
ATOM      7  O   UNL d   1      13.504  14.042  -5.730  0.00  0.00    -0.267 OA
ATOM      8  C   UNL d   1      13.220  12.462  -3.362  0.00  0.00     0.100 A 
ATOM      9  C   UNL d   1      13.360  12.569  -5.016  0.00  0.00     0.005 A 
ATOM     10  C   UNL d   1      13.287  11.833  -4.646  0.00  0.00     0.002 A 
ATOM     11  C   UNL d   1      13.217  11.780  -3.822  0.00  0.00     0.025 A 
ENDROOT
BRANCH   8  12
ATOM     12  O   UNL d   1      13.152  12.410  -2.546  0.00  0.00    -0.300 OA
BRANCH  12  13
ATOM     13  C   UNL d   1      13.644  11.892  -2.131  0.00  0.00     0.185 C 
BRANCH  13  14
ATOM     14  C   UNL d   1      13.908  12.087  -1.374  0.00  0.00     0.304 C 
ATOM     15  N   UNL d   1      14.559  12.584  -1.270  0.00  0.00    -0.203 NA
ATOM     16  O   UNL d   1      13.515  11.780  -0.712  0.00  0.00    -0.263 OA
BRANCH  15  17
ATOM     17  C   UNL d   1      14.813  12.771  -0.508  0.00  0.00     0.127 C 
BRANCH  17  18
ATOM     18  C   UNL d   1      15.071  13.530  -0.344  0.00  0.00     0.119 A 
ATOM     19  O   UNL d   1      14.622  14.215  -0.362  0.00  0.00    -0.304 OA
ATOM     20  C   UNL d   1      15.096  14.847  -0.162  0.00  0.00     0.123 A 
ATOM     21  C   UNL d   1      15.854  14.559  -0.015  0.00  0.00     0.029 A 
ATOM     22  C   UNL d   1      15.832  13.740  -0.130  0.00  0.00     0.028 A 
ENDBRANCH  17  18
ENDBRANCH  15  17
ENDBRANCH  13  14
ENDBRANCH  12  13
ENDBRANCH   8  12
BRANCH   2  23
ATOM     23  C   UNL d   1      13.510  15.408  -4.799  0.00  0.00     0.083 C 
BRANCH  23  24
ATOM     24  C   UNL d   1      14.174  15.869  -4.658  0.00  0.00     0.018 A 
ATOM     25  C   UNL d   1      14.321  16.139  -3.886  0.00  0.00     0.002 A 
ATOM     26  C   UNL d   1      14.990  16.602  -3.751  0.00  0.00     0.007 A 
ATOM     27  C   UNL d   1      15.496  16.787  -4.375  0.00  0.00     0.035 A 
ATOM     28  C   UNL d   1      15.332  16.509  -5.133  0.00  0.00     0.007 A 
ATOM     29 BR   UNL d   1      16.159  17.249  -4.229  0.00  0.00    -0.049 Br
ATOM     30  C   UNL d   1      14.670  16.051  -5.270  0.00  0.00     0.002 A 
ENDBRANCH  23  24
ENDBRANCH   2  23
TORSDOF 7
ENDMDL
MODEL 3
REMARK VINA RESULT:      54.2      1.750      2.566
REMARK  7 active torsions:
REMARK  status: ('A' for Active; 'I' for Inactive)
REMARK    1  A    between atoms: C_7  and  N_2 
REMARK    2  A    between atoms: C_21  and  C_7 
REMARK    3  A    between atoms: C_8  and  C_19 
REMARK       I    between atoms: N_13  and  C_8 
REMARK    4  A    between atoms: C_9  and  C_20 
REMARK    5  A    between atoms: O_14  and  C_11 
REMARK    6  A    between atoms: C_20  and  N_13 
REMARK    7  A    between atoms: C_19  and  O_14 
ROOT
ATOM      1  C   UNL d   1      13.166  12.495  -4.039  0.00  0.00     0.265 A 
ATOM      2  N   UNL d   1      13.431  12.540  -3.255  0.00  0.00    -0.272 N 
ATOM      3  C   UNL d   1      13.181  13.180  -4.503  0.00  0.00     0.059 A 
ATOM      4  C   UNL d   1      13.454  13.893  -4.190  0.00  0.00     0.029 A 
ATOM      5  C   UNL d   1      13.715  13.930  -3.413  0.00  0.00     0.021 A 
ATOM      6  C   UNL d   1      13.705  13.253  -2.942  0.00  0.00     0.083 A 
ATOM      7  O   UNL d   1      12.895  11.789  -4.349  0.00  0.00    -0.267 OA
ATOM      8  C   UNL d   1      13.468  14.575  -4.656  0.00  0.00     0.100 A 
ATOM      9  C   UNL d   1      12.916  13.138  -5.287  0.00  0.00     0.005 A 
ATOM     10  C   UNL d   1      12.932  13.823  -5.750  0.00  0.00     0.002 A 
ATOM     11  C   UNL d   1      13.207  14.539  -5.436  0.00  0.00     0.025 A 
ENDROOT
BRANCH   8  12
ATOM     12  O   UNL d   1      13.740  15.284  -4.344  0.00  0.00    -0.300 OA
BRANCH  12  13
ATOM     13  C   UNL d   1      14.511  15.326  -4.048  0.00  0.00     0.185 C 
BRANCH  13  14
ATOM     14  C   UNL d   1      14.726  15.937  -3.537  0.00  0.00     0.304 C 
ATOM     15  N   UNL d   1      14.627  15.857  -2.722  0.00  0.00    -0.203 NA
ATOM     16  O   UNL d   1      15.044  16.636  -3.846  0.00  0.00    -0.263 OA
BRANCH  15  17
ATOM     17  C   UNL d   1      14.846  16.475  -2.221  0.00  0.00     0.127 C 
BRANCH  17  18
ATOM     18  C   UNL d   1      15.035  16.315  -1.441  0.00  0.00     0.119 A 
ATOM     19  O   UNL d   1      15.137  15.576  -1.103  0.00  0.00    -0.304 OA
ATOM     20  C   UNL d   1      15.321  15.669  -0.315  0.00  0.00     0.123 A 
ATOM     21  C   UNL d   1      15.335  16.476  -0.151  0.00  0.00     0.029 A 
ATOM     22  C   UNL d   1      15.157  16.872  -0.855  0.00  0.00     0.028 A 
ENDBRANCH  17  18
ENDBRANCH  15  17
ENDBRANCH  13  14
ENDBRANCH  12  13
ENDBRANCH   8  12
BRANCH   2  23
ATOM     23  C   UNL d   1      13.422  11.870  -2.784  0.00  0.00     0.083 C 
BRANCH  23  24
ATOM     24  C   UNL d   1      13.859  11.848  -2.089  0.00  0.00     0.018 A 
ATOM     25  C   UNL d   1      14.688  11.839  -2.135  0.00  0.00     0.002 A 
ATOM     26  C   UNL d   1      15.121  11.817  -1.433  0.00  0.00     0.007 A 
ATOM     27  C   UNL d   1      14.730  11.804  -0.708  0.00  0.00     0.035 A 
ATOM     28  C   UNL d   1      13.907  11.814  -0.685  0.00  0.00     0.007 A 
ATOM     29 BR   UNL d   1      15.171  11.783  -0.015  0.00  0.00    -0.049 Br
ATOM     30  C   UNL d   1      13.475  11.836  -1.378  0.00  0.00     0.002 A 
ENDBRANCH  23  24
ENDBRANCH   2  23
TORSDOF 7
ENDMDL
