MODEL 1
REMARK VINA RESULT:      -3.6      0.000      0.000
REMARK  9 active torsions:
REMARK  status: ('A' for Active; 'I' for Inactive)
REMARK    1  A    between atoms: P_3  and  C_1 
REMARK    2  A    between atoms: O_13  and  P_3 
REMARK    3  A    between atoms: O_14  and  P_3 
REMARK    4  A    between atoms: N_8  and  C_4 
REMARK    5  A    between atoms: C_15  and  N_8 
REMARK    6  A    between atoms: C_25  and  O_13 
REMARK    7  A    between atoms: C_26  and  O_14 
REMARK    8  A    between atoms: O_23  and  C_16 
REMARK    9  A    between atoms: O_24  and  C_17 
ROOT
ATOM      1  C   UNL d   1     -39.443  15.250  19.152  0.00  0.00     0.174 A 
ATOM      2  C   UNL d   1     -40.148  15.276  19.593  0.00  0.00     0.100 A 
ATOM      3  C   UNL d   1     -40.120  15.416  20.407  0.00  0.00     0.095 A 
ATOM      4  N   UNL d   1     -38.717  15.365  19.528  0.00  0.00    -0.237 NA
ATOM      5  C   UNL d   1     -39.395  15.529  20.780  0.00  0.00     0.038 A 
ATOM      6  C   UNL d   1     -38.691  15.503  20.338  0.00  0.00     0.083 A 
ATOM      7  C   UNL d   1     -39.371  15.667  21.587  0.00  0.00     0.027 A 
ATOM      8 CL   UNL d   1     -40.877  15.161  19.214  0.00  0.00    -0.079 Cl
ATOM      9  C   UNL d   1     -37.966  15.617  20.711  0.00  0.00     0.021 A 
ATOM     10  C   UNL d   1     -38.640  15.783  21.970  0.00  0.00     0.094 A 
ATOM     11  C   UNL d   1     -37.940  15.756  21.522  0.00  0.00     0.026 A 
ENDROOT
BRANCH   3  12
ATOM     12  N   UNL d   1     -40.822  15.441  20.847  0.00  0.00    -0.245 NA
BRANCH  12  13
ATOM     13  C   UNL d   1     -41.254  14.747  20.989  0.00  0.00     0.082 A 
ATOM     14  C   UNL d   1     -42.072  14.754  20.907  0.00  0.00     0.021 A 
ATOM     15  C   UNL d   1     -42.515  14.063  21.047  0.00  0.00     0.026 A 
ATOM     16  C   UNL d   1     -42.123  13.368  21.271  0.00  0.00     0.094 A 
ATOM     17  C   UNL d   1     -41.293  13.366  21.353  0.00  0.00     0.026 A 
ATOM     18  C   UNL d   1     -40.864  14.056  21.212  0.00  0.00     0.021 A 
BRANCH  16  19
ATOM     19  O   UNL d   1     -42.559  12.680  21.411  0.00  0.00    -0.328 OA
ATOM     20  C   UNL d   1     -43.388  12.697  21.344  0.00  0.00     0.181 C 
ENDBRANCH  16  19
ENDBRANCH  12  13
ENDBRANCH   3  12
BRANCH   1  21
ATOM     21  P   UNL d   1     -39.470  15.110  18.332  0.00  0.00     0.393 P 
ATOM     22  O   UNL d   1     -39.588  15.917  18.205  0.00  0.00    -0.251 OA
BRANCH  21  23
ATOM     23  O   UNL d   1     -39.492  14.941  17.524  0.00  0.00    -0.263 OA
BRANCH  23  24
ATOM     24  C   UNL d   1     -39.618  15.544  16.977  0.00  0.00     0.126 C 
ATOM     25  C   UNL d   1     -39.852  15.365  16.207  0.00  0.00     0.029 C 
ENDBRANCH  23  24
ENDBRANCH  21  23
BRANCH  21  26
ATOM     26  O   UNL d   1     -39.362  14.287  18.255  0.00  0.00    -0.263 OA
BRANCH  26  27
ATOM     27  C   UNL d   1     -38.784  13.987  17.748  0.00  0.00     0.126 C 
ATOM     28  C   UNL d   1     -38.651  13.175  17.704  0.00  0.00     0.029 C 
ENDBRANCH  26  27
ENDBRANCH  21  26
ENDBRANCH   1  21
BRANCH  10  29
ATOM     29  O   UNL d   1     -38.614  15.922  22.780  0.00  0.00    -0.328 OA
ATOM     30  C   UNL d   1     -38.373  15.324  23.291  0.00  0.00     0.181 C 
ENDBRANCH  10  29
TORSDOF 9
ENDMDL
MODEL 2
REMARK VINA RESULT:      -3.0      5.885      8.439
REMARK  9 active torsions:
REMARK  status: ('A' for Active; 'I' for Inactive)
REMARK    1  A    between atoms: P_3  and  C_1 
REMARK    2  A    between atoms: O_13  and  P_3 
REMARK    3  A    between atoms: O_14  and  P_3 
REMARK    4  A    between atoms: N_8  and  C_4 
REMARK    5  A    between atoms: C_15  and  N_8 
REMARK    6  A    between atoms: C_25  and  O_13 
REMARK    7  A    between atoms: C_26  and  O_14 
REMARK    8  A    between atoms: O_23  and  C_16 
REMARK    9  A    between atoms: O_24  and  C_17 
ROOT
ATOM      1  C   UNL d   1     -46.052  12.611  23.012  0.00  0.00     0.174 A 
ATOM      2  C   UNL d   1     -46.801  12.355  23.267  0.00  0.00     0.100 A 
ATOM      3  C   UNL d   1     -47.428  12.892  23.310  0.00  0.00     0.095 A 
ATOM      4  N   UNL d   1     -45.936  13.402  22.802  0.00  0.00    -0.237 NA
ATOM      5  C   UNL d   1     -47.310  13.679  23.101  0.00  0.00     0.038 A 
ATOM      6  C   UNL d   1     -46.561  13.935  22.846  0.00  0.00     0.083 A 
ATOM      7  C   UNL d   1     -47.934  14.209  23.145  0.00  0.00     0.027 A 
ATOM      8 CL   UNL d   1     -46.916  11.561  23.477  0.00  0.00    -0.079 Cl
ATOM      9  C   UNL d   1     -46.444  14.722  22.636  0.00  0.00     0.021 A 
ATOM     10  C   UNL d   1     -47.821  15.007  22.934  0.00  0.00     0.094 A 
ATOM     11  C   UNL d   1     -47.069  15.255  22.680  0.00  0.00     0.026 A 
ENDROOT
BRANCH   3  12
ATOM     12  N   UNL d   1     -48.174  12.637  23.564  0.00  0.00    -0.245 NA
BRANCH  12  13
ATOM     13  C   UNL d   1     -48.773  12.473  23.012  0.00  0.00     0.082 A 
ATOM     14  C   UNL d   1     -49.560  12.584  23.223  0.00  0.00     0.021 A 
ATOM     15  C   UNL d   1     -50.168  12.422  22.677  0.00  0.00     0.026 A 
ATOM     16  C   UNL d   1     -49.972  12.150  21.919  0.00  0.00     0.094 A 
ATOM     17  C   UNL d   1     -49.172  12.041  21.711  0.00  0.00     0.026 A 
ATOM     18  C   UNL d   1     -48.577  12.203  22.259  0.00  0.00     0.021 A 
BRANCH  16  19
ATOM     19  O   UNL d   1     -50.572  11.989  21.374  0.00  0.00    -0.328 OA
ATOM     20  C   UNL d   1     -50.985  12.619  21.020  0.00  0.00     0.181 C 
ENDBRANCH  16  19
ENDBRANCH  12  13
ENDBRANCH   3  12
BRANCH   1  21
ATOM     21  P   UNL d   1     -45.420  12.072  22.968  0.00  0.00     0.393 P 
ATOM     22  O   UNL d   1     -45.645  11.759  23.697  0.00  0.00    -0.251 OA
BRANCH  21  23
ATOM     23  O   UNL d   1     -44.785  11.550  22.897  0.00  0.00    -0.263 OA
BRANCH  23  24
ATOM     24  C   UNL d   1     -44.634  10.996  23.489  0.00  0.00     0.126 C 
ATOM     25  C   UNL d   1     -44.186  10.324  23.326  0.00  0.00     0.029 C 
ENDBRANCH  23  24
ENDBRANCH  21  23
BRANCH  21  26
ATOM     26  O   UNL d   1     -45.044  12.246  22.244  0.00  0.00    -0.263 OA
BRANCH  26  27
ATOM     27  C   UNL d   1     -44.227  12.352  22.212  0.00  0.00     0.126 C 
ATOM     28  C   UNL d   1     -43.873  12.658  21.533  0.00  0.00     0.029 C 
ENDBRANCH  26  27
ENDBRANCH  21  26
ENDBRANCH   1  21
BRANCH  10  29
ATOM     29  O   UNL d   1     -48.446  15.540  22.978  0.00  0.00    -0.328 OA
ATOM     30  C   UNL d   1     -48.812  15.799  22.288  0.00  0.00     0.181 C 
ENDBRANCH  10  29
TORSDOF 9
ENDMDL
MODEL 3
REMARK VINA RESULT:      -2.7      5.659      8.750
REMARK  9 active torsions:
REMARK  status: ('A' for Active; 'I' for Inactive)
REMARK    1  A    between atoms: P_3  and  C_1 
REMARK    2  A    between atoms: O_13  and  P_3 
REMARK    3  A    between atoms: O_14  and  P_3 
REMARK    4  A    between atoms: N_8  and  C_4 
REMARK    5  A    between atoms: C_15  and  N_8 
REMARK    6  A    between atoms: C_25  and  O_13 
REMARK    7  A    between atoms: C_26  and  O_14 
REMARK    8  A    between atoms: O_23  and  C_16 
REMARK    9  A    between atoms: O_24  and  C_17 
ROOT
ATOM      1  C   UNL d   1     -46.311  12.601  22.773  0.00  0.00     0.174 A 
ATOM      2  C   UNL d   1     -46.658  13.294  23.075  0.00  0.00     0.100 A 
ATOM      3  C   UNL d   1     -47.447  13.287  23.320  0.00  0.00     0.095 A 
ATOM      4  N   UNL d   1     -46.757  11.908  22.718  0.00  0.00    -0.237 NA
ATOM      5  C   UNL d   1     -47.889  12.596  23.264  0.00  0.00     0.038 A 
ATOM      6  C   UNL d   1     -47.542  11.903  22.962  0.00  0.00     0.083 A 
ATOM      7  C   UNL d   1     -48.671  12.592  23.508  0.00  0.00     0.027 A 
ATOM      8 CL   UNL d   1     -46.209  13.990  23.130  0.00  0.00    -0.079 Cl
ATOM      9  C   UNL d   1     -47.984  11.211  22.906  0.00  0.00     0.021 A 
ATOM     10  C   UNL d   1     -49.124  11.895  23.454  0.00  0.00     0.094 A 
ATOM     11  C   UNL d   1     -48.770  11.206  23.150  0.00  0.00     0.026 A 
ENDROOT
BRANCH   3  12
ATOM     12  N   UNL d   1     -47.793  13.978  23.621  0.00  0.00    -0.245 NA
BRANCH  12  13
ATOM     13  C   UNL d   1     -48.335  14.410  23.165  0.00  0.00     0.082 A 
ATOM     14  C   UNL d   1     -49.000  14.734  23.524  0.00  0.00     0.021 A 
ATOM     15  C   UNL d   1     -49.550  15.169  23.075  0.00  0.00     0.026 A 
ATOM     16  C   UNL d   1     -49.421  15.272  22.263  0.00  0.00     0.094 A 
ATOM     17  C   UNL d   1     -48.745  14.941  21.904  0.00  0.00     0.026 A 
ATOM     18  C   UNL d   1     -48.207  14.512  22.357  0.00  0.00     0.021 A 
BRANCH  16  19
ATOM     19  O   UNL d   1     -49.965  15.703  21.814  0.00  0.00    -0.328 OA
ATOM     20  C   UNL d   1     -50.722  15.388  21.671  0.00  0.00     0.181 C 
ENDBRANCH  16  19
ENDBRANCH  12  13
ENDBRANCH   3  12
BRANCH   1  21
ATOM     21  P   UNL d   1     -45.517  12.606  22.526  0.00  0.00     0.393 P 
ATOM     22  O   UNL d   1     -45.725  13.087  21.888  0.00  0.00    -0.251 OA
BRANCH  21  23
ATOM     23  O   UNL d   1     -44.722  12.593  22.304  0.00  0.00    -0.263 OA
BRANCH  23  24
ATOM     24  C   UNL d   1     -44.494  12.854  21.556  0.00  0.00     0.126 C 
ATOM     25  C   UNL d   1     -43.716  13.087  21.415  0.00  0.00     0.029 C 
ENDBRANCH  23  24
ENDBRANCH  21  23
BRANCH  21  26
ATOM     26  O   UNL d   1     -45.118  12.137  23.088  0.00  0.00    -0.263 OA
BRANCH  26  27
ATOM     27  C   UNL d   1     -44.575  11.565  22.846  0.00  0.00     0.126 C 
ATOM     28  C   UNL d   1     -44.308  10.995  23.377  0.00  0.00     0.029 C 
ENDBRANCH  26  27
ENDBRANCH  21  26
ENDBRANCH   1  21
BRANCH  10  29
ATOM     29  O   UNL d   1     -49.909  11.890  23.698  0.00  0.00    -0.328 OA
ATOM     30  C   UNL d   1     -50.344  11.192  23.666  0.00  0.00     0.181 C 
ENDBRANCH  10  29
TORSDOF 9
ENDMDL
MODEL 4
REMARK VINA RESULT:      -1.8      5.286      8.677
REMARK  9 active torsions:
REMARK  status: ('A' for Active; 'I' for Inactive)
REMARK    1  A    between atoms: P_3  and  C_1 
REMARK    2  A    between atoms: O_13  and  P_3 
REMARK    3  A    between atoms: O_14  and  P_3 
REMARK    4  A    between atoms: N_8  and  C_4 
REMARK    5  A    between atoms: C_15  and  N_8 
REMARK    6  A    between atoms: C_25  and  O_13 
REMARK    7  A    between atoms: C_26  and  O_14 
REMARK    8  A    between atoms: O_23  and  C_16 
REMARK    9  A    between atoms: O_24  and  C_17 
ROOT
ATOM      1  C   UNL d   1     -48.072  13.638  22.948  0.00  0.00     0.174 A 
ATOM      2  C   UNL d   1     -47.260  13.791  23.044  0.00  0.00     0.100 A 
ATOM      3  C   UNL d   1     -46.741  13.171  23.213  0.00  0.00     0.095 A 
ATOM      4  N   UNL d   1     -48.357  12.867  23.021  0.00  0.00    -0.237 NA
ATOM      5  C   UNL d   1     -47.027  12.404  23.286  0.00  0.00     0.038 A 
ATOM      6  C   UNL d   1     -47.839  12.251  23.190  0.00  0.00     0.083 A 
ATOM      7  C   UNL d   1     -46.510  11.791  23.454  0.00  0.00     0.027 A 
ATOM      8 CL   UNL d   1     -46.975  14.567  22.969  0.00  0.00    -0.079 Cl
ATOM      9  C   UNL d   1     -48.125  11.483  23.263  0.00  0.00     0.021 A 
ATOM     10  C   UNL d   1     -46.794  11.012  23.529  0.00  0.00     0.094 A 
ATOM     11  C   UNL d   1     -47.607  10.867  23.432  0.00  0.00     0.026 A 
ENDROOT
BRANCH   3  12
ATOM     12  N   UNL d   1     -45.932  13.324  23.309  0.00  0.00    -0.245 NA
BRANCH  12  13
ATOM     13  C   UNL d   1     -45.405  13.210  22.677  0.00  0.00     0.082 A 
ATOM     14  C   UNL d   1     -44.768  12.698  22.767  0.00  0.00     0.021 A 
ATOM     15  C   UNL d   1     -44.234  12.578  22.140  0.00  0.00     0.026 A 
ATOM     16  C   UNL d   1     -44.351  12.978  21.423  0.00  0.00     0.094 A 
ATOM     17  C   UNL d   1     -44.999  13.495  21.338  0.00  0.00     0.026 A 
ATOM     18  C   UNL d   1     -45.522  13.608  21.965  0.00  0.00     0.021 A 
BRANCH  16  19
ATOM     19  O   UNL d   1     -43.823  12.860  20.798  0.00  0.00    -0.328 OA
ATOM     20  C   UNL d   1     -43.009  12.982  20.919  0.00  0.00     0.181 C 
ENDBRANCH  16  19
ENDBRANCH  12  13
ENDBRANCH   3  12
BRANCH   1  21
ATOM     21  P   UNL d   1     -48.596  14.262  22.777  0.00  0.00     0.393 P 
ATOM     22  O   UNL d   1     -48.461  14.572  23.530  0.00  0.00    -0.251 OA
BRANCH  21  23
ATOM     23  O   UNL d   1     -49.121  14.868  22.580  0.00  0.00    -0.263 OA
BRANCH  23  24
ATOM     24  C   UNL d   1     -49.245  15.495  23.101  0.00  0.00     0.126 C 
ATOM     25  C   UNL d   1     -49.985  15.856  23.149  0.00  0.00     0.029 C 
ENDBRANCH  23  24
ENDBRANCH  21  23
BRANCH  21  26
ATOM     26  O   UNL d   1     -48.858  14.111  22.000  0.00  0.00    -0.263 OA
BRANCH  26  27
ATOM     27  C   UNL d   1     -49.632  14.289  21.778  0.00  0.00     0.126 C 
ATOM     28  C   UNL d   1     -49.971  13.920  21.123  0.00  0.00     0.029 C 
ENDBRANCH  26  27
ENDBRANCH  21  26
ENDBRANCH   1  21
BRANCH  10  29
ATOM     29  O   UNL d   1     -46.276  10.395  23.698  0.00  0.00    -0.328 OA
ATOM     30  C   UNL d   1     -46.187   9.777  23.163  0.00  0.00     0.181 C 
ENDBRANCH  10  29
TORSDOF 9
ENDMDL
