MODEL 1
REMARK VINA RESULT:      -3.5      0.000      0.000
REMARK  7 active torsions:
REMARK  status: ('A' for Active; 'I' for Inactive)
REMARK    1  A    between atoms: C_5  and  N_1 
REMARK    2  A    between atoms: C_3  and  N_2 
REMARK    3  A    between atoms: N_4  and  C_11 
REMARK    4  A    between atoms: C_11  and  C_17 
REMARK    5  A    between atoms: O_16  and  C_18 
REMARK    6  A    between atoms: C_20  and  O_16 
REMARK    7  A    between atoms: C_17  and  C_20 
ROOT
ATOM      1  C   UNL d   1      33.241  19.023 -22.455  0.00  0.00     0.125 C 
ENDROOT
BRANCH   1   2
ATOM      2  N   UNL d   1      33.137  19.748 -22.146  0.00  0.00    -0.297 N 
ATOM      3  C   UNL d   1      33.214  20.432 -22.590  0.00  0.00     0.100 A 
ATOM      4  C   UNL d   1      33.109  21.164 -22.278  0.00  0.00     0.100 A 
ATOM      5  N   UNL d   1      32.912  21.243 -21.463  0.00  0.00    -0.299 N 
ATOM      6  C   UNL d   1      32.831  20.568 -21.006  0.00  0.00     0.100 A 
ATOM      7  C   UNL d   1      32.938  19.824 -21.323  0.00  0.00     0.100 A 
BRANCH   5   8
ATOM      8  C   UNL d   1      32.804  21.995 -21.142  0.00  0.00     0.092 A 
ATOM      9  C   UNL d   1      32.964  22.113 -20.335  0.00  0.00     0.156 A 
ATOM     10  F   UNL d   1      33.228  21.493 -19.856  0.00  0.00    -0.203 F 
ATOM     11  C   UNL d   1      32.857  22.862 -20.016  0.00  0.00     0.031 A 
ATOM     12  C   UNL d   1      32.599  23.483 -20.471  0.00  0.00     0.002 A 
ATOM     13  C   UNL d   1      32.436  23.367 -21.287  0.00  0.00     0.002 A 
ATOM     14  C   UNL d   1      32.544  22.615 -21.608  0.00  0.00     0.020 A 
ENDBRANCH   5   8
ENDBRANCH   1   2
BRANCH   1  15
ATOM     15  C   UNL d   1      32.950  18.852 -23.218  0.00  0.00     0.238 C 
ATOM     16  O   UNL d   1      33.238  19.398 -23.926  0.00  0.00    -0.283 OA
BRANCH  15  17
ATOM     17  C   UNL d   1      32.434  18.228 -23.325  0.00  0.00     0.166 C 
BRANCH  17  18
ATOM     18  O   UNL d   1      31.965  18.198 -24.016  0.00  0.00    -0.302 OA
BRANCH  18  19
ATOM     19  C   UNL d   1      31.398  17.616 -24.095  0.00  0.00     0.100 A 
ATOM     20  C   UNL d   1      31.403  16.947 -23.612  0.00  0.00     0.026 A 
ATOM     21  C   UNL d   1      30.829  16.353 -23.689  0.00  0.00     0.026 A 
ATOM     22  C   UNL d   1      30.224  16.435 -24.274  0.00  0.00     0.127 A 
ATOM     23  C   UNL d   1      30.219  17.105 -24.757  0.00  0.00     0.026 A 
ATOM     24  C   UNL d   1      30.807  17.700 -24.670  0.00  0.00     0.026 A 
BRANCH  22  25
ATOM     25  N   UNL d   1      29.642  15.857 -24.369  0.00  0.00    -0.114 N 
ATOM     26  O   UNL d   1      29.238  15.488 -23.752  0.00  0.00    -0.532 OA
ATOM     27  O   UNL d   1      29.388  15.573 -25.097  0.00  0.00    -0.532 OA
ENDBRANCH  22  25
ENDBRANCH  18  19
ENDBRANCH  17  18
ENDBRANCH  15  17
ENDBRANCH   1  15
TORSDOF 7
ENDMDL
MODEL 2
REMARK VINA RESULT:      -2.8      2.221      5.970
REMARK  7 active torsions:
REMARK  status: ('A' for Active; 'I' for Inactive)
REMARK    1  A    between atoms: C_5  and  N_1 
REMARK    2  A    between atoms: C_3  and  N_2 
REMARK    3  A    between atoms: N_4  and  C_11 
REMARK    4  A    between atoms: C_11  and  C_17 
REMARK    5  A    between atoms: O_16  and  C_18 
REMARK    6  A    between atoms: C_20  and  O_16 
REMARK    7  A    between atoms: C_17  and  C_20 
ROOT
ATOM      1  C   UNL d   1      32.803  17.370 -24.047  0.00  0.00     0.125 C 
ENDROOT
BRANCH   1   2
ATOM      2  N   UNL d   1      32.069  17.065 -24.035  0.00  0.00    -0.297 N 
ATOM      3  C   UNL d   1      31.527  17.200 -24.634  0.00  0.00     0.100 A 
ATOM      4  C   UNL d   1      30.786  16.892 -24.622  0.00  0.00     0.100 A 
ATOM      5  N   UNL d   1      30.547  16.410 -23.974  0.00  0.00    -0.299 N 
ATOM      6  C   UNL d   1      31.079  16.266 -23.368  0.00  0.00     0.100 A 
ATOM      7  C   UNL d   1      31.832  16.579 -23.380  0.00  0.00     0.100 A 
BRANCH   5   8
ATOM      8  C   UNL d   1      29.785  16.093 -23.962  0.00  0.00     0.092 A 
ATOM      9  C   UNL d   1      29.486  15.797 -23.245  0.00  0.00     0.156 A 
ATOM     10  F   UNL d   1      29.937  15.816 -22.552  0.00  0.00    -0.203 F 
ATOM     11  C   UNL d   1      28.728  15.482 -23.233  0.00  0.00     0.031 A 
ATOM     12  C   UNL d   1      28.270  15.454 -23.904  0.00  0.00     0.002 A 
ATOM     13  C   UNL d   1      28.570  15.752 -24.629  0.00  0.00     0.002 A 
ATOM     14  C   UNL d   1      29.331  16.069 -24.642  0.00  0.00     0.020 A 
ENDBRANCH   5   8
ENDBRANCH   1   2
BRANCH   1  15
ATOM     15  C   UNL d   1      32.909  18.193 -24.140  0.00  0.00     0.238 C 
ATOM     16  O   UNL d   1      32.722  18.562 -24.984  0.00  0.00    -0.283 OA
BRANCH  15  17
ATOM     17  C   UNL d   1      33.166  18.643 -23.510  0.00  0.00     0.166 C 
BRANCH  17  18
ATOM     18  O   UNL d   1      33.235  19.471 -23.599  0.00  0.00    -0.302 OA
BRANCH  18  19
ATOM     19  C   UNL d   1      33.187  19.954 -22.941  0.00  0.00     0.100 A 
ATOM     20  C   UNL d   1      33.114  20.773 -23.018  0.00  0.00     0.026 A 
ATOM     21  C   UNL d   1      33.065  21.267 -22.354  0.00  0.00     0.026 A 
ATOM     22  C   UNL d   1      33.091  20.926 -21.581  0.00  0.00     0.127 A 
ATOM     23  C   UNL d   1      33.164  20.107 -21.505  0.00  0.00     0.026 A 
ATOM     24  C   UNL d   1      33.213  19.616 -22.186  0.00  0.00     0.026 A 
BRANCH  22  25
ATOM     25  N   UNL d   1      33.044  21.398 -20.906  0.00  0.00    -0.114 N 
ATOM     26  O   UNL d   1      32.797  21.136 -20.163  0.00  0.00    -0.532 OA
ATOM     27  O   UNL d   1      33.240  22.195 -20.885  0.00  0.00    -0.532 OA
ENDBRANCH  22  25
ENDBRANCH  18  19
ENDBRANCH  17  18
ENDBRANCH  15  17
ENDBRANCH   1  15
TORSDOF 7
ENDMDL
MODEL 3
REMARK VINA RESULT:      -2.8      1.518      2.138
REMARK  7 active torsions:
REMARK  status: ('A' for Active; 'I' for Inactive)
REMARK    1  A    between atoms: C_5  and  N_1 
REMARK    2  A    between atoms: C_3  and  N_2 
REMARK    3  A    between atoms: N_4  and  C_11 
REMARK    4  A    between atoms: C_11  and  C_17 
REMARK    5  A    between atoms: O_16  and  C_18 
REMARK    6  A    between atoms: C_20  and  O_16 
REMARK    7  A    between atoms: C_17  and  C_20 
ROOT
ATOM      1  C   UNL d   1      33.234  17.297 -23.806  0.00  0.00     0.125 C 
ENDROOT
BRANCH   1   2
ATOM      2  N   UNL d   1      33.184  18.026 -23.492  0.00  0.00    -0.297 N 
ATOM      3  C   UNL d   1      33.080  18.697 -23.951  0.00  0.00     0.100 A 
ATOM      4  C   UNL d   1      33.029  19.433 -23.634  0.00  0.00     0.100 A 
ATOM      5  N   UNL d   1      33.085  19.529 -22.799  0.00  0.00    -0.299 N 
ATOM      6  C   UNL d   1      33.189  18.868 -22.328  0.00  0.00     0.100 A 
ATOM      7  C   UNL d   1      33.240  18.120 -22.650  0.00  0.00     0.100 A 
BRANCH   5   8
ATOM      8  C   UNL d   1      33.033  20.286 -22.473  0.00  0.00     0.092 A 
ATOM      9  C   UNL d   1      32.793  20.366 -21.681  0.00  0.00     0.156 A 
ATOM     10  F   UNL d   1      32.607  19.703 -21.222  0.00  0.00    -0.203 F 
ATOM     11  C   UNL d   1      32.742  21.118 -21.357  0.00  0.00     0.031 A 
ATOM     12  C   UNL d   1      32.920  21.780 -21.794  0.00  0.00     0.002 A 
ATOM     13  C   UNL d   1      33.163  21.703 -22.594  0.00  0.00     0.002 A 
ATOM     14  C   UNL d   1      33.214  20.946 -22.920  0.00  0.00     0.020 A 
ENDBRANCH   5   8
ENDBRANCH   1   2
BRANCH   1  15
ATOM     15  C   UNL d   1      32.738  16.689 -23.523  0.00  0.00     0.238 C 
ATOM     16  O   UNL d   1      33.077  16.131 -22.848  0.00  0.00    -0.283 OA
BRANCH  15  17
ATOM     17  C   UNL d   1      31.989  16.598 -23.835  0.00  0.00     0.166 C 
BRANCH  17  18
ATOM     18  O   UNL d   1      31.571  15.888 -23.696  0.00  0.00    -0.302 OA
BRANCH  18  19
ATOM     19  C   UNL d   1      30.766  15.859 -23.832  0.00  0.00     0.100 A 
ATOM     20  C   UNL d   1      30.459  15.485 -24.501  0.00  0.00     0.026 A 
ATOM     21  C   UNL d   1      29.643  15.453 -24.643  0.00  0.00     0.026 A 
ATOM     22  C   UNL d   1      29.112  15.811 -24.092  0.00  0.00     0.127 A 
ATOM     23  C   UNL d   1      29.419  16.185 -23.423  0.00  0.00     0.026 A 
ATOM     24  C   UNL d   1      30.249  16.211 -23.289  0.00  0.00     0.026 A 
BRANCH  22  25
ATOM     25  N   UNL d   1      28.296  15.792 -24.212  0.00  0.00    -0.114 N 
ATOM     26  O   UNL d   1      27.928  15.595 -24.925  0.00  0.00    -0.532 OA
ATOM     27  O   UNL d   1      27.740  15.967 -23.634  0.00  0.00    -0.532 OA
ENDBRANCH  22  25
ENDBRANCH  18  19
ENDBRANCH  17  18
ENDBRANCH  15  17
ENDBRANCH   1  15
TORSDOF 7
ENDMDL
MODEL 4
REMARK VINA RESULT:      -1.7      2.430      6.115
REMARK  7 active torsions:
REMARK  status: ('A' for Active; 'I' for Inactive)
REMARK    1  A    between atoms: C_5  and  N_1 
REMARK    2  A    between atoms: C_3  and  N_2 
REMARK    3  A    between atoms: N_4  and  C_11 
REMARK    4  A    between atoms: C_11  and  C_17 
REMARK    5  A    between atoms: O_16  and  C_18 
REMARK    6  A    between atoms: C_20  and  O_16 
REMARK    7  A    between atoms: C_17  and  C_20 
ROOT
ATOM      1  C   UNL d   1      33.195  18.879 -23.806  0.00  0.00     0.125 C 
ENDROOT
BRANCH   1   2
ATOM      2  N   UNL d   1      32.624  18.354 -23.981  0.00  0.00    -0.297 N 
ATOM      3  C   UNL d   1      32.312  18.278 -24.735  0.00  0.00     0.100 A 
ATOM      4  C   UNL d   1      31.735  17.748 -24.911  0.00  0.00     0.100 A 
ATOM      5  N   UNL d   1      31.433  17.247 -24.306  0.00  0.00    -0.299 N 
ATOM      6  C   UNL d   1      31.736  17.312 -23.547  0.00  0.00     0.100 A 
ATOM      7  C   UNL d   1      32.322  17.850 -23.368  0.00  0.00     0.100 A 
BRANCH   5   8
ATOM      8  C   UNL d   1      30.840  16.702 -24.487  0.00  0.00     0.092 A 
ATOM      9  C   UNL d   1      31.049  15.995 -24.870  0.00  0.00     0.156 A 
ATOM     10  F   UNL d   1      31.836  15.833 -25.069  0.00  0.00    -0.203 F 
ATOM     11  C   UNL d   1      30.460  15.453 -25.050  0.00  0.00     0.031 A 
ATOM     12  C   UNL d   1      29.682  15.595 -24.862  0.00  0.00     0.002 A 
ATOM     13  C   UNL d   1      29.468  16.309 -24.475  0.00  0.00     0.002 A 
ATOM     14  C   UNL d   1      30.060  16.853 -24.294  0.00  0.00     0.020 A 
ENDBRANCH   5   8
ENDBRANCH   1   2
BRANCH   1  15
ATOM     15  C   UNL d   1      32.991  19.663 -23.606  0.00  0.00     0.238 C 
ATOM     16  O   UNL d   1      32.541  20.173 -24.255  0.00  0.00    -0.283 OA
BRANCH  15  17
ATOM     17  C   UNL d   1      33.184  19.958 -22.870  0.00  0.00     0.166 C 
BRANCH  17  18
ATOM     18  O   UNL d   1      32.579  20.081 -22.307  0.00  0.00    -0.302 OA
BRANCH  18  19
ATOM     19  C   UNL d   1      32.629  20.713 -21.791  0.00  0.00     0.100 A 
ATOM     20  C   UNL d   1      32.144  20.759 -21.125  0.00  0.00     0.026 A 
ATOM     21  C   UNL d   1      32.191  21.398 -20.599  0.00  0.00     0.026 A 
ATOM     22  C   UNL d   1      32.747  22.017 -20.747  0.00  0.00     0.127 A 
ATOM     23  C   UNL d   1      33.232  21.971 -21.414  0.00  0.00     0.026 A 
ATOM     24  C   UNL d   1      33.175  21.317 -21.940  0.00  0.00     0.026 A 
BRANCH  22  25
ATOM     25  N   UNL d   1      32.812  22.663 -20.238  0.00  0.00    -0.114 N 
ATOM     26  O   UNL d   1      32.642  23.444 -20.441  0.00  0.00    -0.532 OA
ATOM     27  O   UNL d   1      33.056  22.611 -19.455  0.00  0.00    -0.532 OA
ENDBRANCH  22  25
ENDBRANCH  18  19
ENDBRANCH  17  18
ENDBRANCH  15  17
ENDBRANCH   1  15
TORSDOF 7
ENDMDL
