MODEL 1
REMARK VINA RESULT:      65.4      0.000      0.000
REMARK  3 active torsions:
REMARK  status: ('A' for Active; 'I' for Inactive)
REMARK    1  A    between atoms: C_15  and  N_4 
REMARK    2  A    between atoms: C_11  and  N_10 
REMARK    3  A    between atoms: C_19  and  C_15 
ROOT
ATOM      1  C   UNL d   1     -54.745-100.715 -40.759  0.00  0.00     0.191 A 
ATOM      2  C   UNL d   1     -54.743-101.540 -40.852  0.00  0.00     0.173 A 
ATOM      3  C   UNL d   1     -54.759-100.981 -42.078  0.00  0.00     0.722 A 
ATOM      4  N   UNL d   1     -54.727-101.722 -39.429  0.00  0.00    -0.224 N 
ATOM      5  N   UNL d   1     -54.754-100.360 -41.507  0.00  0.00    -0.042 NA
ATOM      6  N   UNL d   1     -54.752-101.699 -41.678  0.00  0.00    -0.131 N 
ATOM      7  N   UNL d   1     -54.737-100.378 -39.984  0.00  0.00    -0.240 N 
ATOM      8  C   UNL d   1     -54.728-100.900 -39.308  0.00  0.00     0.343 A 
ATOM      9  C   UNL d   1     -54.735-102.036 -40.221  0.00  0.00     0.288 A 
ATOM     10  N   UNL d   1     -54.767-101.138 -42.884  0.00  0.00    -0.139 N 
ATOM     11  C   UNL d   1     -54.756-102.304 -42.239  0.00  0.00     0.118 A 
ATOM     12  C   UNL d   1     -54.766-101.949 -42.983  0.00  0.00     0.117 A 
ATOM     13  O   UNL d   1     -54.720-100.598 -38.518  0.00  0.00    -0.245 OA
ATOM     14  O   UNL d   1     -54.733-102.877 -40.316  0.00  0.00    -0.265 OA
ATOM     15  C   UNL d   1     -54.739 -99.546 -39.878  0.00  0.00     0.105 C 
ENDROOT
BRANCH  10  16
ATOM     16  C   UNL d   1     -54.776-100.574 -43.488  0.00  0.00     0.082 A 
ATOM     17  C   UNL d   1     -54.754-100.823 -44.268  0.00  0.00     0.027 A 
ATOM     18  C   UNL d   1     -54.763-100.267 -44.865  0.00  0.00     0.059 A 
ATOM     19  C   UNL d   1     -54.724-101.630 -44.455  0.00  0.00     0.002 C 
ATOM     20 CL   UNL d   1     -54.739-100.590 -45.625  0.00  0.00    -0.082 Cl
ATOM     21  C   UNL d   1     -54.792 -99.458 -44.687  0.00  0.00     0.011 A 
ATOM     22  C   UNL d   1     -54.814 -99.211 -43.899  0.00  0.00     0.002 A 
ATOM     23  C   UNL d   1     -54.805 -99.775 -43.299  0.00  0.00     0.018 A 
ENDBRANCH  10  16
BRANCH   4  24
ATOM     24  C   UNL d   1     -54.718-101.826 -38.611  0.00  0.00     0.087 C 
BRANCH  24  25
ATOM     25  C   UNL d   1     -55.313-102.261 -38.252  0.00  0.00     0.018 C 
ATOM     26  C   UNL d   1     -55.939-102.546 -38.707  0.00  0.00     0.002 C 
ATOM     27  C   UNL d   1     -55.297-102.417 -37.451  0.00  0.00     0.002 C 
ENDBRANCH  24  25
ENDBRANCH   4  24
TORSDOF 3
ENDMDL
