MODEL 1
REMARK VINA RESULT:      -8.9      0.000      0.000
REMARK  3 active torsions:
REMARK  status: ('A' for Active; 'I' for Inactive)
REMARK       I    between atoms: N_2  and  C_1 
REMARK    1  A    between atoms: C_8  and  C_1 
REMARK    2  A    between atoms: C_6  and  N_2 
REMARK    3  A    between atoms: N_4  and  C_8 
ROOT
ATOM      1  N   UNL d   1      50.884  34.181  52.297  0.00  0.00    -0.191 NA
ATOM      2  C   UNL d   1      51.503  34.255  52.795  0.00  0.00     0.102 C 
ATOM      3  C   UNL d   1      52.615  33.673  53.471  0.00  0.00     0.094 A 
ATOM      4  C   UNL d   1      52.137  34.335  53.305  0.00  0.00     0.086 A 
ATOM      5  C   UNL d   1      52.313  35.064  53.662  0.00  0.00     0.012 A 
ATOM      6  C   UNL d   1      53.249  33.748  53.981  0.00  0.00     0.020 A 
ATOM      7  C   UNL d   1      52.958  35.133  54.178  0.00  0.00     0.001 A 
ATOM      8  C   UNL d   1      53.422  34.477  54.335  0.00  0.00     0.002 A 
ENDROOT
BRANCH   3   9
ATOM      9  N   UNL d   1      52.443  32.949  53.119  0.00  0.00    -0.206 NA
ATOM     10  C   UNL d   1      53.051  32.416  53.032  0.00  0.00     0.297 C 
ATOM     11  O   UNL d   1      53.816  32.604  53.292  0.00  0.00    -0.264 OA
BRANCH  10  12
ATOM     12  C   UNL d   1      52.927  31.668  52.682  0.00  0.00     0.144 C 
BRANCH  12  13
ATOM     13  N   UNL d   1      53.023  30.977  53.097  0.00  0.00    -0.299 N 
ATOM     14  C   UNL d   1      53.763  30.722  53.317  0.00  0.00     0.080 A 
ATOM     15  C   UNL d   1      53.855  30.019  53.738  0.00  0.00     0.019 A 
ATOM     16  C   UNL d   1      53.199  29.578  53.935  0.00  0.00     0.003 A 
ATOM     17  C   UNL d   1      52.458  29.840  53.710  0.00  0.00     0.019 A 
ATOM     18  C   UNL d   1      53.266  28.836  54.377  0.00  0.00     0.000 C 
ATOM     19  C   UNL d   1      52.369  30.545  53.287  0.00  0.00     0.080 A 
ENDBRANCH  12  13
ENDBRANCH  10  12
ENDBRANCH   3   9
TORSDOF 3
ENDMDL
MODEL 2
REMARK VINA RESULT:      -8.4      1.348      4.162
REMARK  3 active torsions:
REMARK  status: ('A' for Active; 'I' for Inactive)
REMARK       I    between atoms: N_2  and  C_1 
REMARK    1  A    between atoms: C_8  and  C_1 
REMARK    2  A    between atoms: C_6  and  N_2 
REMARK    3  A    between atoms: N_4  and  C_8 
ROOT
ATOM      1  N   UNL d   1      54.367  32.876  54.998  0.00  0.00    -0.191 NA
ATOM      2  C   UNL d   1      54.028  32.345  54.510  0.00  0.00     0.102 C 
ATOM      3  C   UNL d   1      53.132  32.054  53.439  0.00  0.00     0.094 A 
ATOM      4  C   UNL d   1      53.682  31.797  54.010  0.00  0.00     0.086 A 
ATOM      5  C   UNL d   1      53.869  30.990  54.061  0.00  0.00     0.012 A 
ATOM      6  C   UNL d   1      52.784  31.511  52.938  0.00  0.00     0.020 A 
ATOM      7  C   UNL d   1      53.512  30.444  53.550  0.00  0.00     0.001 A 
ATOM      8  C   UNL d   1      52.973  30.705  52.992  0.00  0.00     0.002 A 
ENDROOT
BRANCH   3   9
ATOM      9  N   UNL d   1      52.944  32.854  53.386  0.00  0.00    -0.206 NA
ATOM     10  C   UNL d   1      52.452  33.088  52.783  0.00  0.00     0.297 C 
ATOM     11  O   UNL d   1      52.153  32.533  52.244  0.00  0.00    -0.264 OA
BRANCH  10  12
ATOM     12  C   UNL d   1      52.232  33.888  52.687  0.00  0.00     0.144 C 
BRANCH  12  13
ATOM     13  N   UNL d   1      51.456  34.116  52.614  0.00  0.00    -0.299 N 
ATOM     14  C   UNL d   1      51.007  34.285  53.270  0.00  0.00     0.080 A 
ATOM     15  C   UNL d   1      50.220  34.516  53.190  0.00  0.00     0.019 A 
ATOM     16  C   UNL d   1      49.890  34.574  52.447  0.00  0.00     0.003 A 
ATOM     17  C   UNL d   1      50.346  34.402  51.792  0.00  0.00     0.019 A 
ATOM     18  C   UNL d   1      49.065  34.814  52.334  0.00  0.00     0.000 C 
ATOM     19  C   UNL d   1      51.136  34.171  51.875  0.00  0.00     0.080 A 
ENDBRANCH  12  13
ENDBRANCH  10  12
ENDBRANCH   3   9
TORSDOF 3
ENDMDL
MODEL 3
REMARK VINA RESULT:      -8.1      1.590      3.805
REMARK  3 active torsions:
REMARK  status: ('A' for Active; 'I' for Inactive)
REMARK       I    between atoms: N_2  and  C_1 
REMARK    1  A    between atoms: C_8  and  C_1 
REMARK    2  A    between atoms: C_6  and  N_2 
REMARK    3  A    between atoms: N_4  and  C_8 
ROOT
ATOM      1  N   UNL d   1      53.314  31.427  53.255  0.00  0.00    -0.191 NA
ATOM      2  C   UNL d   1      53.564  31.990  53.761  0.00  0.00     0.102 C 
ATOM      3  C   UNL d   1      53.707  33.369  54.095  0.00  0.00     0.094 A 
ATOM      4  C   UNL d   1      53.821  32.565  54.283  0.00  0.00     0.086 A 
ATOM      5  C   UNL d   1      54.193  32.363  54.997  0.00  0.00     0.012 A 
ATOM      6  C   UNL d   1      53.962  33.947  54.613  0.00  0.00     0.020 A 
ATOM      7  C   UNL d   1      54.450  32.955  55.518  0.00  0.00     0.001 A 
ATOM      8  C   UNL d   1      54.334  33.742  55.325  0.00  0.00     0.002 A 
ENDROOT
BRANCH   3   9
ATOM      9  N   UNL d   1      53.338  33.574  53.388  0.00  0.00    -0.206 NA
ATOM     10  C   UNL d   1      52.931  34.277  53.362  0.00  0.00     0.297 C 
ATOM     11  O   UNL d   1      52.893  34.766  54.030  0.00  0.00    -0.264 OA
BRANCH  10  12
ATOM     12  C   UNL d   1      52.540  34.528  52.668  0.00  0.00     0.144 C 
BRANCH  12  13
ATOM     13  N   UNL d   1      51.733  34.483  52.588  0.00  0.00    -0.299 N 
ATOM     14  C   UNL d   1      51.240  34.724  53.188  0.00  0.00     0.080 A 
ATOM     15  C   UNL d   1      50.422  34.676  53.101  0.00  0.00     0.019 A 
ATOM     16  C   UNL d   1      50.105  34.386  52.409  0.00  0.00     0.003 A 
ATOM     17  C   UNL d   1      50.606  34.145  51.810  0.00  0.00     0.019 A 
ATOM     18  C   UNL d   1      49.249  34.324  52.292  0.00  0.00     0.000 C 
ATOM     19  C   UNL d   1      51.427  34.194  51.899  0.00  0.00     0.080 A 
ENDBRANCH  12  13
ENDBRANCH  10  12
ENDBRANCH   3   9
TORSDOF 3
ENDMDL
MODEL 4
REMARK VINA RESULT:      -7.1      1.265      4.183
REMARK  3 active torsions:
REMARK  status: ('A' for Active; 'I' for Inactive)
REMARK       I    between atoms: N_2  and  C_1 
REMARK    1  A    between atoms: C_8  and  C_1 
REMARK    2  A    between atoms: C_6  and  N_2 
REMARK    3  A    between atoms: N_4  and  C_8 
ROOT
ATOM      1  N   UNL d   1      52.942  30.337  51.883  0.00  0.00    -0.191 NA
ATOM      2  C   UNL d   1      53.046  30.201  52.661  0.00  0.00     0.102 C 
ATOM      3  C   UNL d   1      53.530  30.631  53.932  0.00  0.00     0.094 A 
ATOM      4  C   UNL d   1      53.152  30.057  53.460  0.00  0.00     0.086 A 
ATOM      5  C   UNL d   1      52.889  29.352  53.809  0.00  0.00     0.012 A 
ATOM      6  C   UNL d   1      53.637  30.492  54.730  0.00  0.00     0.020 A 
ATOM      7  C   UNL d   1      53.001  29.218  54.619  0.00  0.00     0.001 A 
ATOM      8  C   UNL d   1      53.373  29.786  55.075  0.00  0.00     0.002 A 
ENDROOT
BRANCH   3   9
ATOM      9  N   UNL d   1      53.792  31.332  53.590  0.00  0.00    -0.206 NA
ATOM     10  C   UNL d   1      53.922  31.968  54.079  0.00  0.00     0.297 C 
ATOM     11  O   UNL d   1      53.793  31.903  54.896  0.00  0.00    -0.264 OA
BRANCH  10  12
ATOM     12  C   UNL d   1      54.188  32.700  53.780  0.00  0.00     0.144 C 
BRANCH  12  13
ATOM     13  N   UNL d   1      53.810  33.399  53.951  0.00  0.00    -0.299 N 
ATOM     14  C   UNL d   1      53.238  33.696  53.457  0.00  0.00     0.080 A 
ATOM     15  C   UNL d   1      52.858  34.405  53.636  0.00  0.00     0.019 A 
ATOM     16  C   UNL d   1      53.058  34.810  54.314  0.00  0.00     0.003 A 
ATOM     17  C   UNL d   1      53.634  34.506  54.807  0.00  0.00     0.019 A 
ATOM     18  C   UNL d   1      52.674  35.557  54.526  0.00  0.00     0.000 C 
ATOM     19  C   UNL d   1      54.014  33.794  54.625  0.00  0.00     0.080 A 
ENDBRANCH  12  13
ENDBRANCH  10  12
ENDBRANCH   3   9
TORSDOF 3
ENDMDL
