MODEL 1
REMARK VINA RESULT:      -2.1      0.000      0.000
REMARK  3 active torsions:
REMARK  status: ('A' for Active; 'I' for Inactive)
REMARK    1  A    between atoms: N_5  and  C_1 
REMARK    2  A    between atoms: C_7  and  N_2 
REMARK    3  A    between atoms: C_9  and  C_7 
ROOT
ATOM      1  C   UNL d   1      58.380  -1.821  29.783  0.00  0.00     0.720 A 
ATOM      2  N   UNL d   1      58.503  -1.049  29.509  0.00  0.00    -0.139 N 
ATOM      3  N   UNL d   1      57.918  -1.776  30.466  0.00  0.00    -0.060 NA
ATOM      4  C   UNL d   1      58.115  -0.531  30.026  0.00  0.00     0.100 A 
ATOM      5  C   UNL d   1      57.754  -0.979  30.616  0.00  0.00     0.116 A 
ATOM      6  C   UNL d   1      58.051   0.293  30.026  0.00  0.00     0.020 A 
ATOM      7  C   UNL d   1      57.325  -0.608  31.212  0.00  0.00     0.021 A 
ATOM      8  C   UNL d   1      57.622   0.664  30.621  0.00  0.00     0.002 A 
ATOM      9  C   UNL d   1      57.261   0.215  31.211  0.00  0.00     0.002 A 
ENDROOT
BRANCH   2  10
ATOM     10  C   UNL d   1      58.938  -0.837  28.837  0.00  0.00     0.098 C 
BRANCH  10  11
ATOM     11  C   UNL d   1      59.642  -0.411  28.926  0.00  0.00     0.018 A 
ATOM     12  C   UNL d   1      60.201  -0.651  29.472  0.00  0.00     0.002 A 
ATOM     13  C   UNL d   1      60.902  -0.225  29.558  0.00  0.00     0.000 A 
ATOM     14  C   UNL d   1      61.037   0.445  29.092  0.00  0.00     0.000 A 
ATOM     15  C   UNL d   1      60.464   0.681  28.541  0.00  0.00     0.000 A 
ATOM     16  C   UNL d   1      59.767   0.253  28.458  0.00  0.00     0.002 A 
ENDBRANCH  10  11
ENDBRANCH   2  10
BRANCH   1  17
ATOM     17  N   UNL d   1      58.671  -2.506  29.430  0.00  0.00    -0.136 N 
ATOM     18  C   UNL d   1      58.264  -2.860  28.804  0.00  0.00     0.119 A 
ATOM     19  C   UNL d   1      58.560  -3.542  28.457  0.00  0.00     0.119 A 
ATOM     20  N   UNL d   1      59.263  -3.876  28.730  0.00  0.00    -0.239 NA
ATOM     21  C   UNL d   1      59.669  -3.522  29.355  0.00  0.00     0.119 A 
ATOM     22  C   UNL d   1      59.377  -2.832  29.711  0.00  0.00     0.119 A 
ENDBRANCH   1  17
TORSDOF 3
ENDMDL
MODEL 2
REMARK VINA RESULT:      -0.7      1.593      3.410
REMARK  3 active torsions:
REMARK  status: ('A' for Active; 'I' for Inactive)
REMARK    1  A    between atoms: N_5  and  C_1 
REMARK    2  A    between atoms: C_7  and  N_2 
REMARK    3  A    between atoms: C_9  and  C_7 
ROOT
ATOM      1  C   UNL d   1      58.335   0.202  31.457  0.00  0.00     0.720 A 
ATOM      2  N   UNL d   1      58.596   0.103  30.677  0.00  0.00    -0.139 N 
ATOM      3  N   UNL d   1      58.982   0.435  31.913  0.00  0.00    -0.060 NA
ATOM      4  C   UNL d   1      59.406   0.276  30.657  0.00  0.00     0.100 A 
ATOM      5  C   UNL d   1      59.644   0.480  31.419  0.00  0.00     0.116 A 
ATOM      6  C   UNL d   1      59.950   0.270  30.035  0.00  0.00     0.020 A 
ATOM      7  C   UNL d   1      60.428   0.681  31.566  0.00  0.00     0.021 A 
ATOM      8  C   UNL d   1      60.733   0.470  30.182  0.00  0.00     0.002 A 
ATOM      9  C   UNL d   1      60.971   0.675  30.944  0.00  0.00     0.002 A 
ENDROOT
BRANCH   2  10
ATOM     10  C   UNL d   1      58.128  -0.128  30.034  0.00  0.00     0.098 C 
BRANCH  10  11
ATOM     11  C   UNL d   1      58.308  -0.828  29.631  0.00  0.00     0.018 A 
ATOM     12  C   UNL d   1      58.196  -1.551  29.994  0.00  0.00     0.002 A 
ATOM     13  C   UNL d   1      58.376  -2.247  29.590  0.00  0.00     0.000 A 
ATOM     14  C   UNL d   1      58.669  -2.211  28.817  0.00  0.00     0.000 A 
ATOM     15  C   UNL d   1      58.779  -1.473  28.457  0.00  0.00     0.000 A 
ATOM     16  C   UNL d   1      58.599  -0.782  28.864  0.00  0.00     0.002 A 
ENDBRANCH  10  11
ENDBRANCH   2  10
BRANCH   1  17
ATOM     17  N   UNL d   1      57.562   0.086  31.720  0.00  0.00    -0.136 N 
ATOM     18  C   UNL d   1      56.993   0.677  31.621  0.00  0.00     0.119 A 
ATOM     19  C   UNL d   1      56.227   0.554  31.886  0.00  0.00     0.119 A 
ATOM     20  N   UNL d   1      56.021  -0.156  32.251  0.00  0.00    -0.239 NA
ATOM     21  C   UNL d   1      56.590  -0.745  32.350  0.00  0.00     0.119 A 
ATOM     22  C   UNL d   1      57.367  -0.629  32.086  0.00  0.00     0.119 A 
ENDBRANCH   1  17
TORSDOF 3
ENDMDL
MODEL 3
REMARK VINA RESULT:      -0.3      1.117      2.822
REMARK  3 active torsions:
REMARK  status: ('A' for Active; 'I' for Inactive)
REMARK    1  A    between atoms: N_5  and  C_1 
REMARK    2  A    between atoms: C_7  and  N_2 
REMARK    3  A    between atoms: C_9  and  C_7 
ROOT
ATOM      1  C   UNL d   1      59.086  -0.024  30.153  0.00  0.00     0.720 A 
ATOM      2  N   UNL d   1      58.532  -0.607  29.955  0.00  0.00    -0.139 N 
ATOM      3  N   UNL d   1      58.879   0.282  30.891  0.00  0.00    -0.060 NA
ATOM      4  C   UNL d   1      57.984  -0.657  30.574  0.00  0.00     0.100 A 
ATOM      5  C   UNL d   1      58.198  -0.109  31.151  0.00  0.00     0.116 A 
ATOM      6  C   UNL d   1      57.318  -1.136  30.677  0.00  0.00     0.020 A 
ATOM      7  C   UNL d   1      57.748  -0.035  31.836  0.00  0.00     0.021 A 
ATOM      8  C   UNL d   1      56.870  -1.062  31.362  0.00  0.00     0.002 A 
ATOM      9  C   UNL d   1      57.084  -0.514  31.938  0.00  0.00     0.002 A 
ENDROOT
BRANCH   2  10
ATOM     10  C   UNL d   1      58.529  -1.058  29.261  0.00  0.00     0.098 C 
BRANCH  10  11
ATOM     11  C   UNL d   1      58.763  -1.851  29.290  0.00  0.00     0.018 A 
ATOM     12  C   UNL d   1      59.450  -2.062  29.680  0.00  0.00     0.002 A 
ATOM     13  C   UNL d   1      59.681  -2.853  29.708  0.00  0.00     0.000 A 
ATOM     14  C   UNL d   1      59.218  -3.431  29.340  0.00  0.00     0.000 A 
ATOM     15  C   UNL d   1      58.523  -3.208  28.947  0.00  0.00     0.000 A 
ATOM     16  C   UNL d   1      58.296  -2.419  28.922  0.00  0.00     0.002 A 
ENDBRANCH  10  11
ENDBRANCH   2  10
BRANCH   1  17
ATOM     17  N   UNL d   1      59.728   0.202  29.688  0.00  0.00    -0.136 N 
ATOM     18  C   UNL d   1      59.613   0.458  28.912  0.00  0.00     0.119 A 
ATOM     19  C   UNL d   1      60.257   0.682  28.455  0.00  0.00     0.119 A 
ATOM     20  N   UNL d   1      61.019   0.652  28.768  0.00  0.00    -0.239 NA
ATOM     21  C   UNL d   1      61.133   0.396  29.545  0.00  0.00     0.119 A 
ATOM     22  C   UNL d   1      60.488   0.168  30.013  0.00  0.00     0.119 A 
ENDBRANCH   1  17
TORSDOF 3
ENDMDL
MODEL 4
REMARK VINA RESULT:      -0.1      1.389      2.092
REMARK  3 active torsions:
REMARK  status: ('A' for Active; 'I' for Inactive)
REMARK    1  A    between atoms: N_5  and  C_1 
REMARK    2  A    between atoms: C_7  and  N_2 
REMARK    3  A    between atoms: C_9  and  C_7 
ROOT
ATOM      1  C   UNL d   1      57.855  -0.758  30.520  0.00  0.00     0.720 A 
ATOM      2  N   UNL d   1      57.995  -0.019  30.866  0.00  0.00    -0.139 N 
ATOM      3  N   UNL d   1      57.258  -1.130  30.952  0.00  0.00    -0.060 NA
ATOM      4  C   UNL d   1      57.482   0.061  31.511  0.00  0.00     0.100 A 
ATOM      5  C   UNL d   1      57.028  -0.624  31.564  0.00  0.00     0.116 A 
ATOM      6  C   UNL d   1      57.379   0.677  32.053  0.00  0.00     0.020 A 
ATOM      7  C   UNL d   1      56.465  -0.700  32.159  0.00  0.00     0.021 A 
ATOM      8  C   UNL d   1      56.816   0.601  32.647  0.00  0.00     0.002 A 
ATOM      9  C   UNL d   1      56.362  -0.085  32.700  0.00  0.00     0.002 A 
ENDROOT
BRANCH   2  10
ATOM     10  C   UNL d   1      58.551   0.539  30.609  0.00  0.00     0.098 C 
BRANCH  10  11
ATOM     11  C   UNL d   1      59.285   0.587  30.989  0.00  0.00     0.018 A 
ATOM     12  C   UNL d   1      59.322   0.634  31.805  0.00  0.00     0.002 A 
ATOM     13  C   UNL d   1      60.055   0.682  32.181  0.00  0.00     0.000 A 
ATOM     14  C   UNL d   1      60.749   0.682  31.732  0.00  0.00     0.000 A 
ATOM     15  C   UNL d   1      60.702   0.634  30.906  0.00  0.00     0.000 A 
ATOM     16  C   UNL d   1      59.970   0.587  30.535  0.00  0.00     0.002 A 
ENDBRANCH  10  11
ENDBRANCH   2  10
BRANCH   1  17
ATOM     17  N   UNL d   1      58.248  -1.060  29.861  0.00  0.00    -0.136 N 
ATOM     18  C   UNL d   1      58.532  -1.836  29.862  0.00  0.00     0.119 A 
ATOM     19  C   UNL d   1      58.922  -2.129  29.203  0.00  0.00     0.119 A 
ATOM     20  N   UNL d   1      59.032  -1.653  28.539  0.00  0.00    -0.239 NA
ATOM     21  C   UNL d   1      58.748  -0.878  28.538  0.00  0.00     0.119 A 
ATOM     22  C   UNL d   1      58.352  -0.574  29.201  0.00  0.00     0.119 A 
ENDBRANCH   1  17
TORSDOF 3
ENDMDL
