MODEL 1
REMARK VINA RESULT:      -0.8      0.000      0.000
REMARK  4 active torsions:
REMARK  status: ('A' for Active; 'I' for Inactive)
REMARK    1  A    between atoms: C_17  and  N_3 
REMARK    2  A    between atoms: C_9  and  C_5 
REMARK    3  A    between atoms: O_21  and  C_12 
REMARK    4  A    between atoms: C_19  and  C_17 
ROOT
ATOM      1  C   UNL d   1      30.965  17.271 -24.123  0.00  0.00     0.083 A 
ATOM      2  C   UNL d   1      30.847  16.501 -23.865  0.00  0.00     0.161 A 
ATOM      3  N   UNL d   1      32.144  16.800 -23.631  0.00  0.00    -0.272 N 
ATOM      4  C   UNL d   1      31.560  16.209 -23.564  0.00  0.00     0.288 A 
ATOM      5  C   UNL d   1      31.784  17.465 -23.977  0.00  0.00     0.072 A 
ATOM      6  C   UNL d   1      30.348  17.710 -24.453  0.00  0.00     0.201 A 
ATOM      7  O   UNL d   1      30.087  16.160 -23.939  0.00  0.00    -0.302 OA
ATOM      8  C   UNL d   1      29.597  17.368 -24.525  0.00  0.00     0.062 A 
ATOM      9  C   UNL d   1      29.465  16.588 -24.267  0.00  0.00     0.103 A 
ATOM     10  O   UNL d   1      31.682  15.454 -23.247  0.00  0.00    -0.264 OA
ATOM     11  O   UNL d   1      30.478  18.483 -24.710  0.00  0.00    -0.286 OA
ATOM     12  C   UNL d   1      28.973  17.803 -24.856  0.00  0.00     0.005 A 
ATOM     13  C   UNL d   1      28.711  16.250 -24.341  0.00  0.00     0.025 A 
ATOM     14  C   UNL d   1      28.224  17.458 -24.926  0.00  0.00     0.000 A 
ATOM     15  C   UNL d   1      28.094  16.685 -24.670  0.00  0.00     0.002 A 
ENDROOT
BRANCH   5  16
ATOM     16  C   UNL d   1      32.147  18.182 -24.150  0.00  0.00     0.019 A 
ATOM     17  C   UNL d   1      32.273  18.731 -23.558  0.00  0.00     0.029 A 
ATOM     18  C   UNL d   1      32.635  19.451 -23.718  0.00  0.00     0.133 A 
ATOM     19  C   UNL d   1      32.874  19.620 -24.490  0.00  0.00     0.218 A 
ATOM     20  C   UNL d   1      32.747  19.063 -25.095  0.00  0.00     0.044 A 
ATOM     21  O   UNL d   1      33.238  20.340 -24.665  0.00  0.00    -0.284 OA
ATOM     22  C   UNL d   1      32.386  18.352 -24.919  0.00  0.00     0.005 A 
BRANCH  18  23
ATOM     23  O   UNL d   1      32.761  20.001 -23.125  0.00  0.00    -0.325 OA
ATOM     24  C   UNL d   1      32.870  19.749 -22.343  0.00  0.00     0.181 C 
ENDBRANCH  18  23
ENDBRANCH   5  16
BRANCH   3  25
ATOM     25  C   UNL d   1      32.932  16.744 -23.399  0.00  0.00     0.083 C 
BRANCH  25  26
ATOM     26  C   UNL d   1      33.197  16.080 -22.991  0.00  0.00     0.019 C 
ATOM     27  C   UNL d   1      33.238  16.090 -22.168  0.00  0.00     0.002 C 
ENDBRANCH  25  26
ENDBRANCH   3  25
TORSDOF 4
ENDMDL
MODEL 2
REMARK VINA RESULT:      -0.5      2.737      4.684
REMARK  4 active torsions:
REMARK  status: ('A' for Active; 'I' for Inactive)
REMARK    1  A    between atoms: C_17  and  N_3 
REMARK    2  A    between atoms: C_9  and  C_5 
REMARK    3  A    between atoms: O_21  and  C_12 
REMARK    4  A    between atoms: C_19  and  C_17 
ROOT
ATOM      1  C   UNL d   1      32.845  20.231 -23.249  0.00  0.00     0.083 A 
ATOM      2  C   UNL d   1      32.962  20.266 -24.061  0.00  0.00     0.161 A 
ATOM      3  N   UNL d   1      32.955  21.539 -23.609  0.00  0.00    -0.272 N 
ATOM      4  C   UNL d   1      33.029  21.059 -24.286  0.00  0.00     0.288 A 
ATOM      5  C   UNL d   1      32.839  21.034 -22.958  0.00  0.00     0.072 A 
ATOM      6  C   UNL d   1      32.757  19.507 -22.861  0.00  0.00     0.201 A 
ATOM      7  O   UNL d   1      32.992  19.553 -24.497  0.00  0.00    -0.302 OA
ATOM      8  C   UNL d   1      32.787  18.804 -23.297  0.00  0.00     0.062 A 
ATOM      9  C   UNL d   1      32.905  18.827 -24.121  0.00  0.00     0.103 A 
ATOM     10  O   UNL d   1      33.151  21.338 -25.056  0.00  0.00    -0.264 OA
ATOM     11  O   UNL d   1      32.640  19.485 -22.045  0.00  0.00    -0.286 OA
ATOM     12  C   UNL d   1      32.700  18.074 -22.914  0.00  0.00     0.005 A 
ATOM     13  C   UNL d   1      32.935  18.119 -24.553  0.00  0.00     0.025 A 
ATOM     14  C   UNL d   1      32.731  17.373 -23.353  0.00  0.00     0.000 A 
ATOM     15  C   UNL d   1      32.848  17.396 -24.169  0.00  0.00     0.002 A 
ENDROOT
BRANCH   5  16
ATOM     16  C   UNL d   1      32.738  21.262 -22.175  0.00  0.00     0.019 A 
ATOM     17  C   UNL d   1      32.190  21.838 -21.983  0.00  0.00     0.029 A 
ATOM     18  C   UNL d   1      32.080  22.074 -21.204  0.00  0.00     0.133 A 
ATOM     19  C   UNL d   1      32.530  21.724 -20.609  0.00  0.00     0.218 A 
ATOM     20  C   UNL d   1      33.089  21.139 -20.800  0.00  0.00     0.044 A 
ATOM     21  O   UNL d   1      32.430  21.952 -19.821  0.00  0.00    -0.284 OA
ATOM     22  C   UNL d   1      33.187  20.914 -21.580  0.00  0.00     0.005 A 
BRANCH  18  23
ATOM     23  O   UNL d   1      31.531  22.651 -21.012  0.00  0.00    -0.325 OA
ATOM     24  C   UNL d   1      31.756  23.447 -20.990  0.00  0.00     0.181 C 
ENDBRANCH  18  23
ENDBRANCH   5  16
BRANCH   3  25
ATOM     25  C   UNL d   1      32.988  22.362 -23.581  0.00  0.00     0.083 C 
BRANCH  25  26
ATOM     26  C   UNL d   1      33.064  22.796 -24.276  0.00  0.00     0.019 C 
ATOM     27  C   UNL d   1      33.177  23.612 -24.244  0.00  0.00     0.002 C 
ENDBRANCH  25  26
ENDBRANCH   3  25
TORSDOF 4
ENDMDL
MODEL 3
REMARK VINA RESULT:       2.1      1.608      2.924
REMARK  4 active torsions:
REMARK  status: ('A' for Active; 'I' for Inactive)
REMARK    1  A    between atoms: C_17  and  N_3 
REMARK    2  A    between atoms: C_9  and  C_5 
REMARK    3  A    between atoms: O_21  and  C_12 
REMARK    4  A    between atoms: C_19  and  C_17 
ROOT
ATOM      1  C   UNL d   1      29.722  17.001 -24.108  0.00  0.00     0.083 A 
ATOM      2  C   UNL d   1      29.195  17.619 -24.229  0.00  0.00     0.161 A 
ATOM      3  N   UNL d   1      30.386  18.011 -24.735  0.00  0.00    -0.272 N 
ATOM      4  C   UNL d   1      29.593  18.236 -24.610  0.00  0.00     0.288 A 
ATOM      5  C   UNL d   1      30.477  17.244 -24.426  0.00  0.00     0.072 A 
ATOM      6  C   UNL d   1      29.483  16.304 -23.736  0.00  0.00     0.201 A 
ATOM      7  O   UNL d   1      28.405  17.535 -23.970  0.00  0.00    -0.302 OA
ATOM      8  C   UNL d   1      28.699  16.225 -23.481  0.00  0.00     0.062 A 
ATOM      9  C   UNL d   1      28.156  16.846 -23.598  0.00  0.00     0.103 A 
ATOM     10  O   UNL d   1      29.265  18.963 -24.834  0.00  0.00    -0.264 OA
ATOM     11  O   UNL d   1      30.021  15.689 -23.619  0.00  0.00    -0.286 OA
ATOM     12  C   UNL d   1      28.452  15.527 -23.107  0.00  0.00     0.005 A 
ATOM     13  C   UNL d   1      27.372  16.761 -23.341  0.00  0.00     0.025 A 
ATOM     14  C   UNL d   1      27.668  15.452 -22.853  0.00  0.00     0.000 A 
ATOM     15  C   UNL d   1      27.130  16.067 -22.970  0.00  0.00     0.002 A 
ENDROOT
BRANCH   5  16
ATOM     16  C   UNL d   1      31.166  16.797 -24.425  0.00  0.00     0.019 A 
ATOM     17  C   UNL d   1      31.643  16.780 -23.761  0.00  0.00     0.029 A 
ATOM     18  C   UNL d   1      32.335  16.336 -23.748  0.00  0.00     0.133 A 
ATOM     19  C   UNL d   1      32.549  15.903 -24.416  0.00  0.00     0.218 A 
ATOM     20  C   UNL d   1      32.066  15.918 -25.093  0.00  0.00     0.044 A 
ATOM     21  O   UNL d   1      33.241  15.453 -24.416  0.00  0.00    -0.284 OA
ATOM     22  C   UNL d   1      31.381  16.363 -25.091  0.00  0.00     0.005 A 
BRANCH  18  23
ATOM     23  O   UNL d   1      32.812  16.320 -23.083  0.00  0.00    -0.325 OA
ATOM     24  C   UNL d   1      33.238  16.995 -22.862  0.00  0.00     0.181 C 
ENDBRANCH  18  23
ENDBRANCH   5  16
BRANCH   3  25
ATOM     25  C   UNL d   1      30.976  18.459 -25.097  0.00  0.00     0.083 C 
BRANCH  25  26
ATOM     26  C   UNL d   1      31.202  19.181 -24.774  0.00  0.00     0.019 C 
ATOM     27  C   UNL d   1      31.866  19.574 -25.064  0.00  0.00     0.002 C 
ENDBRANCH  25  26
ENDBRANCH   3  25
TORSDOF 4
ENDMDL
