MODEL 1
REMARK VINA RESULT:       3.0      0.000      0.000
REMARK  6 active torsions:
REMARK  status: ('A' for Active; 'I' for Inactive)
REMARK    1  A    between atoms: C_6  and  C_1 
REMARK    2  A    between atoms: C_8  and  N_2 
REMARK    3  A    between atoms: C_12  and  C_5 
REMARK    4  A    between atoms: C_7  and  C_6 
REMARK    5  A    between atoms: C_18  and  C_8 
REMARK    6  A    between atoms: N_10  and  C_18 
ROOT
ATOM      1  C   UNL d   1      59.909   0.017  30.008  0.00  0.00     0.099 A 
ATOM      2  N   UNL d   1      59.004   0.452  30.896  0.00  0.00    -0.269 N 
ATOM      3  C   UNL d   1      60.320   0.175  30.705  0.00  0.00     0.256 A 
ATOM      4  C   UNL d   1      59.765   0.441  31.246  0.00  0.00     0.304 A 
ATOM      5  C   UNL d   1      59.118   0.183  30.123  0.00  0.00     0.073 A 
ATOM      6  O   UNL d   1      59.925   0.665  32.019  0.00  0.00    -0.263 OA
ATOM      7  O   UNL d   1      61.133   0.081  30.826  0.00  0.00    -0.281 OA
ENDROOT
BRANCH   2   8
ATOM      8  C   UNL d   1      58.282   0.682  31.241  0.00  0.00     0.102 C 
BRANCH   8   9
ATOM      9  C   UNL d   1      57.794   0.113  31.569  0.00  0.00     0.100 C 
BRANCH   9  10
ATOM     10  N   UNL d   1      57.295   0.299  32.194  0.00  0.00    -0.298 N 
ATOM     11  C   UNL d   1      56.483   0.466  32.023  0.00  0.00     0.107 A 
ATOM     12  C   UNL d   1      55.964   0.658  32.653  0.00  0.00     0.142 A 
ATOM     13  O   UNL d   1      56.262   0.679  33.432  0.00  0.00    -0.300 OA
ATOM     14  C   UNL d   1      57.050   0.516  33.596  0.00  0.00     0.142 A 
ATOM     15  C   UNL d   1      57.572   0.323  32.961  0.00  0.00     0.107 A 
ENDBRANCH   9  10
ENDBRANCH   8   9
ENDBRANCH   2   8
BRANCH   5  16
ATOM     16  C   UNL d   1      58.510   0.103  29.569  0.00  0.00     0.016 A 
ATOM     17  C   UNL d   1      58.023  -0.563  29.583  0.00  0.00     0.001 A 
ATOM     18  C   UNL d   1      57.421  -0.644  29.035  0.00  0.00     0.000 A 
ATOM     19  C   UNL d   1      57.298  -0.055  28.463  0.00  0.00     0.000 A 
ATOM     20  C   UNL d   1      57.788   0.605  28.455  0.00  0.00     0.000 A 
ATOM     21  C   UNL d   1      58.398   0.682  29.014  0.00  0.00     0.001 A 
ENDBRANCH   5  16
BRANCH   1  22
ATOM     22  C   UNL d   1      60.255  -0.265  29.315  0.00  0.00     0.206 C 
ATOM     23  O   UNL d   1      60.432   0.253  28.717  0.00  0.00    -0.286 OA
BRANCH  22  24
ATOM     24  C   UNL d   1      60.426  -1.088  29.226  0.00  0.00     0.069 A 
ATOM     25  S   UNL d   1      61.029  -1.506  29.610  0.00  0.00    -0.083 SA
ATOM     26  C   UNL d   1      60.991  -2.291  29.359  0.00  0.00     0.035 A 
ATOM     27  C   UNL d   1      60.374  -2.368  28.825  0.00  0.00     0.008 A 
ATOM     28  C   UNL d   1      60.022  -1.620  28.742  0.00  0.00     0.010 A 
ENDBRANCH  22  24
ENDBRANCH   1  22
TORSDOF 6
ENDMDL
MODEL 2
REMARK VINA RESULT:       5.6      8.581     10.170
REMARK  6 active torsions:
REMARK  status: ('A' for Active; 'I' for Inactive)
REMARK    1  A    between atoms: C_6  and  C_1 
REMARK    2  A    between atoms: C_8  and  N_2 
REMARK    3  A    between atoms: C_12  and  C_5 
REMARK    4  A    between atoms: C_7  and  C_6 
REMARK    5  A    between atoms: C_18  and  C_8 
REMARK    6  A    between atoms: N_10  and  C_18 
ROOT
ATOM      1  C   UNL d   1      58.861  -7.827  34.956  0.00  0.00     0.099 A 
ATOM      2  N   UNL d   1      59.064  -8.748  34.004  0.00  0.00    -0.269 N 
ATOM      3  C   UNL d   1      58.394  -7.609  34.313  0.00  0.00     0.256 A 
ATOM      4  C   UNL d   1      58.520  -8.173  33.732  0.00  0.00     0.304 A 
ATOM      5  C   UNL d   1      59.264  -8.512  34.770  0.00  0.00     0.073 A 
ATOM      6  O   UNL d   1      58.167  -8.180  32.992  0.00  0.00    -0.263 OA
ATOM      7  O   UNL d   1      57.898  -6.948  34.270  0.00  0.00    -0.281 OA
ENDROOT
BRANCH   2   8
ATOM      8  C   UNL d   1      59.351  -9.418  33.600  0.00  0.00     0.102 C 
BRANCH   8   9
ATOM      9  C   UNL d   1      59.110  -9.557  32.830  0.00  0.00     0.100 C 
BRANCH   9  10
ATOM     10  N   UNL d   1      59.661  -9.615  32.224  0.00  0.00    -0.298 N 
ATOM     11  C   UNL d   1      59.378  -9.756  31.438  0.00  0.00     0.107 A 
ATOM     12  C   UNL d   1      59.930  -9.817  30.810  0.00  0.00     0.142 A 
ATOM     13  O   UNL d   1      60.744  -9.738  30.976  0.00  0.00    -0.300 OA
ATOM     14  C   UNL d   1      61.016  -9.601  31.738  0.00  0.00     0.142 A 
ATOM     15  C   UNL d   1      60.459  -9.540  32.370  0.00  0.00     0.107 A 
ENDBRANCH   9  10
ENDBRANCH   8   9
ENDBRANCH   2   8
BRANCH   5  16
ATOM     16  C   UNL d   1      59.794  -8.922  35.256  0.00  0.00     0.016 A 
ATOM     17  C   UNL d   1      60.606  -8.839  35.144  0.00  0.00     0.001 A 
ATOM     18  C   UNL d   1      61.131  -9.243  35.623  0.00  0.00     0.000 A 
ATOM     19  C   UNL d   1      60.846  -9.740  36.225  0.00  0.00     0.000 A 
ATOM     20  C   UNL d   1      60.034  -9.818  36.330  0.00  0.00     0.000 A 
ATOM     21  C   UNL d   1      59.506  -9.404  35.840  0.00  0.00     0.001 A 
ENDBRANCH   5  16
BRANCH   1  22
ATOM     22  C   UNL d   1      58.904  -7.410  35.666  0.00  0.00     0.206 C 
ATOM     23  O   UNL d   1      58.413  -7.612  36.279  0.00  0.00    -0.286 OA
BRANCH  22  24
ATOM     24  C   UNL d   1      59.455  -6.776  35.756  0.00  0.00     0.069 A 
ATOM     25  S   UNL d   1      60.111  -6.766  36.261  0.00  0.00    -0.083 SA
ATOM     26  C   UNL d   1      60.490  -6.040  36.168  0.00  0.00     0.035 A 
ATOM     27  C   UNL d   1      60.081  -5.596  35.614  0.00  0.00     0.008 A 
ATOM     28  C   UNL d   1      59.436  -6.054  35.357  0.00  0.00     0.010 A 
ENDBRANCH  22  24
ENDBRANCH   1  22
TORSDOF 6
ENDMDL
MODEL 3
REMARK VINA RESULT:       5.8      1.579      4.121
REMARK  6 active torsions:
REMARK  status: ('A' for Active; 'I' for Inactive)
REMARK    1  A    between atoms: C_6  and  C_1 
REMARK    2  A    between atoms: C_8  and  N_2 
REMARK    3  A    between atoms: C_12  and  C_5 
REMARK    4  A    between atoms: C_7  and  C_6 
REMARK    5  A    between atoms: C_18  and  C_8 
REMARK    6  A    between atoms: N_10  and  C_18 
ROOT
ATOM      1  C   UNL d   1      57.591  -0.268  31.640  0.00  0.00     0.099 A 
ATOM      2  N   UNL d   1      58.678   0.326  31.128  0.00  0.00    -0.269 N 
ATOM      3  C   UNL d   1      58.116  -0.159  32.265  0.00  0.00     0.256 A 
ATOM      4  C   UNL d   1      58.780   0.204  31.951  0.00  0.00     0.304 A 
ATOM      5  C   UNL d   1      57.929   0.024  30.956  0.00  0.00     0.073 A 
ATOM      6  O   UNL d   1      59.449   0.419  32.373  0.00  0.00    -0.263 OA
ATOM      7  O   UNL d   1      57.990  -0.377  33.054  0.00  0.00    -0.281 OA
ENDROOT
BRANCH   2   8
ATOM      8  C   UNL d   1      59.208   0.675  30.590  0.00  0.00     0.102 C 
BRANCH   8   9
ATOM      9  C   UNL d   1      59.999   0.466  30.612  0.00  0.00     0.100 C 
BRANCH   9  10
ATOM     10  N   UNL d   1      60.373   0.169  29.944  0.00  0.00    -0.298 N 
ATOM     11  C   UNL d   1      60.689  -0.616  29.977  0.00  0.00     0.107 A 
ATOM     12  C   UNL d   1      61.073  -0.931  29.301  0.00  0.00     0.142 A 
ATOM     13  O   UNL d   1      61.132  -0.463  28.614  0.00  0.00    -0.300 OA
ATOM     14  C   UNL d   1      60.825   0.298  28.583  0.00  0.00     0.142 A 
ATOM     15  C   UNL d   1      60.439   0.614  29.264  0.00  0.00     0.107 A 
ENDBRANCH   9  10
ENDBRANCH   8   9
ENDBRANCH   2   8
BRANCH   5  16
ATOM     16  C   UNL d   1      57.592   0.027  30.200  0.00  0.00     0.016 A 
ATOM     17  C   UNL d   1      57.150   0.675  29.948  0.00  0.00     0.001 A 
ATOM     18  C   UNL d   1      56.817   0.680  29.201  0.00  0.00     0.000 A 
ATOM     19  C   UNL d   1      56.924   0.031  28.694  0.00  0.00     0.000 A 
ATOM     20  C   UNL d   1      57.367  -0.612  28.954  0.00  0.00     0.000 A 
ATOM     21  C   UNL d   1      57.702  -0.611  29.713  0.00  0.00     0.001 A 
ENDBRANCH   5  16
BRANCH   1  22
ATOM     22  C   UNL d   1      56.847  -0.617  31.709  0.00  0.00     0.206 C 
ATOM     23  O   UNL d   1      56.623  -1.191  31.182  0.00  0.00    -0.286 OA
BRANCH  22  24
ATOM     24  C   UNL d   1      56.319  -0.379  32.325  0.00  0.00     0.069 A 
ATOM     25  S   UNL d   1      56.161  -0.797  33.022  0.00  0.00    -0.083 SA
ATOM     26  C   UNL d   1      55.616  -0.361  33.460  0.00  0.00     0.035 A 
ATOM     27  C   UNL d   1      55.431   0.323  33.048  0.00  0.00     0.008 A 
ATOM     28  C   UNL d   1      55.869   0.312  32.341  0.00  0.00     0.010 A 
ENDBRANCH  22  24
ENDBRANCH   1  22
TORSDOF 6
ENDMDL
