MODEL 1
REMARK VINA RESULT:       4.6      0.000      0.000
REMARK  2 active torsions:
REMARK  status: ('A' for Active; 'I' for Inactive)
REMARK    1  A    between atoms: C_4  and  C_1 
REMARK    2  A    between atoms: C_8  and  C_2 
REMARK       I    between atoms: N_7  and  C_4 
ROOT
ATOM      1  C   UNL d   1     -42.111-122.765 -49.675  0.00  0.00     0.081 A 
ATOM      2  C   UNL d   1     -41.570-123.180 -50.115  0.00  0.00     0.104 A 
ATOM      3  C   UNL d   1     -42.028-122.951 -48.881  0.00  0.00     0.033 A 
ATOM      4  O   UNL d   1     -41.123-123.651 -49.585  0.00  0.00    -0.307 OA
ATOM      5  C   UNL d   1     -41.409-123.506 -48.825  0.00  0.00     0.100 A 
ATOM      6  C   UNL d   1     -42.419-122.703 -48.198  0.00  0.00     0.044 A 
ATOM      7  C   UNL d   1     -41.191-123.803 -48.086  0.00  0.00     0.028 A 
ATOM      8  C   UNL d   1     -42.202-123.000 -47.454  0.00  0.00     0.196 A 
ATOM      9  C   UNL d   1     -41.583-123.555 -47.398  0.00  0.00     0.044 A 
ATOM     10  O   UNL d   1     -42.591-122.751 -46.787  0.00  0.00    -0.287 OA
ENDROOT
BRANCH   1  11
ATOM     11  C   UNL d   1     -42.674-122.224 -49.981  0.00  0.00     0.267 C 
ATOM     12  N   UNL d   1     -43.457-122.438 -50.041  0.00  0.00    -0.268 N 
ATOM     13  C   UNL d   1     -44.020-121.898 -50.347  0.00  0.00     0.110 A 
ATOM     14  C   UNL d   1     -43.716-123.194 -49.801  0.00  0.00     0.110 A 
ATOM     15  C   UNL d   1     -44.812-122.123 -50.404  0.00  0.00     0.142 A 
ATOM     16  O   UNL d   1     -45.063-122.866 -50.167  0.00  0.00    -0.300 OA
ATOM     17  C   UNL d   1     -44.507-123.408 -49.862  0.00  0.00     0.142 A 
ATOM     18  O   UNL d   1     -42.422-121.481 -50.218  0.00  0.00    -0.267 OA
ENDBRANCH   1  11
BRANCH   2  19
ATOM     19  C   UNL d   1     -41.470-123.152 -50.942  0.00  0.00     0.023 A 
ATOM     20  C   UNL d   1     -41.615-123.816 -51.380  0.00  0.00     0.002 A 
ATOM     21  C   UNL d   1     -41.514-123.787 -52.207  0.00  0.00     0.000 A 
ATOM     22  C   UNL d   1     -41.270-123.096 -52.576  0.00  0.00     0.000 A 
ATOM     23  C   UNL d   1     -41.124-122.422 -52.122  0.00  0.00     0.000 A 
ATOM     24  C   UNL d   1     -41.224-122.450 -51.300  0.00  0.00     0.002 A 
ENDBRANCH   2  19
TORSDOF 2
ENDMDL
