MODEL 1
REMARK VINA RESULT:      59.3      0.000      0.000
REMARK  8 active torsions:
REMARK  status: ('A' for Active; 'I' for Inactive)
REMARK    1  A    between atoms: C_20  and  N_7 
REMARK    2  A    between atoms: C_10  and  C_8 
REMARK       I    between atoms: N_18  and  C_10 
REMARK    3  A    between atoms: N_14  and  C_22 
REMARK    4  A    between atoms: C_21  and  N_18 
REMARK    5  A    between atoms: C_23  and  C_20 
REMARK    6  A    between atoms: C_22  and  C_21 
REMARK    7  A    between atoms: C_30  and  C_23 
REMARK    8  A    between atoms: O_27  and  C_30 
ROOT
ATOM      1  C   UNL d   1      14.261  14.431  -3.222  0.00  0.00     0.154 A 
ATOM      2  C   UNL d   1      13.772  14.104  -3.800  0.00  0.00     0.093 A 
ATOM      3  N   UNL d   1      14.458  14.003  -2.565  0.00  0.00    -0.210 NA
ATOM      4  N   UNL d   1      13.682  12.936  -3.063  0.00  0.00    -0.258 N 
ATOM      5  C   UNL d   1      14.172  13.263  -2.485  0.00  0.00     0.152 A 
ATOM      6  C   UNL d   1      13.479  13.356  -3.725  0.00  0.00     0.269 A 
ATOM      7  N   UNL d   1      14.546  15.167  -3.299  0.00  0.00    -0.285 N 
ATOM      8  C   UNL d   1      14.349  15.588  -3.952  0.00  0.00     0.137 A 
ATOM      9  C   UNL d   1      13.867  15.267  -4.520  0.00  0.00     0.031 A 
ATOM     10  C   UNL d   1      14.367  12.844  -1.839  0.00  0.00     0.035 A 
ATOM     11  C   UNL d   1      13.387  12.190  -2.995  0.00  0.00     0.084 A 
ATOM     12  O   UNL d   1      12.989  13.029  -4.303  0.00  0.00    -0.266 OA
ATOM     13  C   UNL d   1      13.594  11.779  -2.334  0.00  0.00     0.019 A 
ATOM     14  C   UNL d   1      14.084  12.106  -1.756  0.00  0.00     0.005 A 
ATOM     15  C   UNL d   1      14.864  13.183  -1.256  0.00  0.00     0.003 C 
ENDROOT
BRANCH   8  16
ATOM     16  C   UNL d   1      14.643  16.344  -4.030  0.00  0.00     0.344 C 
ATOM     17  O   UNL d   1      15.207  16.623  -3.502  0.00  0.00    -0.249 OA
ATOM     18  N   UNL d   1      14.361  16.825  -4.652  0.00  0.00    -0.359 NA
BRANCH  18  19
ATOM     19  C   UNL d   1      14.085  17.310  -5.269  0.00  0.00     0.184 C 
BRANCH  19  20
ATOM     20  C   UNL d   1      14.508  18.001  -5.482  0.00  0.00     0.116 C 
BRANCH  20  21
ATOM     21  N   UNL d   1      14.098  18.649  -5.815  0.00  0.00    -0.297 N 
ATOM     22  C   UNL d   1      13.430  18.986  -6.187  0.00  0.00     0.107 A 
ATOM     23  C   UNL d   1      13.425  19.801  -6.383  0.00  0.00     0.142 A 
ATOM     24  O   UNL d   1      14.095  20.280  -6.205  0.00  0.00    -0.300 OA
ATOM     25  C   UNL d   1      14.769  19.940  -5.830  0.00  0.00     0.142 A 
ATOM     26  C   UNL d   1      14.770  19.125  -5.635  0.00  0.00     0.107 A 
ENDBRANCH  20  21
ENDBRANCH  19  20
ENDBRANCH  18  19
ENDBRANCH   8  16
BRANCH   7  27
ATOM     27  C   UNL d   1      15.040  15.490  -2.711  0.00  0.00     0.084 C 
BRANCH  27  28
ATOM     28  C   UNL d   1      14.718  15.961  -2.106  0.00  0.00     0.045 C 
BRANCH  28  29
ATOM     29  C   UNL d   1      15.003  15.883  -1.327  0.00  0.00     0.118 C 
BRANCH  29  30
ATOM     30  O   UNL d   1      14.940  16.523  -0.801  0.00  0.00    -0.326 OA
ATOM     31  C   UNL d   1      15.555  17.090  -0.757  0.00  0.00     0.181 C 
ENDBRANCH  29  30
ENDBRANCH  28  29
ENDBRANCH  27  28
ENDBRANCH   7  27
TORSDOF 8
ENDMDL
MODEL 2
REMARK VINA RESULT:      59.8      1.058      2.680
REMARK  8 active torsions:
REMARK  status: ('A' for Active; 'I' for Inactive)
REMARK    1  A    between atoms: C_20  and  N_7 
REMARK    2  A    between atoms: C_10  and  C_8 
REMARK       I    between atoms: N_18  and  C_10 
REMARK    3  A    between atoms: N_14  and  C_22 
REMARK    4  A    between atoms: C_21  and  N_18 
REMARK    5  A    between atoms: C_23  and  C_20 
REMARK    6  A    between atoms: C_22  and  C_21 
REMARK    7  A    between atoms: C_30  and  C_23 
REMARK    8  A    between atoms: O_27  and  C_30 
ROOT
ATOM      1  C   UNL d   1      14.212  14.177  -2.529  0.00  0.00     0.154 A 
ATOM      2  C   UNL d   1      14.725  14.616  -2.056  0.00  0.00     0.093 A 
ATOM      3  N   UNL d   1      13.983  13.436  -2.303  0.00  0.00    -0.210 NA
ATOM      4  N   UNL d   1      14.774  13.577  -1.144  0.00  0.00    -0.258 N 
ATOM      5  C   UNL d   1      14.260  13.137  -1.617  0.00  0.00     0.152 A 
ATOM      6  C   UNL d   1      15.010  14.320  -1.361  0.00  0.00     0.269 A 
ATOM      7  N   UNL d   1      13.934  14.472  -3.212  0.00  0.00    -0.285 N 
ATOM      8  C   UNL d   1      14.164  15.207  -3.433  0.00  0.00     0.137 A 
ATOM      9  C   UNL d   1      14.669  15.639  -2.967  0.00  0.00     0.031 A 
ATOM     10  C   UNL d   1      14.034  12.409  -1.396  0.00  0.00     0.035 A 
ATOM     11  C   UNL d   1      15.061  13.287  -0.450  0.00  0.00     0.084 A 
ATOM     12  O   UNL d   1      15.523  14.760  -0.888  0.00  0.00    -0.266 OA
ATOM     13  C   UNL d   1      14.821  12.547  -0.241  0.00  0.00     0.019 A 
ATOM     14  C   UNL d   1      14.308  12.108  -0.714  0.00  0.00     0.005 A 
ATOM     15  C   UNL d   1      13.511  11.969  -1.882  0.00  0.00     0.003 C 
ENDROOT
BRANCH   8  16
ATOM     16  C   UNL d   1      13.879  15.508  -4.133  0.00  0.00     0.344 C 
ATOM     17  O   UNL d   1      13.279  15.117  -4.535  0.00  0.00    -0.249 OA
ATOM     18  N   UNL d   1      14.206  16.217  -4.432  0.00  0.00    -0.359 NA
BRANCH  18  19
ATOM     19  C   UNL d   1      14.527  16.922  -4.735  0.00  0.00     0.184 C 
BRANCH  19  20
ATOM     20  C   UNL d   1      14.130  17.337  -5.345  0.00  0.00     0.116 C 
BRANCH  20  21
ATOM     21  N   UNL d   1      14.444  18.058  -5.626  0.00  0.00    -0.297 N 
ATOM     22  C   UNL d   1      15.081  18.582  -5.757  0.00  0.00     0.107 A 
ATOM     23  C   UNL d   1      14.947  19.322  -6.129  0.00  0.00     0.142 A 
ATOM     24  O   UNL d   1      14.167  19.535  -6.370  0.00  0.00    -0.300 OA
ATOM     25  C   UNL d   1      13.525  19.006  -6.238  0.00  0.00     0.142 A 
ATOM     26  C   UNL d   1      13.664  18.267  -5.866  0.00  0.00     0.107 A 
ENDBRANCH  20  21
ENDBRANCH  19  20
ENDBRANCH  18  19
ENDBRANCH   8  16
BRANCH   7  27
ATOM     27  C   UNL d   1      13.416  14.022  -3.683  0.00  0.00     0.084 C 
BRANCH  27  28
ATOM     28  C   UNL d   1      13.704  13.610  -4.346  0.00  0.00     0.045 C 
BRANCH  28  29
ATOM     29  C   UNL d   1      13.187  13.129  -4.789  0.00  0.00     0.118 C 
BRANCH  29  30
ATOM     30  O   UNL d   1      13.497  12.514  -5.254  0.00  0.00    -0.326 OA
ATOM     31  C   UNL d   1      13.095  11.780  -5.296  0.00  0.00     0.181 C 
ENDBRANCH  29  30
ENDBRANCH  28  29
ENDBRANCH  27  28
ENDBRANCH   7  27
TORSDOF 8
ENDMDL
