MODEL 1
REMARK VINA RESULT:      36.5      0.000      0.000
REMARK  3 active torsions:
REMARK  status: ('A' for Active; 'I' for Inactive)
REMARK    1  A    between atoms: C_12  and  C_4 
REMARK    2  A    between atoms: O_13  and  C_7 
REMARK    3  A    between atoms: O_14  and  C_10 
ROOT
ATOM      1  C   UNL d   1     -54.718-100.614 -37.554  0.00  0.00     0.084 A 
ATOM      2  C   UNL d   1     -54.718-100.151 -38.236  0.00  0.00     0.201 A 
ATOM      3  C   UNL d   1     -54.719-100.518 -38.974  0.00  0.00     0.067 A 
ATOM      4  C   UNL d   1     -54.722-101.345 -39.030  0.00  0.00     0.103 A 
ATOM      5  C   UNL d   1     -54.721-101.441 -37.609  0.00  0.00     0.107 A 
ATOM      6  O   UNL d   1     -54.723-101.804 -38.347  0.00  0.00    -0.307 OA
ATOM      7  C   UNL d   1     -54.717-100.246 -36.815  0.00  0.00     0.101 A 
ATOM      8  C   UNL d   1     -54.722-101.895 -36.926  0.00  0.00     0.049 A 
ATOM      9  C   UNL d   1     -54.717-100.709 -36.133  0.00  0.00     0.049 A 
ATOM     10  C   UNL d   1     -54.720-101.526 -36.188  0.00  0.00     0.098 A 
ATOM     11  O   UNL d   1     -54.715 -99.334 -38.176  0.00  0.00    -0.286 OA
ENDROOT
BRANCH   4  12
ATOM     12  C   UNL d   1     -54.724-101.704 -39.768  0.00  0.00     0.023 A 
ATOM     13  C   UNL d   1     -54.718-101.242 -40.443  0.00  0.00     0.002 A 
ATOM     14  C   UNL d   1     -54.720-101.595 -41.189  0.00  0.00     0.000 A 
ATOM     15  C   UNL d   1     -54.727-102.426 -41.252  0.00  0.00     0.000 A 
ATOM     16  C   UNL d   1     -54.732-102.879 -40.571  0.00  0.00     0.000 A 
ATOM     17  C   UNL d   1     -54.731-102.527 -39.825  0.00  0.00     0.002 A 
ENDBRANCH   4  12
BRANCH   7  18
ATOM     18  O   UNL d   1     -54.714 -99.429 -36.760  0.00  0.00    -0.328 OA
ATOM     19  C   UNL d   1     -54.719 -99.071 -36.023  0.00  0.00     0.181 C 
ENDBRANCH   7  18
BRANCH  10  20
ATOM     20  O   UNL d   1     -54.721-101.990 -35.504  0.00  0.00    -0.328 OA
ATOM     21  C   UNL d   1     -55.314-102.554 -35.399  0.00  0.00     0.181 C 
ENDBRANCH  10  20
TORSDOF 3
ENDMDL
