MODEL 1
REMARK VINA RESULT:       3.1      0.000      0.000
REMARK  11 active torsions:
REMARK  status: ('A' for Active; 'I' for Inactive)
REMARK    1  A    between atoms: C_2  and  N_1 
REMARK    2  A    between atoms: C_4  and  C_2 
REMARK    3  A    between atoms: C_5  and  C_2 
REMARK    4  A    between atoms: C_3  and  N_6 
REMARK    5  A    between atoms: N_15  and  C_3 
REMARK    6  A    between atoms: N_6  and  C_4 
REMARK    7  A    between atoms: C_16  and  N_7 
REMARK    8  A    between atoms: C_20  and  N_15 
REMARK    9  A    between atoms: C_19  and  C_16 
REMARK   10  A    between atoms: C_23  and  C_20 
REMARK   11  A    between atoms: C_22  and  C_23 
ROOT
ATOM      1  C   UNL d   1     -41.529-122.240 -51.727  0.00  0.00     0.088 C 
ENDROOT
BRANCH   1   2
ATOM      2  N   UNL d   1     -41.492-122.375 -52.540  0.00  0.00    -0.300 N 
ATOM      3  C   UNL d   1     -41.194-123.091 -52.824  0.00  0.00     0.100 A 
ATOM      4  C   UNL d   1     -41.157-123.225 -53.637  0.00  0.00     0.100 A 
ATOM      5  N   UNL d   1     -41.415-122.650 -54.167  0.00  0.00    -0.300 N 
ATOM      6  C   UNL d   1     -41.711-121.938 -53.882  0.00  0.00     0.100 A 
ATOM      7  C   UNL d   1     -41.748-121.803 -53.068  0.00  0.00     0.100 A 
BRANCH   5   8
ATOM      8  C   UNL d   1     -41.376-122.788 -54.979  0.00  0.00     0.080 C 
BRANCH   8   9
ATOM      9  C   UNL d   1     -41.940-122.445 -55.482  0.00  0.00     0.018 A 
ATOM     10  C   UNL d   1     -42.630-122.839 -55.651  0.00  0.00     0.002 A 
ATOM     11  C   UNL d   1     -43.194-122.501 -56.152  0.00  0.00     0.000 A 
ATOM     12  C   UNL d   1     -43.044-121.761 -56.473  0.00  0.00     0.000 A 
ATOM     13  C   UNL d   1     -42.342-121.353 -56.304  0.00  0.00     0.000 A 
ATOM     14  C   UNL d   1     -41.789-121.709 -55.801  0.00  0.00     0.002 A 
ENDBRANCH   8   9
ENDBRANCH   5   8
ENDBRANCH   1   2
BRANCH   1  15
ATOM     15  C   UNL d   1     -41.721-122.848 -51.211  0.00  0.00     0.100 C 
ATOM     16  C   UNL d   1     -41.128-123.248 -50.819  0.00  0.00     0.022 C 
BRANCH  15  17
ATOM     17  N   UNL d   1     -42.504-123.044 -51.099  0.00  0.00    -0.216 NA
BRANCH  17  18
ATOM     18  C   UNL d   1     -42.735-123.457 -50.419  0.00  0.00     0.221 C 
ATOM     19  S   UNL d   1     -43.536-123.595 -50.285  0.00  0.00    -0.037 SA
BRANCH  18  20
ATOM     20  N   UNL d   1     -42.171-123.720 -49.892  0.00  0.00    -0.216 NA
BRANCH  20  21
ATOM     21  C   UNL d   1     -42.349-123.813 -49.097  0.00  0.00     0.102 C 
BRANCH  21  22
ATOM     22  C   UNL d   1     -41.740-123.748 -48.538  0.00  0.00     0.021 C 
BRANCH  22  23
ATOM     23  C   UNL d   1     -41.822-123.222 -47.921  0.00  0.00     0.002 A 
ATOM     24  C   UNL d   1     -42.576-122.963 -47.705  0.00  0.00     0.000 A 
ATOM     25  C   UNL d   1     -42.662-122.431 -47.080  0.00  0.00     0.000 A 
ATOM     26  C   UNL d   1     -42.006-122.160 -46.676  0.00  0.00     0.000 A 
ATOM     27  C   UNL d   1     -41.250-122.425 -46.897  0.00  0.00     0.000 A 
ATOM     28  C   UNL d   1     -41.167-122.950 -47.514  0.00  0.00     0.000 A 
ENDBRANCH  22  23
ENDBRANCH  21  22
ENDBRANCH  20  21
ENDBRANCH  18  20
ENDBRANCH  17  18
ENDBRANCH  15  17
ENDBRANCH   1  15
BRANCH   1  29
ATOM     29  C   UNL d   1     -41.370-121.486 -51.431  0.00  0.00     0.047 A 
ATOM     30  S   UNL d   1     -41.279-120.796 -51.878  0.00  0.00    -0.085 SA
ATOM     31  C   UNL d   1     -41.128-120.178 -51.361  0.00  0.00     0.035 A 
ATOM     32  C   UNL d   1     -41.124-120.479 -50.593  0.00  0.00     0.007 A 
ATOM     33  C   UNL d   1     -41.274-121.290 -50.638  0.00  0.00     0.009 A 
ENDBRANCH   1  29
TORSDOF 11
ENDMDL
MODEL 2
REMARK VINA RESULT:       5.3      1.018      6.126
REMARK  11 active torsions:
REMARK  status: ('A' for Active; 'I' for Inactive)
REMARK    1  A    between atoms: C_2  and  N_1 
REMARK    2  A    between atoms: C_4  and  C_2 
REMARK    3  A    between atoms: C_5  and  C_2 
REMARK    4  A    between atoms: C_3  and  N_6 
REMARK    5  A    between atoms: N_15  and  C_3 
REMARK    6  A    between atoms: N_6  and  C_4 
REMARK    7  A    between atoms: C_16  and  N_7 
REMARK    8  A    between atoms: C_20  and  N_15 
REMARK    9  A    between atoms: C_19  and  C_16 
REMARK   10  A    between atoms: C_23  and  C_20 
REMARK   11  A    between atoms: C_22  and  C_23 
ROOT
ATOM      1  C   UNL d   1     -41.615-122.417 -51.593  0.00  0.00     0.088 C 
ENDROOT
BRANCH   1   2
ATOM      2  N   UNL d   1     -41.717-122.767 -50.853  0.00  0.00    -0.300 N 
ATOM      3  C   UNL d   1     -42.425-122.655 -50.441  0.00  0.00     0.100 A 
ATOM      4  C   UNL d   1     -42.528-123.006 -49.701  0.00  0.00     0.100 A 
ATOM      5  N   UNL d   1     -41.930-123.465 -49.371  0.00  0.00    -0.300 N 
ATOM      6  C   UNL d   1     -41.226-123.575 -49.783  0.00  0.00     0.100 A 
ATOM      7  C   UNL d   1     -41.124-123.225 -50.523  0.00  0.00     0.100 A 
BRANCH   5   8
ATOM      8  C   UNL d   1     -42.037-123.814 -48.631  0.00  0.00     0.080 C 
BRANCH   8   9
ATOM      9  C   UNL d   1     -42.342-123.363 -48.004  0.00  0.00     0.018 A 
ATOM     10  C   UNL d   1     -41.995-122.656 -47.802  0.00  0.00     0.002 A 
ATOM     11  C   UNL d   1     -42.296-122.205 -47.178  0.00  0.00     0.000 A 
ATOM     12  C   UNL d   1     -42.949-122.485 -46.769  0.00  0.00     0.000 A 
ATOM     13  C   UNL d   1     -43.308-123.205 -46.969  0.00  0.00     0.000 A 
ATOM     14  C   UNL d   1     -42.992-123.642 -47.597  0.00  0.00     0.002 A 
ENDBRANCH   8   9
ENDBRANCH   5   8
ENDBRANCH   1   2
BRANCH   1  15
ATOM     15  C   UNL d   1     -41.572-122.877 -52.270  0.00  0.00     0.100 C 
ATOM     16  C   UNL d   1     -41.137-123.567 -52.263  0.00  0.00     0.022 C 
BRANCH  15  17
ATOM     17  N   UNL d   1     -41.967-122.637 -52.942  0.00  0.00    -0.216 NA
BRANCH  17  18
ATOM     18  C   UNL d   1     -42.051-123.157 -53.581  0.00  0.00     0.221 C 
ATOM     19  S   UNL d   1     -41.545-123.804 -53.640  0.00  0.00    -0.037 SA
BRANCH  18  20
ATOM     20  N   UNL d   1     -42.628-123.025 -54.140  0.00  0.00    -0.216 NA
BRANCH  20  21
ATOM     21  C   UNL d   1     -42.650-122.325 -54.566  0.00  0.00     0.102 C 
BRANCH  21  22
ATOM     22  C   UNL d   1     -42.833-122.351 -55.375  0.00  0.00     0.021 C 
BRANCH  22  23
ATOM     23  C   UNL d   1     -42.394-121.905 -55.896  0.00  0.00     0.002 A 
ATOM     24  C   UNL d   1     -41.579-121.834 -55.783  0.00  0.00     0.000 A 
ATOM     25  C   UNL d   1     -41.131-121.382 -56.310  0.00  0.00     0.000 A 
ATOM     26  C   UNL d   1     -41.491-121.007 -56.940  0.00  0.00     0.000 A 
ATOM     27  C   UNL d   1     -42.311-121.082 -57.049  0.00  0.00     0.000 A 
ATOM     28  C   UNL d   1     -42.751-121.528 -56.528  0.00  0.00     0.000 A 
ENDBRANCH  22  23
ENDBRANCH  21  22
ENDBRANCH  20  21
ENDBRANCH  18  20
ENDBRANCH  17  18
ENDBRANCH  15  17
ENDBRANCH   1  15
BRANCH   1  29
ATOM     29  C   UNL d   1     -41.554-121.596 -51.649  0.00  0.00     0.047 A 
ATOM     30  S   UNL d   1     -41.123-121.176 -52.217  0.00  0.00    -0.085 SA
ATOM     31  C   UNL d   1     -41.217-120.376 -52.066  0.00  0.00     0.035 A 
ATOM     32  C   UNL d   1     -41.706-120.294 -51.407  0.00  0.00     0.007 A 
ATOM     33  C   UNL d   1     -41.914-121.051 -51.149  0.00  0.00     0.009 A 
ENDBRANCH   1  29
TORSDOF 11
ENDMDL
