MODEL 1
REMARK VINA RESULT:      78.6      0.000      0.000
REMARK  5 active torsions:
REMARK  status: ('A' for Active; 'I' for Inactive)
REMARK    1  A    between atoms: C_3  and  C_1 
REMARK    2  A    between atoms: C_6  and  C_9 
REMARK    3  A    between atoms: C_7  and  C_12 
REMARK    4  A    between atoms: C_9  and  C_11 
REMARK       I    between atoms: C_11  and  N_16 
REMARK    5  A    between atoms: N_16  and  C_18 
ROOT
ATOM      1  N   UNL d   1     -56.779-101.599 -43.545  0.00  0.00    -0.207 NA
ATOM      2  C   UNL d   1     -56.140-102.038 -43.228  0.00  0.00     0.285 A 
ATOM      3  S   UNL d   1     -55.310-100.861 -43.283  0.00  0.00    -0.080 SA
ATOM      4  C   UNL d   1     -55.409-101.671 -43.098  0.00  0.00     0.092 A 
ATOM      5  C   UNL d   1     -56.674-100.798 -43.726  0.00  0.00     0.090 A 
ATOM      6  C   UNL d   1     -55.945-100.428 -43.597  0.00  0.00     0.047 A 
ATOM      7  C   UNL d   1     -57.204 -99.569 -44.220  0.00  0.00     0.073 A 
ATOM      8  C   UNL d   1     -57.305-100.367 -44.039  0.00  0.00     0.024 A 
ATOM      9  O   UNL d   1     -56.234-102.834 -43.045  0.00  0.00    -0.265 OA
ATOM     10  C   UNL d   1     -55.843 -99.632 -43.778  0.00  0.00     0.008 A 
ATOM     11  C   UNL d   1     -56.473 -99.202 -44.090  0.00  0.00     0.004 A 
ENDROOT
BRANCH   4  12
ATOM     12  C   UNL d   1     -54.780-102.091 -42.789  0.00  0.00     0.074 C 
BRANCH  12  13
ATOM     13  C   UNL d   1     -54.769-102.283 -41.978  0.00  0.00     0.280 C 
ATOM     14  N   UNL d   1     -54.839-101.687 -41.409  0.00  0.00    -0.208 NA
ATOM     15  O   UNL d   1     -54.715-102.816 -41.810  0.00  0.00    -0.265 OA
BRANCH  14  16
ATOM     16  C   UNL d   1     -54.828-101.886 -40.609  0.00  0.00     0.085 A 
ATOM     17  C   UNL d   1     -54.796-101.291 -40.043  0.00  0.00     0.024 A 
ATOM     18  C   UNL d   1     -54.784-101.491 -39.243  0.00  0.00     0.084 A 
ATOM     19  C   UNL d   1     -54.805-102.282 -39.013  0.00  0.00     0.062 A 
ATOM     20  C   UNL d   1     -54.838-102.876 -39.591  0.00  0.00     0.013 A 
ATOM     21 CL   UNL d   1     -54.794-102.477 -38.226  0.00  0.00    -0.082 Cl
ATOM     22  C   UNL d   1     -54.849-102.678 -40.383  0.00  0.00     0.020 A 
BRANCH  18  23
ATOM     23  C   UNL d   1     -54.752-100.906 -38.682  0.00  0.00     0.420 C 
ATOM     24  F   UNL d   1     -54.723-100.371 -38.163  0.00  0.00    -0.166 F 
ATOM     25  F   UNL d   1     -54.713-100.974 -37.838  0.00  0.00    -0.166 F 
ATOM     26  F   UNL d   1     -54.749-100.066 -38.784  0.00  0.00    -0.166 F 
ENDBRANCH  18  23
ENDBRANCH  14  16
ENDBRANCH  12  13
ENDBRANCH   4  12
BRANCH   7  27
ATOM     27  C   UNL d   1     -57.823 -99.145 -44.527  0.00  0.00     0.419 C 
ATOM     28  F   UNL d   1     -57.948 -98.873 -45.319  0.00  0.00    -0.166 F 
ATOM     29  F   UNL d   1     -58.525 -98.853 -44.137  0.00  0.00    -0.166 F 
ATOM     30  F   UNL d   1     -58.392 -98.755 -44.812  0.00  0.00    -0.166 F 
ENDBRANCH   7  27
TORSDOF 5
ENDMDL
