MODEL 1
REMARK VINA RESULT:      -5.6      0.000      0.000
REMARK  5 active torsions:
REMARK  status: ('A' for Active; 'I' for Inactive)
REMARK    1  A    between atoms: N_2  and  S_1 
REMARK    2  A    between atoms: C_3  and  S_1 
REMARK    3  A    between atoms: C_8  and  N_2 
REMARK    4  A    between atoms: C_12  and  C_8 
REMARK    5  A    between atoms: O_13  and  C_9 
ROOT
ATOM      1  S   UNL d   1     -41.442-122.611 -52.114  0.00  0.00     0.285 S 
ATOM      2  O   UNL d   1     -41.596-123.383 -52.361  0.00  0.00    -0.198 OA
ATOM      3  O   UNL d   1     -41.288-121.831 -51.864  0.00  0.00    -0.198 OA
ENDROOT
BRANCH   1   4
ATOM      4  N   UNL d   1     -41.405-122.367 -52.901  0.00  0.00    -0.157 NA
BRANCH   4   5
ATOM      5  C   UNL d   1     -41.843-122.760 -53.476  0.00  0.00     0.112 C 
BRANCH   5   6
ATOM      6  C   UNL d   1     -41.890-122.453 -54.240  0.00  0.00     0.020 A 
ATOM      7  C   UNL d   1     -42.508-121.951 -54.442  0.00  0.00     0.002 A 
ATOM      8  C   UNL d   1     -42.556-121.645 -55.207  0.00  0.00     0.000 A 
ATOM      9  C   UNL d   1     -41.986-121.842 -55.766  0.00  0.00     0.000 A 
ATOM     10  C   UNL d   1     -41.366-122.348 -55.553  0.00  0.00     0.000 A 
ATOM     11  C   UNL d   1     -41.319-122.655 -54.789  0.00  0.00     0.002 A 
ENDBRANCH   5   6
ENDBRANCH   4   5
ENDBRANCH   1   4
BRANCH   1  12
ATOM     12  C   UNL d   1     -41.480-122.856 -51.327  0.00  0.00     0.105 A 
ATOM     13  C   UNL d   1     -41.123-123.561 -51.096  0.00  0.00     0.015 A 
ATOM     14  C   UNL d   1     -41.160-123.807 -50.305  0.00  0.00     0.025 A 
ATOM     15  C   UNL d   1     -41.555-123.347 -49.749  0.00  0.00     0.094 A 
ATOM     16  C   UNL d   1     -41.917-122.635 -49.977  0.00  0.00     0.025 A 
ATOM     17  C   UNL d   1     -41.879-122.389 -50.768  0.00  0.00     0.015 A 
BRANCH  15  18
ATOM     18  O   UNL d   1     -41.592-123.591 -48.962  0.00  0.00    -0.328 OA
ATOM     19  C   UNL d   1     -42.326-123.624 -48.575  0.00  0.00     0.181 C 
ENDBRANCH  15  18
ENDBRANCH   1  12
TORSDOF 5
ENDMDL
MODEL 2
REMARK VINA RESULT:      -4.4      1.317      4.880
REMARK  5 active torsions:
REMARK  status: ('A' for Active; 'I' for Inactive)
REMARK    1  A    between atoms: N_2  and  S_1 
REMARK    2  A    between atoms: C_3  and  S_1 
REMARK    3  A    between atoms: C_8  and  N_2 
REMARK    4  A    between atoms: C_12  and  C_8 
REMARK    5  A    between atoms: O_13  and  C_9 
ROOT
ATOM      1  S   UNL d   1     -41.515-122.963 -50.650  0.00  0.00     0.285 S 
ATOM      2  O   UNL d   1     -41.904-122.236 -50.634  0.00  0.00    -0.198 OA
ATOM      3  O   UNL d   1     -41.123-123.699 -50.666  0.00  0.00    -0.198 OA
ENDROOT
BRANCH   1   4
ATOM      4  N   UNL d   1     -41.590-123.021 -49.830  0.00  0.00    -0.157 NA
BRANCH   4   5
ATOM      5  C   UNL d   1     -42.324-123.177 -49.493  0.00  0.00     0.112 C 
BRANCH   5   6
ATOM      6  C   UNL d   1     -42.384-123.327 -48.684  0.00  0.00     0.020 A 
ATOM      7  C   UNL d   1     -43.069-123.661 -48.380  0.00  0.00     0.002 A 
ATOM      8  C   UNL d   1     -43.129-123.810 -47.571  0.00  0.00     0.000 A 
ATOM      9  C   UNL d   1     -42.503-123.626 -47.070  0.00  0.00     0.000 A 
ATOM     10  C   UNL d   1     -41.816-123.289 -47.386  0.00  0.00     0.000 A 
ATOM     11  C   UNL d   1     -41.756-123.139 -48.195  0.00  0.00     0.002 A 
ENDBRANCH   5   6
ENDBRANCH   4   5
ENDBRANCH   1   4
BRANCH   1  12
ATOM     12  C   UNL d   1     -41.441-122.906 -51.470  0.00  0.00     0.105 A 
ATOM     13  C   UNL d   1     -41.303-123.580 -51.920  0.00  0.00     0.015 A 
ATOM     14  C   UNL d   1     -41.228-123.522 -52.744  0.00  0.00     0.025 A 
ATOM     15  C   UNL d   1     -41.292-122.790 -53.113  0.00  0.00     0.094 A 
ATOM     16  C   UNL d   1     -41.431-122.106 -52.663  0.00  0.00     0.025 A 
ATOM     17  C   UNL d   1     -41.506-122.164 -51.839  0.00  0.00     0.015 A 
BRANCH  15  18
ATOM     18  O   UNL d   1     -41.217-122.732 -53.932  0.00  0.00    -0.328 OA
ATOM     19  C   UNL d   1     -41.780-122.304 -54.369  0.00  0.00     0.181 C 
ENDBRANCH  15  18
ENDBRANCH   1  12
TORSDOF 5
ENDMDL
