MODEL 1
REMARK VINA RESULT:      -7.4      0.000      0.000
REMARK  3 active torsions:
REMARK  status: ('A' for Active; 'I' for Inactive)
REMARK       I    between atoms: C_2  and  N_1 
REMARK    1  A    between atoms: C_4  and  C_2 
REMARK    2  A    between atoms: C_6  and  C_4 
REMARK    3  A    between atoms: C_10  and  C_6 
ROOT
ATOM      1  N   UNL d   1     -48.818  13.781  22.214  0.00  0.00    -0.273 N 
ATOM      2  C   UNL d   1     -48.115  13.963  22.587  0.00  0.00     0.265 C 
ATOM      3  C   UNL d   1     -49.520  14.192  22.293  0.00  0.00     0.067 A 
ATOM      4  C   UNL d   1     -48.940  13.155  21.695  0.00  0.00     0.083 A 
ATOM      5  C   UNL d   1     -50.087  13.823  21.821  0.00  0.00     0.018 A 
ATOM      6  O   UNL d   1     -48.070  14.609  23.096  0.00  0.00    -0.267 OA
ATOM      7  C   UNL d   1     -49.732  13.182  21.450  0.00  0.00     0.021 A 
ATOM      8  C   UNL d   1     -49.725  14.861  22.736  0.00  0.00     0.018 A 
ATOM      9  C   UNL d   1     -50.859  14.120  21.791  0.00  0.00     0.002 A 
ATOM     10  C   UNL d   1     -50.494  15.154  22.702  0.00  0.00     0.002 A 
ATOM     11  C   UNL d   1     -51.064  14.786  22.230  0.00  0.00     0.000 A 
ENDROOT
BRANCH   2  12
ATOM     12  C   UNL d   1     -47.446  13.500  22.457  0.00  0.00     0.061 C 
BRANCH  12  13
ATOM     13  C   UNL d   1     -46.740  13.668  22.845  0.00  0.00     0.005 C 
BRANCH  13  14
ATOM     14  C   UNL d   1     -46.085  13.189  22.722  0.00  0.00     0.002 A 
ATOM     15  C   UNL d   1     -46.026  12.463  23.107  0.00  0.00     0.030 A 
ATOM     16  C   UNL d   1     -45.366  11.977  22.985  0.00  0.00     0.140 A 
ATOM     17  F   UNL d   1     -45.309  11.253  23.370  0.00  0.00    -0.204 F 
ATOM     18  C   UNL d   1     -44.763  12.223  22.474  0.00  0.00     0.030 A 
ATOM     19  C   UNL d   1     -44.824  12.953  22.088  0.00  0.00     0.002 A 
ATOM     20  C   UNL d   1     -45.482  13.436  22.211  0.00  0.00     0.000 A 
ENDBRANCH  13  14
ENDBRANCH  12  13
ENDBRANCH   2  12
TORSDOF 3
ENDMDL
MODEL 2
REMARK VINA RESULT:      -7.4      1.110      1.331
REMARK  3 active torsions:
REMARK  status: ('A' for Active; 'I' for Inactive)
REMARK       I    between atoms: C_2  and  N_1 
REMARK    1  A    between atoms: C_4  and  C_2 
REMARK    2  A    between atoms: C_6  and  C_4 
REMARK    3  A    between atoms: C_10  and  C_6 
ROOT
ATOM      1  N   UNL d   1     -49.017  14.202  23.105  0.00  0.00    -0.273 N 
ATOM      2  C   UNL d   1     -48.241  14.410  22.956  0.00  0.00     0.265 C 
ATOM      3  C   UNL d   1     -49.629  14.720  23.255  0.00  0.00     0.067 A 
ATOM      4  C   UNL d   1     -49.313  13.435  23.129  0.00  0.00     0.083 A 
ATOM      5  C   UNL d   1     -50.315  14.278  23.375  0.00  0.00     0.018 A 
ATOM      6  O   UNL d   1     -48.019  15.203  22.948  0.00  0.00    -0.267 OA
ATOM      7  C   UNL d   1     -50.123  13.483  23.298  0.00  0.00     0.021 A 
ATOM      8  C   UNL d   1     -49.659  15.547  23.301  0.00  0.00     0.018 A 
ATOM      9  C   UNL d   1     -51.031  14.659  23.540  0.00  0.00     0.002 A 
ATOM     10  C   UNL d   1     -50.373  15.922  23.465  0.00  0.00     0.002 A 
ATOM     11  C   UNL d   1     -51.063  15.481  23.586  0.00  0.00     0.000 A 
ENDROOT
BRANCH   2  12
ATOM     12  C   UNL d   1     -47.676  13.828  22.812  0.00  0.00     0.061 C 
BRANCH  12  13
ATOM     13  C   UNL d   1     -46.875  13.989  22.912  0.00  0.00     0.005 C 
BRANCH  13  14
ATOM     14  C   UNL d   1     -46.323  13.393  22.800  0.00  0.00     0.002 A 
ATOM     15  C   UNL d   1     -45.730  13.480  22.235  0.00  0.00     0.030 A 
ATOM     16  C   UNL d   1     -45.171  12.880  22.118  0.00  0.00     0.140 A 
ATOM     17  F   UNL d   1     -44.580  12.970  21.554  0.00  0.00    -0.204 F 
ATOM     18  C   UNL d   1     -45.209  12.189  22.572  0.00  0.00     0.030 A 
ATOM     19  C   UNL d   1     -45.806  12.103  23.140  0.00  0.00     0.002 A 
ATOM     20  C   UNL d   1     -46.362  12.701  23.254  0.00  0.00     0.000 A 
ENDBRANCH  13  14
ENDBRANCH  12  13
ENDBRANCH   2  12
TORSDOF 3
ENDMDL
MODEL 3
REMARK VINA RESULT:      -6.9      0.877      1.226
REMARK  3 active torsions:
REMARK  status: ('A' for Active; 'I' for Inactive)
REMARK       I    between atoms: C_2  and  N_1 
REMARK    1  A    between atoms: C_4  and  C_2 
REMARK    2  A    between atoms: C_6  and  C_4 
REMARK    3  A    between atoms: C_10  and  C_6 
ROOT
ATOM      1  N   UNL d   1     -49.130  13.070  22.558  0.00  0.00    -0.273 N 
ATOM      2  C   UNL d   1     -48.412  13.240  22.909  0.00  0.00     0.265 C 
ATOM      3  C   UNL d   1     -49.712  13.613  22.376  0.00  0.00     0.067 A 
ATOM      4  C   UNL d   1     -49.388  12.324  22.327  0.00  0.00     0.083 A 
ATOM      5  C   UNL d   1     -50.340  13.207  22.029  0.00  0.00     0.018 A 
ATOM      6  O   UNL d   1     -48.224  14.015  23.113  0.00  0.00    -0.267 OA
ATOM      7  C   UNL d   1     -50.144  12.410  21.997  0.00  0.00     0.021 A 
ATOM      8  C   UNL d   1     -49.759  14.433  22.480  0.00  0.00     0.018 A 
ATOM      9  C   UNL d   1     -51.016  13.618  21.785  0.00  0.00     0.002 A 
ATOM     10  C   UNL d   1     -50.433  14.838  22.236  0.00  0.00     0.002 A 
ATOM     11  C   UNL d   1     -51.064  14.434  21.887  0.00  0.00     0.000 A 
ENDROOT
BRANCH   2  12
ATOM     12  C   UNL d   1     -47.873  12.636  23.062  0.00  0.00     0.061 C 
BRANCH  12  13
ATOM     13  C   UNL d   1     -47.112  12.812  23.323  0.00  0.00     0.005 C 
BRANCH  13  14
ATOM     14  C   UNL d   1     -46.537  12.227  23.322  0.00  0.00     0.002 A 
ATOM     15  C   UNL d   1     -45.813  12.359  22.949  0.00  0.00     0.030 A 
ATOM     16  C   UNL d   1     -45.230  11.771  22.947  0.00  0.00     0.140 A 
ATOM     17  F   UNL d   1     -44.510  11.905  22.575  0.00  0.00    -0.204 F 
ATOM     18  C   UNL d   1     -45.375  11.047  23.321  0.00  0.00     0.030 A 
ATOM     19  C   UNL d   1     -46.103  10.916  23.695  0.00  0.00     0.002 A 
ATOM     20  C   UNL d   1     -46.682  11.503  23.697  0.00  0.00     0.000 A 
ENDBRANCH  13  14
ENDBRANCH  12  13
ENDBRANCH   2  12
TORSDOF 3
ENDMDL
MODEL 4
REMARK VINA RESULT:      -6.1      8.062     10.273
REMARK  3 active torsions:
REMARK  status: ('A' for Active; 'I' for Inactive)
REMARK       I    between atoms: C_2  and  N_1 
REMARK    1  A    between atoms: C_4  and  C_2 
REMARK    2  A    between atoms: C_6  and  C_4 
REMARK    3  A    between atoms: C_10  and  C_6 
ROOT
ATOM      1  N   UNL d   1     -39.094  14.467  17.504  0.00  0.00    -0.273 N 
ATOM      2  C   UNL d   1     -39.421  15.166  17.774  0.00  0.00     0.265 C 
ATOM      3  C   UNL d   1     -38.731  14.359  16.781  0.00  0.00     0.067 A 
ATOM      4  C   UNL d   1     -39.076  13.754  17.914  0.00  0.00     0.083 A 
ATOM      5  C   UNL d   1     -38.482  13.575  16.734  0.00  0.00     0.018 A 
ATOM      6  O   UNL d   1     -39.401  15.841  17.305  0.00  0.00    -0.267 OA
ATOM      7  C   UNL d   1     -38.693  13.197  17.433  0.00  0.00     0.021 A 
ATOM      8  C   UNL d   1     -38.589  14.875  16.148  0.00  0.00     0.018 A 
ATOM      9  C   UNL d   1     -38.092  13.302  16.057  0.00  0.00     0.002 A 
ATOM     10  C   UNL d   1     -38.201  14.600  15.476  0.00  0.00     0.002 A 
ATOM     11  C   UNL d   1     -37.950  13.814  15.426  0.00  0.00     0.000 A 
ENDROOT
BRANCH   2  12
ATOM     12  C   UNL d   1     -39.772  15.197  18.519  0.00  0.00     0.061 C 
BRANCH  12  13
ATOM     13  C   UNL d   1     -39.824  15.910  18.927  0.00  0.00     0.005 C 
BRANCH  13  14
ATOM     14  C   UNL d   1     -40.069  15.914  19.709  0.00  0.00     0.002 A 
ATOM     15  C   UNL d   1     -40.874  15.915  19.890  0.00  0.00     0.030 A 
ATOM     16  C   UNL d   1     -41.126  15.919  20.679  0.00  0.00     0.140 A 
ATOM     17  F   UNL d   1     -41.928  15.920  20.857  0.00  0.00    -0.204 F 
ATOM     18  C   UNL d   1     -40.566  15.922  21.289  0.00  0.00     0.030 A 
ATOM     19  C   UNL d   1     -39.758  15.921  21.106  0.00  0.00     0.002 A 
ATOM     20  C   UNL d   1     -39.509  15.917  20.320  0.00  0.00     0.000 A 
ENDBRANCH  13  14
ENDBRANCH  12  13
ENDBRANCH   2  12
TORSDOF 3
ENDMDL
MODEL 5
REMARK VINA RESULT:      -6.0      8.337      8.812
REMARK  3 active torsions:
REMARK  status: ('A' for Active; 'I' for Inactive)
REMARK       I    between atoms: C_2  and  N_1 
REMARK    1  A    between atoms: C_4  and  C_2 
REMARK    2  A    between atoms: C_6  and  C_4 
REMARK    3  A    between atoms: C_10  and  C_6 
ROOT
ATOM      1  N   UNL d   1     -40.105  14.831  18.897  0.00  0.00    -0.273 N 
ATOM      2  C   UNL d   1     -40.251  15.068  19.665  0.00  0.00     0.265 C 
ATOM      3  C   UNL d   1     -40.459  15.137  18.228  0.00  0.00     0.067 A 
ATOM      4  C   UNL d   1     -39.576  14.245  18.667  0.00  0.00     0.083 A 
ATOM      5  C   UNL d   1     -40.153  14.742  17.573  0.00  0.00     0.018 A 
ATOM      6  O   UNL d   1     -40.797  15.665  19.818  0.00  0.00    -0.267 OA
ATOM      7  C   UNL d   1     -39.606  14.189  17.840  0.00  0.00     0.021 A 
ATOM      8  C   UNL d   1     -41.028  15.730  18.123  0.00  0.00     0.018 A 
ATOM      9  C   UNL d   1     -40.412  14.937  16.811  0.00  0.00     0.002 A 
ATOM     10  C   UNL d   1     -41.284  15.921  17.364  0.00  0.00     0.002 A 
ATOM     11  C   UNL d   1     -40.978  15.526  16.705  0.00  0.00     0.000 A 
ENDROOT
BRANCH   2  12
ATOM     12  C   UNL d   1     -39.852  14.711  20.291  0.00  0.00     0.061 C 
BRANCH  12  13
ATOM     13  C   UNL d   1     -40.063  14.876  21.070  0.00  0.00     0.005 C 
BRANCH  13  14
ATOM     14  C   UNL d   1     -39.572  14.641  21.683  0.00  0.00     0.002 A 
ATOM     15  C   UNL d   1     -39.557  13.851  21.921  0.00  0.00     0.030 A 
ATOM     16  C   UNL d   1     -39.062  13.610  22.539  0.00  0.00     0.140 A 
ATOM     17  F   UNL d   1     -39.049  12.823  22.775  0.00  0.00    -0.204 F 
ATOM     18  C   UNL d   1     -38.580  14.164  22.920  0.00  0.00     0.030 A 
ATOM     19  C   UNL d   1     -38.596  14.957  22.680  0.00  0.00     0.002 A 
ATOM     20  C   UNL d   1     -39.089  15.195  22.064  0.00  0.00     0.000 A 
ENDBRANCH  13  14
ENDBRANCH  12  13
ENDBRANCH   2  12
TORSDOF 3
ENDMDL
MODEL 6
REMARK VINA RESULT:      -5.9      8.819      9.562
REMARK  3 active torsions:
REMARK  status: ('A' for Active; 'I' for Inactive)
REMARK       I    between atoms: C_2  and  N_1 
REMARK    1  A    between atoms: C_4  and  C_2 
REMARK    2  A    between atoms: C_6  and  C_4 
REMARK    3  A    between atoms: C_10  and  C_6 
ROOT
ATOM      1  N   UNL d   1     -39.549  14.988  20.627  0.00  0.00    -0.273 N 
ATOM      2  C   UNL d   1     -39.602  14.605  19.907  0.00  0.00     0.265 C 
ATOM      3  C   UNL d   1     -39.270  14.661  21.321  0.00  0.00     0.067 A 
ATOM      4  C   UNL d   1     -39.765  15.767  20.775  0.00  0.00     0.083 A 
ATOM      5  C   UNL d   1     -39.311  15.236  21.910  0.00  0.00     0.018 A 
ATOM      6  O   UNL d   1     -39.364  13.820  19.836  0.00  0.00    -0.267 OA
ATOM      7  C   UNL d   1     -39.617  15.922  21.577  0.00  0.00     0.021 A 
ATOM      8  C   UNL d   1     -38.979  13.906  21.502  0.00  0.00     0.018 A 
ATOM      9  C   UNL d   1     -39.063  15.061  22.680  0.00  0.00     0.002 A 
ATOM     10  C   UNL d   1     -38.734  13.736  22.269  0.00  0.00     0.002 A 
ATOM     11  C   UNL d   1     -38.774  14.311  22.862  0.00  0.00     0.000 A 
ENDROOT
BRANCH   2  12
ATOM     12  C   UNL d   1     -39.895  15.003  19.248  0.00  0.00     0.061 C 
BRANCH  12  13
ATOM     13  C   UNL d   1     -39.956  14.620  18.522  0.00  0.00     0.005 C 
BRANCH  13  14
ATOM     14  C   UNL d   1     -40.151  15.050  17.851  0.00  0.00     0.002 A 
ATOM     15  C   UNL d   1     -40.939  15.122  17.620  0.00  0.00     0.030 A 
ATOM     16  C   UNL d   1     -41.140  15.555  16.943  0.00  0.00     0.140 A 
ATOM     17  F   UNL d   1     -41.925  15.625  16.715  0.00  0.00    -0.204 F 
ATOM     18  C   UNL d   1     -40.545  15.918  16.497  0.00  0.00     0.030 A 
ATOM     19  C   UNL d   1     -39.753  15.845  16.730  0.00  0.00     0.002 A 
ATOM     20  C   UNL d   1     -39.555  15.413  17.404  0.00  0.00     0.000 A 
ENDBRANCH  13  14
ENDBRANCH  12  13
ENDBRANCH   2  12
TORSDOF 3
ENDMDL
MODEL 7
REMARK VINA RESULT:      -5.5      8.027     10.013
REMARK  3 active torsions:
REMARK  status: ('A' for Active; 'I' for Inactive)
REMARK       I    between atoms: C_2  and  N_1 
REMARK    1  A    between atoms: C_4  and  C_2 
REMARK    2  A    between atoms: C_6  and  C_4 
REMARK    3  A    between atoms: C_10  and  C_6 
ROOT
ATOM      1  N   UNL d   1     -39.515  15.254  19.311  0.00  0.00    -0.273 N 
ATOM      2  C   UNL d   1     -39.793  15.032  18.575  0.00  0.00     0.265 C 
ATOM      3  C   UNL d   1     -39.968  15.342  19.985  0.00  0.00     0.067 A 
ATOM      4  C   UNL d   1     -38.733  15.427  19.498  0.00  0.00     0.083 A 
ATOM      5  C   UNL d   1     -39.469  15.571  20.600  0.00  0.00     0.018 A 
ATOM      6  O   UNL d   1     -40.593  14.874  18.465  0.00  0.00    -0.267 OA
ATOM      7  C   UNL d   1     -38.705  15.625  20.303  0.00  0.00     0.021 A 
ATOM      8  C   UNL d   1     -40.778  15.243  20.127  0.00  0.00     0.018 A 
ATOM      9  C   UNL d   1     -39.777  15.703  21.357  0.00  0.00     0.002 A 
ATOM     10  C   UNL d   1     -41.081  15.375  20.881  0.00  0.00     0.002 A 
ATOM     11  C   UNL d   1     -40.583  15.605  21.500  0.00  0.00     0.000 A 
ENDROOT
BRANCH   2  12
ATOM     12  C   UNL d   1     -39.273  14.964  17.940  0.00  0.00     0.061 C 
BRANCH  12  13
ATOM     13  C   UNL d   1     -39.529  14.653  17.222  0.00  0.00     0.005 C 
BRANCH  13  14
ATOM     14  C   UNL d   1     -39.004  14.595  16.594  0.00  0.00     0.002 A 
ATOM     15  C   UNL d   1     -38.736  13.855  16.347  0.00  0.00     0.030 A 
ATOM     16  C   UNL d   1     -38.206  13.793  15.714  0.00  0.00     0.140 A 
ATOM     17  F   UNL d   1     -37.940  13.055  15.469  0.00  0.00    -0.204 F 
ATOM     18  C   UNL d   1     -37.945  14.477  15.327  0.00  0.00     0.030 A 
ATOM     19  C   UNL d   1     -38.216  15.219  15.576  0.00  0.00     0.002 A 
ATOM     20  C   UNL d   1     -38.744  15.279  16.207  0.00  0.00     0.000 A 
ENDBRANCH  13  14
ENDBRANCH  12  13
ENDBRANCH   2  12
TORSDOF 3
ENDMDL
MODEL 8
REMARK VINA RESULT:      -5.2      1.211      1.376
REMARK  3 active torsions:
REMARK  status: ('A' for Active; 'I' for Inactive)
REMARK       I    between atoms: C_2  and  N_1 
REMARK    1  A    between atoms: C_4  and  C_2 
REMARK    2  A    between atoms: C_6  and  C_4 
REMARK    3  A    between atoms: C_10  and  C_6 
ROOT
ATOM      1  N   UNL d   1     -48.724  13.179  23.182  0.00  0.00    -0.273 N 
ATOM      2  C   UNL d   1     -48.008  13.552  23.052  0.00  0.00     0.265 C 
ATOM      3  C   UNL d   1     -49.447  13.550  23.260  0.00  0.00     0.067 A 
ATOM      4  C   UNL d   1     -48.838  12.368  23.257  0.00  0.00     0.083 A 
ATOM      5  C   UNL d   1     -50.020  12.970  23.384  0.00  0.00     0.018 A 
ATOM      6  O   UNL d   1     -47.973  14.372  22.989  0.00  0.00    -0.267 OA
ATOM      7  C   UNL d   1     -49.647  12.238  23.383  0.00  0.00     0.021 A 
ATOM      8  C   UNL d   1     -49.668  14.348  23.235  0.00  0.00     0.018 A 
ATOM      9  C   UNL d   1     -50.813  13.185  23.483  0.00  0.00     0.002 A 
ATOM     10  C   UNL d   1     -50.458  14.557  23.334  0.00  0.00     0.002 A 
ATOM     11  C   UNL d   1     -51.034  13.978  23.458  0.00  0.00     0.000 A 
ENDROOT
BRANCH   2  12
ATOM     12  C   UNL d   1     -47.317  13.108  22.984  0.00  0.00     0.061 C 
BRANCH  12  13
ATOM     13  C   UNL d   1     -46.617  13.462  22.736  0.00  0.00     0.005 C 
BRANCH  13  14
ATOM     14  C   UNL d   1     -45.933  13.012  22.678  0.00  0.00     0.002 A 
ATOM     15  C   UNL d   1     -45.237  13.354  22.398  0.00  0.00     0.030 A 
ATOM     16  C   UNL d   1     -44.544  12.904  22.338  0.00  0.00     0.140 A 
ATOM     17  F   UNL d   1     -43.852  13.246  22.058  0.00  0.00    -0.204 F 
ATOM     18  C   UNL d   1     -44.552  12.106  22.560  0.00  0.00     0.030 A 
ATOM     19  C   UNL d   1     -45.252  11.765  22.842  0.00  0.00     0.002 A 
ATOM     20  C   UNL d   1     -45.941  12.215  22.901  0.00  0.00     0.000 A 
ENDBRANCH  13  14
ENDBRANCH  12  13
ENDBRANCH   2  12
TORSDOF 3
ENDMDL
MODEL 9
REMARK VINA RESULT:      -5.0      2.128      4.775
REMARK  3 active torsions:
REMARK  status: ('A' for Active; 'I' for Inactive)
REMARK       I    between atoms: C_2  and  N_1 
REMARK    1  A    between atoms: C_4  and  C_2 
REMARK    2  A    between atoms: C_6  and  C_4 
REMARK    3  A    between atoms: C_10  and  C_6 
ROOT
ATOM      1  N   UNL d   1     -45.995  12.456  22.769  0.00  0.00    -0.273 N 
ATOM      2  C   UNL d   1     -46.516  12.076  23.270  0.00  0.00     0.265 C 
ATOM      3  C   UNL d   1     -45.217  12.243  22.639  0.00  0.00     0.067 A 
ATOM      4  C   UNL d   1     -46.163  13.118  22.311  0.00  0.00     0.083 A 
ATOM      5  C   UNL d   1     -44.894  12.772  22.096  0.00  0.00     0.018 A 
ATOM      6  O   UNL d   1     -46.274  11.416  23.698  0.00  0.00    -0.267 OA
ATOM      7  C   UNL d   1     -45.476  13.315  21.890  0.00  0.00     0.021 A 
ATOM      8  C   UNL d   1     -44.751  11.630  22.944  0.00  0.00     0.018 A 
ATOM      9  C   UNL d   1     -44.106  12.692  21.857  0.00  0.00     0.002 A 
ATOM     10  C   UNL d   1     -43.968  11.553  22.704  0.00  0.00     0.002 A 
ATOM     11  C   UNL d   1     -43.641  12.083  22.159  0.00  0.00     0.000 A 
ENDROOT
BRANCH   2  12
ATOM     12  C   UNL d   1     -47.289  12.352  23.349  0.00  0.00     0.061 C 
BRANCH  12  13
ATOM     13  C   UNL d   1     -47.873  11.870  23.672  0.00  0.00     0.005 C 
BRANCH  13  14
ATOM     14  C   UNL d   1     -48.663  12.076  23.587  0.00  0.00     0.002 A 
ATOM     15  C   UNL d   1     -49.251  11.506  23.684  0.00  0.00     0.030 A 
ATOM     16  C   UNL d   1     -50.049  11.710  23.600  0.00  0.00     0.140 A 
ATOM     17  F   UNL d   1     -50.634  11.142  23.697  0.00  0.00    -0.204 F 
ATOM     18  C   UNL d   1     -50.257  12.491  23.417  0.00  0.00     0.030 A 
ATOM     19  C   UNL d   1     -49.664  13.062  23.320  0.00  0.00     0.002 A 
ATOM     20  C   UNL d   1     -48.870  12.856  23.405  0.00  0.00     0.000 A 
ENDBRANCH  13  14
ENDBRANCH  12  13
ENDBRANCH   2  12
TORSDOF 3
ENDMDL
