MODEL 1
REMARK VINA RESULT:       8.9      0.000      0.000
REMARK  4 active torsions:
REMARK  status: ('A' for Active; 'I' for Inactive)
REMARK    1  A    between atoms: N_8  and  C_2 
REMARK    2  A    between atoms: C_9  and  C_3 
REMARK       I    between atoms: C_6  and  N_7 
REMARK    3  A    between atoms: C_11  and  C_6 
REMARK    4  A    between atoms: N_7  and  N_8 
ROOT
ATOM      1  N   UNL d   1      46.047 -16.000  44.140  0.00  0.00    -0.221 NA
ATOM      2  C   UNL d   1      45.804 -16.757  44.312  0.00  0.00     0.186 A 
ATOM      3  C   UNL d   1      45.557 -15.495  44.539  0.00  0.00     0.090 A 
ATOM      4  S   UNL d   1      45.168 -16.719  44.813  0.00  0.00    -0.047 SA
ATOM      5  C   UNL d   1      45.015 -15.934  44.954  0.00  0.00     0.058 A 
ENDROOT
BRANCH   2   6
ATOM      6  N   UNL d   1      46.150 -17.466  44.021  0.00  0.00    -0.275 N 
ATOM      7  H   UNL d   1      46.331 -17.524  43.220  0.00  0.00     0.189 HD
BRANCH   6   8
ATOM      8  N   UNL d   1      46.305 -18.091  44.538  0.00  0.00    -0.264 N 
ATOM      9  C   UNL d   1      46.486 -18.834  44.222  0.00  0.00     0.271 C 
ATOM     10  O   UNL d   1      46.640 -19.459  44.741  0.00  0.00    -0.266 OA
ATOM     11  H   UNL d   1      46.275 -17.959  45.345  0.00  0.00     0.190 HD
BRANCH   9  12
ATOM     12  C   UNL d   1      46.513 -18.954  43.418  0.00  0.00     0.057 A 
ATOM     13  C   UNL d   1      46.423 -19.732  43.147  0.00  0.00     0.005 A 
ATOM     14  C   UNL d   1      46.446 -19.887  42.334  0.00  0.00     0.000 A 
ATOM     15  C   UNL d   1      46.557 -19.281  41.791  0.00  0.00     0.000 A 
ATOM     16  C   UNL d   1      46.647 -18.492  42.076  0.00  0.00     0.000 A 
ATOM     17  C   UNL d   1      46.624 -18.337  42.883  0.00  0.00     0.005 A 
ENDBRANCH   9  12
ENDBRANCH   6   8
ENDBRANCH   2   6
BRANCH   3  18
ATOM     18  C   UNL d   1      45.604 -14.673  44.524  0.00  0.00     0.018 A 
ATOM     19  C   UNL d   1      45.047 -14.242  44.092  0.00  0.00     0.002 A 
ATOM     20  C   UNL d   1      45.088 -13.420  44.072  0.00  0.00     0.000 A 
ATOM     21  C   UNL d   1      45.693 -13.028  44.488  0.00  0.00     0.000 A 
ATOM     22  C   UNL d   1      46.250 -13.459  44.919  0.00  0.00     0.000 A 
ATOM     23  C   UNL d   1      45.744 -12.205  44.474  0.00  0.00     0.000 C 
ATOM     24  C   UNL d   1      46.204 -14.287  44.937  0.00  0.00     0.002 A 
ENDBRANCH   3  18
TORSDOF 4
ENDMDL
