MODEL 1
REMARK VINA RESULT:      13.2      0.000      0.000
REMARK  5 active torsions:
REMARK  status: ('A' for Active; 'I' for Inactive)
REMARK       I    between atoms: N_2  and  C_1 
REMARK       I    between atoms: N_4  and  C_1 
REMARK    1  A    between atoms: C_8  and  N_2 
REMARK    2  A    between atoms: C_3  and  C_5 
REMARK    3  A    between atoms: O_11  and  C_3 
REMARK    4  A    between atoms: C_14  and  N_4 
REMARK    5  A    between atoms: C_15  and  N_4 
ROOT
ATOM      1  C   UNL d   1      46.348 -18.544  43.799  0.00  0.00     0.063 A 
ATOM      2  C   UNL d   1      46.252 -16.966  44.270  0.00  0.00     0.086 A 
ATOM      3  C   UNL d   1      46.389 -18.348  44.601  0.00  0.00     0.007 A 
ATOM      4  C   UNL d   1      46.260 -17.958  43.236  0.00  0.00     0.007 A 
ATOM      5  C   UNL d   1      46.341 -17.553  44.833  0.00  0.00     0.019 A 
ATOM      6  C   UNL d   1      46.211 -17.168  43.469  0.00  0.00     0.019 A 
ENDROOT
BRANCH   2   7
ATOM      7  N   UNL d   1      46.204 -16.180  44.500  0.00  0.00    -0.192 NA
ATOM      8  C   UNL d   1      45.483 -15.782  44.428  0.00  0.00     0.354 C 
ATOM      9  N   UNL d   1      45.425 -14.998  44.654  0.00  0.00    -0.256 N 
ATOM     10  O   UNL d   1      44.817 -16.174  44.127  0.00  0.00    -0.244 OA
BRANCH   9  11
ATOM     11  C   UNL d   1      46.092 -14.611  44.955  0.00  0.00     0.085 C 
ATOM     12  C   UNL d   1      46.148 -13.787  44.909  0.00  0.00     0.021 C 
ENDBRANCH   9  11
BRANCH   9  13
ATOM     13  C   UNL d   1      44.702 -14.604  44.581  0.00  0.00     0.085 C 
ATOM     14  C   UNL d   1      44.696 -13.792  44.428  0.00  0.00     0.021 C 
ENDBRANCH   9  13
ENDBRANCH   2   7
BRANCH   1  15
ATOM     15  C   UNL d   1      46.395 -19.325  43.563  0.00  0.00     0.296 C 
ATOM     16  O   UNL d   1      46.258 -19.929  44.099  0.00  0.00    -0.259 OA
BRANCH  15  17
ATOM     17  O   UNL d   1      46.582 -19.505  42.778  0.00  0.00    -0.296 OA
ATOM     18  C   UNL d   1      46.565 -20.285  42.529  0.00  0.00     0.185 C 
ENDBRANCH  15  17
ENDBRANCH   1  15
TORSDOF 5
ENDMDL
MODEL 2
REMARK VINA RESULT:      15.0      1.468      2.246
REMARK  5 active torsions:
REMARK  status: ('A' for Active; 'I' for Inactive)
REMARK       I    between atoms: N_2  and  C_1 
REMARK       I    between atoms: N_4  and  C_1 
REMARK    1  A    between atoms: C_8  and  N_2 
REMARK    2  A    between atoms: C_3  and  C_5 
REMARK    3  A    between atoms: O_11  and  C_3 
REMARK    4  A    between atoms: C_14  and  N_4 
REMARK    5  A    between atoms: C_15  and  N_4 
ROOT
ATOM      1  C   UNL d   1      45.933 -16.537  44.349  0.00  0.00     0.063 A 
ATOM      2  C   UNL d   1      45.854 -14.900  44.534  0.00  0.00     0.086 A 
ATOM      3  C   UNL d   1      46.484 -16.051  43.971  0.00  0.00     0.007 A 
ATOM      4  C   UNL d   1      45.346 -16.209  44.815  0.00  0.00     0.007 A 
ATOM      5  C   UNL d   1      46.441 -15.227  44.067  0.00  0.00     0.019 A 
ATOM      6  C   UNL d   1      45.305 -15.391  44.909  0.00  0.00     0.019 A 
ENDROOT
BRANCH   2   7
ATOM      7  N   UNL d   1      45.811 -14.086  44.628  0.00  0.00    -0.192 NA
ATOM      8  C   UNL d   1      45.626 -13.612  43.976  0.00  0.00     0.354 C 
ATOM      9  N   UNL d   1      45.581 -12.800  44.060  0.00  0.00    -0.256 N 
ATOM     10  O   UNL d   1      45.486 -13.959  43.235  0.00  0.00    -0.244 OA
BRANCH   9  11
ATOM     11  C   UNL d   1      45.722 -12.460  44.801  0.00  0.00     0.085 C 
ATOM     12  C   UNL d   1      46.442 -12.084  44.953  0.00  0.00     0.021 C 
ENDBRANCH   9  11
BRANCH   9  13
ATOM     13  C   UNL d   1      45.395 -12.331  43.405  0.00  0.00     0.085 C 
ATOM     14  C   UNL d   1      44.610 -12.275  43.155  0.00  0.00     0.021 C 
ENDBRANCH   9  13
ENDBRANCH   2   7
BRANCH   1  15
ATOM     15  C   UNL d   1      45.969 -17.349  44.259  0.00  0.00     0.296 C 
ATOM     16  O   UNL d   1      45.926 -17.841  44.912  0.00  0.00    -0.259 OA
BRANCH  15  17
ATOM     17  O   UNL d   1      46.051 -17.673  43.503  0.00  0.00    -0.296 OA
ATOM     18  C   UNL d   1      46.314 -18.444  43.423  0.00  0.00     0.185 C 
ENDBRANCH  15  17
ENDBRANCH   1  15
TORSDOF 5
ENDMDL
