MODEL 1
REMARK VINA RESULT:      -3.0      0.000      0.000
REMARK  3 active torsions:
REMARK  status: ('A' for Active; 'I' for Inactive)
REMARK    1  A    between atoms: C_12  and  C_3 
REMARK       I    between atoms: C_6  and  N_9 
REMARK    2  A    between atoms: C_7  and  C_6 
REMARK    3  A    between atoms: N_9  and  C_22 
ROOT
ATOM      1  C   UNL d   1      32.832  18.837 -23.026  0.00  0.00     0.019 A 
ATOM      2  C   UNL d   1      32.729  19.580 -23.372  0.00  0.00     0.003 A 
ATOM      3  C   UNL d   1      33.047  18.779 -22.230  0.00  0.00     0.003 A 
ATOM      4  C   UNL d   1      33.054  20.204 -22.128  0.00  0.00     0.085 A 
ATOM      5  C   UNL d   1      33.157  19.462 -21.782  0.00  0.00     0.019 A 
ATOM      6  C   UNL d   1      32.840  20.263 -22.923  0.00  0.00     0.019 A 
ENDROOT
BRANCH   4   7
ATOM      7  N   UNL d   1      33.164  20.884 -21.682  0.00  0.00    -0.208 NA
ATOM      8  C   UNL d   1      32.636  21.078 -21.089  0.00  0.00     0.279 C 
ATOM      9  O   UNL d   1      31.983  20.585 -20.934  0.00  0.00    -0.265 OA
BRANCH   8  10
ATOM     10  C   UNL d   1      32.747  21.761 -20.640  0.00  0.00     0.060 A 
ATOM     11  C   UNL d   1      32.911  21.706 -19.837  0.00  0.00     0.031 A 
ATOM     12  C   UNL d   1      33.021  22.389 -19.388  0.00  0.00     0.119 A 
ATOM     13  O   UNL d   1      33.189  22.499 -18.585  0.00  0.00    -0.300 OA
ATOM     14  C   UNL d   1      32.969  23.128 -19.743  0.00  0.00     0.119 A 
ATOM     15  C   UNL d   1      33.241  23.309 -18.442  0.00  0.00     0.304 A 
ATOM     16  O   UNL d   1      33.104  23.702 -19.160  0.00  0.00    -0.300 OA
ATOM     17  C   UNL d   1      32.805  23.187 -20.550  0.00  0.00     0.026 A 
ATOM     18  C   UNL d   1      32.694  22.504 -20.999  0.00  0.00     0.007 A 
ENDBRANCH   8  10
ENDBRANCH   4   7
BRANCH   1  19
ATOM     19  C   UNL d   1      32.722  18.154 -23.474  0.00  0.00     0.101 A 
ATOM     20  N   UNL d   1      33.235  17.802 -24.000  0.00  0.00    -0.221 NA
ATOM     21  C   UNL d   1      32.862  17.124 -24.309  0.00  0.00     0.179 A 
ATOM     22  N   UNL d   1      32.129  17.060 -23.978  0.00  0.00    -0.282 N 
ATOM     23  S   UNL d   1      32.970  16.497 -24.829  0.00  0.00    -0.048 SA
ATOM     24  C   UNL d   1      32.031  17.696 -23.457  0.00  0.00     0.101 A 
ATOM     25  C   UNL d   1      31.774  16.388 -24.292  0.00  0.00     0.089 A 
ATOM     26  C   UNL d   1      32.281  16.046 -24.807  0.00  0.00     0.057 A 
ENDBRANCH   1  19
TORSDOF 3
ENDMDL
