MODEL 1
REMARK VINA RESULT:      17.7      0.000      0.000
REMARK  2 active torsions:
REMARK  status: ('A' for Active; 'I' for Inactive)
REMARK    1  A    between atoms: C_4  and  C_1 
REMARK    2  A    between atoms: C_8  and  C_4 
ROOT
ATOM      1  C   UNL d   1      58.732  49.661  50.253  0.00  0.00     0.139 A 
ATOM      2  O   UNL d   1      58.276  49.619  50.945  0.00  0.00    -0.304 OA
ATOM      3  C   UNL d   1      58.244  49.694  49.610  0.00  0.00     0.030 A 
ATOM      4  C   UNL d   1      57.482  49.627  50.705  0.00  0.00     0.100 A 
ATOM      5  C   UNL d   1      57.462  49.673  49.883  0.00  0.00     0.025 A 
ATOM      6  C   UNL d   1      56.776  49.597  51.143  0.00  0.00     0.025 A 
ATOM      7  C   UNL d   1      56.737  49.690  49.478  0.00  0.00     0.002 A 
ATOM      8  C   UNL d   1      56.058  49.614  50.738  0.00  0.00     0.002 A 
ATOM      9  C   UNL d   1      56.038  49.660  49.917  0.00  0.00     0.000 A 
ENDROOT
BRANCH   1  10
ATOM     10  C   UNL d   1      59.573  49.669  50.233  0.00  0.00     0.218 C 
ATOM     11  O   UNL d   1      59.979  49.701  49.508  0.00  0.00    -0.284 OA
BRANCH  10  12
ATOM     12  C   UNL d   1      60.013  49.645  50.932  0.00  0.00     0.041 A 
ATOM     13  C   UNL d   1      60.835  49.563  50.878  0.00  0.00     0.003 A 
ATOM     14  C   UNL d   1      61.281  49.538  51.579  0.00  0.00     0.000 A 
ATOM     15  C   UNL d   1      60.912  49.594  52.312  0.00  0.00     0.000 A 
ATOM     16  C   UNL d   1      60.089  49.675  52.358  0.00  0.00     0.000 A 
ATOM     17  C   UNL d   1      59.644  49.700  51.664  0.00  0.00     0.003 A 
ENDBRANCH  10  12
ENDBRANCH   1  10
TORSDOF 2
ENDMDL
