MODEL 1
REMARK VINA RESULT:      -4.5      0.000      0.000
REMARK  7 active torsions:
REMARK  status: ('A' for Active; 'I' for Inactive)
REMARK    1  A    between atoms: C_5  and  N_1 
REMARK    2  A    between atoms: C_3  and  N_2 
REMARK    3  A    between atoms: N_4  and  C_11 
REMARK    4  A    between atoms: C_11  and  C_17 
REMARK    5  A    between atoms: O_16  and  C_18 
REMARK    6  A    between atoms: C_20  and  O_16 
REMARK    7  A    between atoms: C_17  and  C_20 
ROOT
ATOM      1  C   UNL d   1     -41.275-122.449 -51.118  0.00  0.00     0.125 C 
ENDROOT
BRANCH   1   2
ATOM      2  N   UNL d   1     -41.546-122.653 -50.399  0.00  0.00    -0.297 N 
ATOM      3  C   UNL d   1     -42.224-122.325 -50.075  0.00  0.00     0.100 A 
ATOM      4  C   UNL d   1     -42.498-122.532 -49.349  0.00  0.00     0.100 A 
ATOM      5  N   UNL d   1     -42.080-123.106 -48.895  0.00  0.00    -0.299 N 
ATOM      6  C   UNL d   1     -41.401-123.442 -49.207  0.00  0.00     0.100 A 
ATOM      7  C   UNL d   1     -41.123-123.232 -49.944  0.00  0.00     0.100 A 
BRANCH   5   8
ATOM      8  C   UNL d   1     -42.362-123.318 -48.149  0.00  0.00     0.092 A 
ATOM      9  C   UNL d   1     -43.138-123.606 -48.081  0.00  0.00     0.156 A 
ATOM     10  F   UNL d   1     -43.626-123.683 -48.744  0.00  0.00    -0.203 F 
ATOM     11  C   UNL d   1     -43.418-123.817 -47.338  0.00  0.00     0.031 A 
ATOM     12  C   UNL d   1     -42.953-123.749 -46.676  0.00  0.00     0.002 A 
ATOM     13  C   UNL d   1     -42.168-123.458 -46.741  0.00  0.00     0.002 A 
ATOM     14  C   UNL d   1     -41.887-123.246 -47.487  0.00  0.00     0.020 A 
ENDBRANCH   5   8
ENDBRANCH   1   2
BRANCH   1  15
ATOM     15  C   UNL d   1     -41.574-122.829 -51.798  0.00  0.00     0.238 C 
ATOM     16  O   UNL d   1     -41.893-123.707 -51.699  0.00  0.00    -0.283 OA
BRANCH  15  17
ATOM     17  C   UNL d   1     -41.581-122.435 -52.512  0.00  0.00     0.166 C 
BRANCH  17  18
ATOM     18  O   UNL d   1     -41.366-122.845 -53.208  0.00  0.00    -0.302 OA
BRANCH  18  19
ATOM     19  C   UNL d   1     -41.640-122.585 -53.933  0.00  0.00     0.100 A 
ATOM     20  C   UNL d   1     -41.955-121.828 -54.023  0.00  0.00     0.026 A 
ATOM     21  C   UNL d   1     -42.234-121.560 -54.756  0.00  0.00     0.026 A 
ATOM     22  C   UNL d   1     -42.195-122.073 -55.427  0.00  0.00     0.127 A 
ATOM     23  C   UNL d   1     -41.879-122.830 -55.336  0.00  0.00     0.026 A 
ATOM     24  C   UNL d   1     -41.599-123.091 -54.587  0.00  0.00     0.026 A 
BRANCH  22  25
ATOM     25  N   UNL d   1     -42.466-121.828 -56.167  0.00  0.00    -0.114 N 
ATOM     26  O   UNL d   1     -43.209-122.007 -56.481  0.00  0.00    -0.532 OA
ATOM     27  O   UNL d   1     -42.030-121.370 -56.690  0.00  0.00    -0.532 OA
ENDBRANCH  22  25
ENDBRANCH  18  19
ENDBRANCH  17  18
ENDBRANCH  15  17
ENDBRANCH   1  15
TORSDOF 7
ENDMDL
