MODEL 1
REMARK VINA RESULT:      44.0      0.000      0.000
REMARK  5 active torsions:
REMARK  status: ('A' for Active; 'I' for Inactive)
REMARK    1  A    between atoms: C_9  and  C_3 
REMARK    2  A    between atoms: C_8  and  C_4 
REMARK    3  A    between atoms: C_11  and  C_8 
REMARK    4  A    between atoms: O_16  and  C_9 
REMARK    5  A    between atoms: C_18  and  C_11 
ROOT
ATOM      1  N   UNL d   1      14.384  12.934  -1.489  0.00  0.00    -0.254 N 
ATOM      2  C   UNL d   1      14.045  12.194  -1.355  0.00  0.00     0.182 A 
ATOM      3  C   UNL d   1      13.888  12.917  -2.825  0.00  0.00     0.097 A 
ATOM      4  C   UNL d   1      14.308  13.300  -2.223  0.00  0.00     0.075 A 
ATOM      5  N   UNL d   1      13.629  11.819  -1.957  0.00  0.00    -0.222 NA
ATOM      6  C   UNL d   1      13.548  12.177  -2.694  0.00  0.00     0.090 A 
ATOM      7  C   UNL d   1      14.801  13.309  -0.886  0.00  0.00     0.267 A 
ATOM      8  S   UNL d   1      14.121  11.829  -0.624  0.00  0.00    -0.049 SA
ATOM      9  C   UNL d   1      14.877  12.944  -0.152  0.00  0.00     0.068 A 
ATOM     10  O   UNL d   1      15.141  14.050  -1.017  0.00  0.00    -0.267 OA
ATOM     11  C   UNL d   1      14.537  12.204  -0.021  0.00  0.00     0.043 A 
ATOM     12  C   UNL d   1      13.131  11.798  -3.292  0.00  0.00     0.021 C 
ENDROOT
BRANCH   4  13
ATOM     13  C   UNL d   1      14.648  14.040  -2.354  0.00  0.00     0.018 C 
BRANCH  13  14
ATOM     14  C   UNL d   1      14.185  14.718  -2.265  0.00  0.00     0.002 C 
BRANCH  14  15
ATOM     15  C   UNL d   1      14.549  15.458  -2.229  0.00  0.00     0.000 A 
ATOM     16  C   UNL d   1      14.465  15.989  -2.850  0.00  0.00     0.000 A 
ATOM     17  C   UNL d   1      14.831  16.727  -2.810  0.00  0.00     0.000 A 
ATOM     18  C   UNL d   1      15.279  16.931  -2.149  0.00  0.00     0.000 A 
ATOM     19  C   UNL d   1      15.360  16.396  -1.529  0.00  0.00     0.000 A 
ATOM     20  C   UNL d   1      14.994  15.657  -1.569  0.00  0.00     0.000 A 
ENDBRANCH  14  15
ENDBRANCH  13  14
ENDBRANCH   4  13
BRANCH   3  21
ATOM     21  C   UNL d   1      13.810  13.278  -3.558  0.00  0.00     0.299 C 
ATOM     22  O   UNL d   1      14.478  13.478  -3.998  0.00  0.00    -0.259 OA
BRANCH  21  23
ATOM     23  O   UNL d   1      13.062  13.444  -3.860  0.00  0.00    -0.296 OA
ATOM     24  C   UNL d   1      12.972  13.935  -4.517  0.00  0.00     0.185 C 
ENDBRANCH  21  23
ENDBRANCH   3  21
TORSDOF 5
ENDMDL
MODEL 2
REMARK VINA RESULT:      47.0      1.572      3.256
REMARK  5 active torsions:
REMARK  status: ('A' for Active; 'I' for Inactive)
REMARK    1  A    between atoms: C_9  and  C_3 
REMARK    2  A    between atoms: C_8  and  C_4 
REMARK    3  A    between atoms: C_11  and  C_8 
REMARK    4  A    between atoms: O_16  and  C_9 
REMARK    5  A    between atoms: C_18  and  C_11 
ROOT
ATOM      1  N   UNL d   1      14.103  14.628  -3.091  0.00  0.00    -0.254 N 
ATOM      2  C   UNL d   1      14.068  15.021  -3.815  0.00  0.00     0.182 A 
ATOM      3  C   UNL d   1      13.561  13.459  -3.700  0.00  0.00     0.097 A 
ATOM      4  C   UNL d   1      13.851  13.847  -3.028  0.00  0.00     0.075 A 
ATOM      5  N   UNL d   1      13.779  14.630  -4.479  0.00  0.00    -0.222 NA
ATOM      6  C   UNL d   1      13.525  13.849  -4.426  0.00  0.00     0.090 A 
ATOM      7  C   UNL d   1      14.392  15.020  -2.426  0.00  0.00     0.267 A 
ATOM      8  S   UNL d   1      14.319  15.799  -3.878  0.00  0.00    -0.049 SA
ATOM      9  C   UNL d   1      14.644  15.801  -2.489  0.00  0.00     0.068 A 
ATOM     10  O   UNL d   1      14.429  14.630  -1.700  0.00  0.00    -0.267 OA
ATOM     11  C   UNL d   1      14.608  16.191  -3.215  0.00  0.00     0.043 A 
ATOM     12  C   UNL d   1      13.237  13.463  -5.092  0.00  0.00     0.021 C 
ENDROOT
BRANCH   4  13
ATOM     13  C   UNL d   1      13.888  13.457  -2.302  0.00  0.00     0.018 C 
BRANCH  13  14
ATOM     14  C   UNL d   1      14.626  13.271  -1.980  0.00  0.00     0.002 C 
BRANCH  14  15
ATOM     15  C   UNL d   1      14.670  12.773  -1.323  0.00  0.00     0.000 A 
ATOM     16  C   UNL d   1      15.364  12.728  -0.887  0.00  0.00     0.000 A 
ATOM     17  C   UNL d   1      15.404  12.230  -0.231  0.00  0.00     0.000 A 
ATOM     18  C   UNL d   1      14.749  11.779  -0.014  0.00  0.00     0.000 A 
ATOM     19  C   UNL d   1      14.055  11.828  -0.454  0.00  0.00     0.000 A 
ATOM     20  C   UNL d   1      14.015  12.326  -1.110  0.00  0.00     0.000 A 
ENDBRANCH  14  15
ENDBRANCH  13  14
ENDBRANCH   4  13
BRANCH   3  21
ATOM     21  C   UNL d   1      13.309  12.681  -3.641  0.00  0.00     0.299 C 
ATOM     22  O   UNL d   1      12.792  12.453  -3.040  0.00  0.00    -0.259 OA
BRANCH  21  23
ATOM     23  O   UNL d   1      13.571  12.119  -4.184  0.00  0.00    -0.296 OA
ATOM     24  C   UNL d   1      13.048  11.780  -4.725  0.00  0.00     0.185 C 
ENDBRANCH  21  23
ENDBRANCH   3  21
TORSDOF 5
ENDMDL
