MODEL 1
REMARK VINA RESULT:      49.6      0.000      0.000
REMARK  3 active torsions:
REMARK  status: ('A' for Active; 'I' for Inactive)
REMARK    1  A    between atoms: N_6  and  S_1 
REMARK    2  A    between atoms: C_7  and  S_1 
REMARK    3  A    between atoms: C_10  and  N_6 
ROOT
ATOM      1  S   UNL d   1      13.872  13.584  -3.061  0.00  0.00     0.327 S 
ATOM      2  O   UNL d   1      13.731  12.775  -3.054  0.00  0.00    -0.186 OA
ATOM      3  O   UNL d   1      14.184  13.953  -2.394  0.00  0.00    -0.186 OA
ENDROOT
BRANCH   1   4
ATOM      4  N   UNL d   1      14.039  13.137  -2.393  0.00  0.00    -0.317 NA
BRANCH   4   5
ATOM      5  C   UNL d   1      14.211  12.679  -1.710  0.00  0.00     0.145 A 
ATOM      6  C   UNL d   1      13.592  12.457  -1.202  0.00  0.00     0.033 A 
ATOM      7  C   UNL d   1      13.763  12.005  -0.529  0.00  0.00     0.003 A 
ATOM      8  C   UNL d   1      13.158  11.779  -0.019  0.00  0.00     0.000 C 
ATOM      9  C   UNL d   1      14.544  11.781  -0.370  0.00  0.00     0.000 A 
ATOM     10  C   UNL d   1      15.150  12.006  -0.880  0.00  0.00     0.003 A 
ATOM     11  C   UNL d   1      14.980  12.456  -1.551  0.00  0.00     0.033 A 
ATOM     12  C   UNL d   1      15.924  11.785  -0.726  0.00  0.00     0.000 C 
ENDBRANCH   4   5
ENDBRANCH   1   4
BRANCH   1  13
ATOM     13  C   UNL d   1      13.703  14.023  -3.732  0.00  0.00     0.118 A 
ATOM     14  C   UNL d   1      14.072  14.747  -3.853  0.00  0.00     0.035 A 
ATOM     15  C   UNL d   1      13.904  15.194  -4.530  0.00  0.00     0.105 A 
ATOM     16  N   UNL d   1      14.180  15.923  -4.798  0.00  0.00    -0.189 NA
ATOM     17  C   UNL d   1      13.358  14.907  -5.088  0.00  0.00     0.104 A 
ATOM     18  C   UNL d   1      13.807  16.093  -5.523  0.00  0.00     0.369 A 
ATOM     19  O   UNL d   1      13.923  16.767  -5.982  0.00  0.00    -0.242 OA
ATOM     20  N   UNL d   1      13.302  15.462  -5.696  0.00  0.00    -0.189 NA
ATOM     21  C   UNL d   1      12.987  14.177  -4.963  0.00  0.00     0.022 A 
ATOM     22  C   UNL d   1      13.162  13.740  -4.285  0.00  0.00     0.016 A 
ENDBRANCH   1  13
TORSDOF 3
ENDMDL
MODEL 2
REMARK VINA RESULT:      52.3      2.403      3.548
REMARK  3 active torsions:
REMARK  status: ('A' for Active; 'I' for Inactive)
REMARK    1  A    between atoms: N_6  and  S_1 
REMARK    2  A    between atoms: C_7  and  S_1 
REMARK    3  A    between atoms: C_10  and  N_6 
ROOT
ATOM      1  S   UNL d   1      14.202  14.295  -2.744  0.00  0.00     0.327 S 
ATOM      2  O   UNL d   1      14.581  14.898  -3.151  0.00  0.00    -0.186 OA
ATOM      3  O   UNL d   1      14.110  14.343  -1.927  0.00  0.00    -0.186 OA
ENDROOT
BRANCH   1   4
ATOM      4  N   UNL d   1      14.492  14.950  -2.344  0.00  0.00    -0.317 NA
BRANCH   4   5
ATOM      5  C   UNL d   1      14.788  15.621  -1.934  0.00  0.00     0.145 A 
ATOM      6  C   UNL d   1      15.117  15.524  -1.177  0.00  0.00     0.033 A 
ATOM      7  C   UNL d   1      15.408  16.187  -0.775  0.00  0.00     0.003 A 
ATOM      8  C   UNL d   1      15.736  16.103  -0.025  0.00  0.00     0.000 C 
ATOM      9  C   UNL d   1      15.370  16.935  -1.129  0.00  0.00     0.000 A 
ATOM     10  C   UNL d   1      15.042  17.019  -1.880  0.00  0.00     0.003 A 
ATOM     11  C   UNL d   1      14.751  16.359  -2.280  0.00  0.00     0.033 A 
ATOM     12  C   UNL d   1      15.002  17.758  -2.233  0.00  0.00     0.000 C 
ENDBRANCH   4   5
ENDBRANCH   1   4
BRANCH   1  13
ATOM     13  C   UNL d   1      13.915  13.643  -3.151  0.00  0.00     0.118 A 
ATOM     14  C   UNL d   1      13.773  13.695  -3.958  0.00  0.00     0.035 A 
ATOM     15  C   UNL d   1      13.483  13.040  -4.375  0.00  0.00     0.105 A 
ATOM     16  N   UNL d   1      13.290  12.925  -5.169  0.00  0.00    -0.189 NA
ATOM     17  C   UNL d   1      13.336  12.327  -3.972  0.00  0.00     0.104 A 
ATOM     18  C   UNL d   1      13.024  12.142  -5.262  0.00  0.00     0.369 A 
ATOM     19  O   UNL d   1      12.775  11.795  -5.966  0.00  0.00    -0.242 OA
ATOM     20  N   UNL d   1      13.055  11.779  -4.520  0.00  0.00    -0.189 NA
ATOM     21  C   UNL d   1      13.481  12.278  -3.157  0.00  0.00     0.022 A 
ATOM     22  C   UNL d   1      13.770  12.938  -2.752  0.00  0.00     0.016 A 
ENDBRANCH   1  13
TORSDOF 3
ENDMDL
