MODEL 1
REMARK VINA RESULT:      -7.9      0.000      0.000
REMARK  5 active torsions:
REMARK  status: ('A' for Active; 'I' for Inactive)
REMARK    1  A    between atoms: N_2  and  C_1 
REMARK    2  A    between atoms: C_4  and  C_8 
REMARK    3  A    between atoms: N_15  and  C_5 
REMARK    4  A    between atoms: C_19  and  N_15 
REMARK    5  A    between atoms: C_20  and  N_15 
ROOT
ATOM      1  C   UNL d   1      52.721  32.706  53.226  0.00  0.00     0.143 A 
ATOM      2  C   UNL d   1      53.193  33.249  53.624  0.00  0.00     0.086 A 
ATOM      3  C   UNL d   1      52.031  32.957  52.840  0.00  0.00     0.027 A 
ATOM      4  C   UNL d   1      51.816  33.761  52.858  0.00  0.00     0.021 A 
ATOM      5  C   UNL d   1      52.981  34.045  53.641  0.00  0.00     0.019 A 
ATOM      6  C   UNL d   1      52.295  34.307  53.260  0.00  0.00     0.003 A 
ENDROOT
BRANCH   4   7
ATOM      7  C   UNL d   1      51.133  34.014  52.477  0.00  0.00     0.103 A 
ATOM      8  N   UNL d   1      51.121  34.084  51.654  0.00  0.00    -0.145 NA
ATOM      9  N   UNL d   1      50.438  34.337  51.272  0.00  0.00    -0.106 NA
ATOM     10  C   UNL d   1      49.765  34.521  51.710  0.00  0.00     0.297 A 
ATOM     11  C   UNL d   1      49.777  34.451  52.533  0.00  0.00     0.066 A 
ATOM     12  O   UNL d   1      49.082  34.774  51.330  0.00  0.00    -0.264 OA
ATOM     13  C   UNL d   1      50.464  34.196  52.922  0.00  0.00     0.024 A 
ATOM     14  C   UNL d   1      50.474  34.127  53.741  0.00  0.00     0.002 C 
ENDBRANCH   4   7
BRANCH   1  15
ATOM     15  N   UNL d   1      52.927  31.904  53.205  0.00  0.00    -0.112 N 
ATOM     16  O   UNL d   1      53.337  31.609  52.547  0.00  0.00    -0.532 OA
ATOM     17  O   UNL d   1      52.730  31.404  53.827  0.00  0.00    -0.532 OA
ENDBRANCH   1  15
BRANCH   2  18
ATOM     18  N   UNL d   1      53.876  32.997  54.006  0.00  0.00    -0.302 N 
BRANCH  18  19
ATOM     19  C   UNL d   1      53.845  32.771  54.795  0.00  0.00     0.080 C 
ATOM     20  C   UNL d   1      54.439  33.010  55.317  0.00  0.00     0.021 C 
ENDBRANCH  18  19
BRANCH  18  21
ATOM     21  C   UNL d   1      54.591  32.970  53.597  0.00  0.00     0.080 C 
ATOM     22  C   UNL d   1      55.258  33.334  53.909  0.00  0.00     0.021 C 
ENDBRANCH  18  21
ENDBRANCH   2  18
TORSDOF 5
ENDMDL
MODEL 2
REMARK VINA RESULT:      -7.6      1.530      1.981
REMARK  5 active torsions:
REMARK  status: ('A' for Active; 'I' for Inactive)
REMARK    1  A    between atoms: N_2  and  C_1 
REMARK    2  A    between atoms: C_4  and  C_8 
REMARK    3  A    between atoms: N_15  and  C_5 
REMARK    4  A    between atoms: C_19  and  N_15 
REMARK    5  A    between atoms: C_20  and  N_15 
ROOT
ATOM      1  C   UNL d   1      52.694  34.490  53.906  0.00  0.00     0.143 A 
ATOM      2  C   UNL d   1      52.951  33.709  53.895  0.00  0.00     0.086 A 
ATOM      3  C   UNL d   1      51.973  34.697  53.552  0.00  0.00     0.027 A 
ATOM      4  C   UNL d   1      51.509  34.111  53.185  0.00  0.00     0.021 A 
ATOM      5  C   UNL d   1      52.491  33.129  53.533  0.00  0.00     0.019 A 
ATOM      6  C   UNL d   1      51.771  33.324  53.177  0.00  0.00     0.003 A 
ENDROOT
BRANCH   4   7
ATOM      7  C   UNL d   1      50.794  34.312  52.833  0.00  0.00     0.103 A 
ATOM      8  N   UNL d   1      50.147  34.520  53.303  0.00  0.00    -0.145 NA
ATOM      9  N   UNL d   1      49.431  34.721  52.951  0.00  0.00    -0.106 NA
ATOM     10  C   UNL d   1      49.359  34.715  52.130  0.00  0.00     0.297 A 
ATOM     11  C   UNL d   1      50.006  34.506  51.661  0.00  0.00     0.066 A 
ATOM     12  O   UNL d   1      48.644  34.916  51.778  0.00  0.00    -0.264 OA
ATOM     13  C   UNL d   1      50.729  34.303  52.012  0.00  0.00     0.024 A 
ATOM     14  C   UNL d   1      51.372  34.096  51.543  0.00  0.00     0.002 C 
ENDBRANCH   4   7
BRANCH   1  15
ATOM     15  N   UNL d   1      53.151  35.079  54.268  0.00  0.00    -0.112 N 
ATOM     16  O   UNL d   1      53.051  35.227  55.078  0.00  0.00    -0.532 OA
ATOM     17  O   UNL d   1      53.697  35.513  53.833  0.00  0.00    -0.532 OA
ENDBRANCH   1  15
BRANCH   2  18
ATOM     18  N   UNL d   1      53.666  33.507  54.247  0.00  0.00    -0.302 N 
BRANCH  18  19
ATOM     19  C   UNL d   1      54.355  33.502  53.800  0.00  0.00     0.080 C 
ATOM     20  C   UNL d   1      54.778  32.800  53.701  0.00  0.00     0.021 C 
ENDBRANCH  18  19
BRANCH  18  21
ATOM     21  C   UNL d   1      53.692  33.311  55.047  0.00  0.00     0.080 C 
ATOM     22  C   UNL d   1      54.289  32.824  55.333  0.00  0.00     0.021 C 
ENDBRANCH  18  21
ENDBRANCH   2  18
TORSDOF 5
ENDMDL
MODEL 3
REMARK VINA RESULT:      -7.3      2.486      4.102
REMARK  5 active torsions:
REMARK  status: ('A' for Active; 'I' for Inactive)
REMARK    1  A    between atoms: N_2  and  C_1 
REMARK    2  A    between atoms: C_4  and  C_8 
REMARK    3  A    between atoms: N_15  and  C_5 
REMARK    4  A    between atoms: C_19  and  N_15 
REMARK    5  A    between atoms: C_20  and  N_15 
ROOT
ATOM      1  C   UNL d   1      53.978  32.807  54.071  0.00  0.00     0.143 A 
ATOM      2  C   UNL d   1      53.282  33.208  53.891  0.00  0.00     0.086 A 
ATOM      3  C   UNL d   1      53.979  31.980  54.130  0.00  0.00     0.027 A 
ATOM      4  C   UNL d   1      53.273  31.555  54.006  0.00  0.00     0.021 A 
ATOM      5  C   UNL d   1      52.584  32.788  53.769  0.00  0.00     0.019 A 
ATOM      6  C   UNL d   1      52.573  31.963  53.825  0.00  0.00     0.003 A 
ENDROOT
BRANCH   4   7
ATOM      7  C   UNL d   1      53.269  30.736  54.064  0.00  0.00     0.103 A 
ATOM      8  N   UNL d   1      53.334  30.373  54.803  0.00  0.00    -0.145 NA
ATOM      9  N   UNL d   1      53.331  29.553  54.861  0.00  0.00    -0.106 NA
ATOM     10  C   UNL d   1      53.263  29.091  54.182  0.00  0.00     0.297 A 
ATOM     11  C   UNL d   1      53.198  29.454  53.442  0.00  0.00     0.066 A 
ATOM     12  O   UNL d   1      53.259  28.271  54.239  0.00  0.00    -0.264 OA
ATOM     13  C   UNL d   1      53.201  30.281  53.380  0.00  0.00     0.024 A 
ATOM     14  C   UNL d   1      53.136  30.640  52.643  0.00  0.00     0.002 C 
ENDBRANCH   4   7
BRANCH   1  15
ATOM     15  N   UNL d   1      54.684  33.222  54.195  0.00  0.00    -0.112 N 
ATOM     16  O   UNL d   1      55.194  33.354  53.555  0.00  0.00    -0.532 OA
ATOM     17  O   UNL d   1      54.879  33.502  54.944  0.00  0.00    -0.532 OA
ENDBRANCH   1  15
BRANCH   2  18
ATOM     18  N   UNL d   1      53.285  34.029  53.834  0.00  0.00    -0.302 N 
BRANCH  18  19
ATOM     19  C   UNL d   1      53.333  34.387  53.096  0.00  0.00     0.080 C 
ATOM     20  C   UNL d   1      52.725  34.882  52.837  0.00  0.00     0.021 C 
ENDBRANCH  18  19
BRANCH  18  21
ATOM     21  C   UNL d   1      53.241  34.490  54.515  0.00  0.00     0.080 C 
ATOM     22  C   UNL d   1      52.891  35.233  54.487  0.00  0.00     0.021 C 
ENDBRANCH  18  21
ENDBRANCH   2  18
TORSDOF 5
ENDMDL
MODEL 4
REMARK VINA RESULT:      -6.6      1.462      4.154
REMARK  5 active torsions:
REMARK  status: ('A' for Active; 'I' for Inactive)
REMARK    1  A    between atoms: N_2  and  C_1 
REMARK    2  A    between atoms: C_4  and  C_8 
REMARK    3  A    between atoms: N_15  and  C_5 
REMARK    4  A    between atoms: C_19  and  N_15 
REMARK    5  A    between atoms: C_20  and  N_15 
ROOT
ATOM      1  C   UNL d   1      51.781  33.419  53.397  0.00  0.00     0.143 A 
ATOM      2  C   UNL d   1      51.607  34.112  52.988  0.00  0.00     0.086 A 
ATOM      3  C   UNL d   1      52.467  33.370  53.861  0.00  0.00     0.027 A 
ATOM      4  C   UNL d   1      52.979  34.024  53.913  0.00  0.00     0.021 A 
ATOM      5  C   UNL d   1      52.114  34.759  53.039  0.00  0.00     0.019 A 
ATOM      6  C   UNL d   1      52.801  34.721  53.499  0.00  0.00     0.003 A 
ENDROOT
BRANCH   4   7
ATOM      7  C   UNL d   1      53.660  33.980  54.372  0.00  0.00     0.103 A 
ATOM      8  N   UNL d   1      53.705  34.395  55.084  0.00  0.00    -0.145 NA
ATOM      9  N   UNL d   1      54.386  34.351  55.544  0.00  0.00    -0.106 NA
ATOM     10  C   UNL d   1      55.023  33.892  55.294  0.00  0.00     0.297 A 
ATOM     11  C   UNL d   1      54.978  33.477  54.582  0.00  0.00     0.066 A 
ATOM     12  O   UNL d   1      55.703  33.847  55.753  0.00  0.00    -0.264 OA
ATOM     13  C   UNL d   1      54.293  33.519  54.115  0.00  0.00     0.024 A 
ATOM     14  C   UNL d   1      54.249  33.104  53.406  0.00  0.00     0.002 C 
ENDBRANCH   4   7
BRANCH   1  15
ATOM     15  N   UNL d   1      51.276  32.764  53.351  0.00  0.00    -0.112 N 
ATOM     16  O   UNL d   1      51.457  32.150  52.824  0.00  0.00    -0.532 OA
ATOM     17  O   UNL d   1      50.602  32.721  53.821  0.00  0.00    -0.532 OA
ENDBRANCH   1  15
BRANCH   2  18
ATOM     18  N   UNL d   1      50.926  34.157  52.529  0.00  0.00    -0.302 N 
BRANCH  18  19
ATOM     19  C   UNL d   1      50.968  34.013  51.721  0.00  0.00     0.080 C 
ATOM     20  C   UNL d   1      50.430  34.375  51.209  0.00  0.00     0.021 C 
ENDBRANCH  18  19
BRANCH  18  21
ATOM     21  C   UNL d   1      50.204  34.346  52.878  0.00  0.00     0.080 C 
ATOM     22  C   UNL d   1      49.694  34.874  52.510  0.00  0.00     0.021 C 
ENDBRANCH  18  21
ENDBRANCH   2  18
TORSDOF 5
ENDMDL
MODEL 5
REMARK VINA RESULT:      -6.4      1.816      3.689
REMARK  5 active torsions:
REMARK  status: ('A' for Active; 'I' for Inactive)
REMARK    1  A    between atoms: N_2  and  C_1 
REMARK    2  A    between atoms: C_4  and  C_8 
REMARK    3  A    between atoms: N_15  and  C_5 
REMARK    4  A    between atoms: C_19  and  N_15 
REMARK    5  A    between atoms: C_20  and  N_15 
ROOT
ATOM      1  C   UNL d   1      52.204  33.362  53.150  0.00  0.00     0.143 A 
ATOM      2  C   UNL d   1      52.733  33.725  53.664  0.00  0.00     0.086 A 
ATOM      3  C   UNL d   1      52.199  32.536  53.071  0.00  0.00     0.027 A 
ATOM      4  C   UNL d   1      52.732  32.075  53.514  0.00  0.00     0.021 A 
ATOM      5  C   UNL d   1      53.261  33.269  54.103  0.00  0.00     0.019 A 
ATOM      6  C   UNL d   1      53.265  32.444  54.032  0.00  0.00     0.003 A 
ENDROOT
BRANCH   4   7
ATOM      7  C   UNL d   1      52.731  31.257  53.438  0.00  0.00     0.103 A 
ATOM      8  N   UNL d   1      52.022  30.838  53.500  0.00  0.00    -0.145 NA
ATOM      9  N   UNL d   1      52.020  30.018  53.424  0.00  0.00    -0.106 NA
ATOM     10  C   UNL d   1      52.725  29.615  53.288  0.00  0.00     0.297 A 
ATOM     11  C   UNL d   1      53.434  30.034  53.227  0.00  0.00     0.066 A 
ATOM     12  O   UNL d   1      52.723  28.797  53.212  0.00  0.00    -0.264 OA
ATOM     13  C   UNL d   1      53.440  30.860  53.302  0.00  0.00     0.024 A 
ATOM     14  C   UNL d   1      54.147  31.276  53.241  0.00  0.00     0.002 C 
ENDBRANCH   4   7
BRANCH   1  15
ATOM     15  N   UNL d   1      51.670  33.814  52.706  0.00  0.00    -0.112 N 
ATOM     16  O   UNL d   1      50.923  33.984  53.022  0.00  0.00    -0.532 OA
ATOM     17  O   UNL d   1      51.877  34.092  51.959  0.00  0.00    -0.532 OA
ENDBRANCH   1  15
BRANCH   2  18
ATOM     18  N   UNL d   1      52.735  34.544  53.740  0.00  0.00    -0.302 N 
BRANCH  18  19
ATOM     19  C   UNL d   1      53.194  35.000  53.234  0.00  0.00     0.080 C 
ATOM     20  C   UNL d   1      53.663  35.609  53.538  0.00  0.00     0.021 C 
ENDBRANCH  18  19
BRANCH  18  21
ATOM     21  C   UNL d   1      52.277  34.906  54.322  0.00  0.00     0.080 C 
ATOM     22  C   UNL d   1      52.582  35.536  54.752  0.00  0.00     0.021 C 
ENDBRANCH  18  21
ENDBRANCH   2  18
TORSDOF 5
ENDMDL
MODEL 6
REMARK VINA RESULT:      -6.4      2.211      3.052
REMARK  5 active torsions:
REMARK  status: ('A' for Active; 'I' for Inactive)
REMARK    1  A    between atoms: N_2  and  C_1 
REMARK    2  A    between atoms: C_4  and  C_8 
REMARK    3  A    between atoms: N_15  and  C_5 
REMARK    4  A    between atoms: C_19  and  N_15 
REMARK    5  A    between atoms: C_20  and  N_15 
ROOT
ATOM      1  C   UNL d   1      52.829  31.902  53.422  0.00  0.00     0.143 A 
ATOM      2  C   UNL d   1      53.423  31.467  53.790  0.00  0.00     0.086 A 
ATOM      3  C   UNL d   1      52.769  32.719  53.553  0.00  0.00     0.027 A 
ATOM      4  C   UNL d   1      53.312  33.098  54.058  0.00  0.00     0.021 A 
ATOM      5  C   UNL d   1      53.960  31.843  54.289  0.00  0.00     0.019 A 
ATOM      6  C   UNL d   1      53.909  32.657  54.427  0.00  0.00     0.003 A 
ENDROOT
BRANCH   4   7
ATOM      7  C   UNL d   1      53.256  33.908  54.190  0.00  0.00     0.103 A 
ATOM      8  N   UNL d   1      52.898  34.394  53.627  0.00  0.00    -0.145 NA
ATOM      9  N   UNL d   1      52.841  35.204  53.759  0.00  0.00    -0.106 NA
ATOM     10  C   UNL d   1      53.142  35.531  54.453  0.00  0.00     0.297 A 
ATOM     11  C   UNL d   1      53.500  35.044  55.017  0.00  0.00     0.066 A 
ATOM     12  O   UNL d   1      53.086  36.340  54.586  0.00  0.00    -0.264 OA
ATOM     13  C   UNL d   1      53.558  34.227  54.887  0.00  0.00     0.024 A 
ATOM     14  C   UNL d   1      53.915  33.744  55.449  0.00  0.00     0.002 C 
ENDBRANCH   4   7
BRANCH   1  15
ATOM     15  N   UNL d   1      52.285  31.532  52.919  0.00  0.00    -0.112 N 
ATOM     16  O   UNL d   1      51.558  31.277  53.226  0.00  0.00    -0.532 OA
ATOM     17  O   UNL d   1      52.461  31.418  52.124  0.00  0.00    -0.532 OA
ENDBRANCH   1  15
BRANCH   2  18
ATOM     18  N   UNL d   1      53.479  30.658  53.657  0.00  0.00    -0.302 N 
BRANCH  18  19
ATOM     19  C   UNL d   1      53.063  30.135  54.136  0.00  0.00     0.080 C 
ATOM     20  C   UNL d   1      53.378  29.390  54.306  0.00  0.00     0.021 C 
ENDBRANCH  18  19
BRANCH  18  21
ATOM     21  C   UNL d   1      53.953  30.371  53.047  0.00  0.00     0.080 C 
ATOM     22  C   UNL d   1      54.469  29.747  53.184  0.00  0.00     0.021 C 
ENDBRANCH  18  21
ENDBRANCH   2  18
TORSDOF 5
ENDMDL
