MODEL 1
REMARK VINA RESULT:      -5.0      0.000      0.000
REMARK  5 active torsions:
REMARK  status: ('A' for Active; 'I' for Inactive)
REMARK    1  A    between atoms: S_10  and  C_6 
REMARK    2  A    between atoms: C_15  and  S_10 
REMARK    3  A    between atoms: C_12  and  C_15 
REMARK       I    between atoms: N_16  and  C_12 
REMARK    4  A    between atoms: C_14  and  C_20 
REMARK    5  A    between atoms: C_20  and  N_16 
ROOT
ATOM      1  C   UNL d   1      56.450   0.315  32.393  0.00  0.00     0.117 A 
ATOM      2  C   UNL d   1      56.358  -0.495  32.394  0.00  0.00     0.082 A 
ATOM      3  N   UNL d   1      56.878   0.682  31.773  0.00  0.00    -0.214 NA
ATOM      4  C   UNL d   1      56.677  -0.956  31.798  0.00  0.00     0.283 A 
ATOM      5  N   UNL d   1      57.105  -0.589  31.178  0.00  0.00    -0.183 NA
ATOM      6  C   UNL d   1      57.197   0.224  31.178  0.00  0.00     0.198 A 
ATOM      7  S   UNL d   1      56.069   0.618  33.059  0.00  0.00    -0.068 SA
ATOM      8  C   UNL d   1      55.921  -0.688  33.060  0.00  0.00     0.013 A 
ATOM      9  C   UNL d   1      55.733  -0.000  33.487  0.00  0.00     0.031 A 
ATOM     10  O   UNL d   1      56.577  -1.796  31.806  0.00  0.00    -0.265 OA
ATOM     11  C   UNL d   1      55.691  -1.458  33.290  0.00  0.00     0.001 C 
ATOM     12  C   UNL d   1      55.291   0.046  34.204  0.00  0.00     0.007 C 
ENDROOT
BRANCH   6  13
ATOM     13  S   UNL d   1      57.622   0.589  30.561  0.00  0.00    -0.043 SA
BRANCH  13  14
ATOM     14  C   UNL d   1      58.329   0.266  30.313  0.00  0.00     0.101 C 
BRANCH  14  15
ATOM     15  C   UNL d   1      58.651   0.488  29.552  0.00  0.00     0.286 C 
ATOM     16  O   UNL d   1      58.135   0.667  28.928  0.00  0.00    -0.265 OA
ATOM     17  N   UNL d   1      59.461   0.520  29.446  0.00  0.00    -0.206 NA
BRANCH  17  18
ATOM     18  C   UNL d   1      59.968   0.342  30.066  0.00  0.00     0.102 C 
BRANCH  18  19
ATOM     19  C   UNL d   1      60.765   0.232  29.929  0.00  0.00     0.021 C 
ATOM     20  C   UNL d   1      61.063  -0.520  29.764  0.00  0.00     0.002 C 
ENDBRANCH  18  19
ENDBRANCH  17  18
ENDBRANCH  14  15
ENDBRANCH  13  14
ENDBRANCH   6  13
TORSDOF 5
ENDMDL
MODEL 2
REMARK VINA RESULT:      -4.7      1.607      1.787
REMARK  5 active torsions:
REMARK  status: ('A' for Active; 'I' for Inactive)
REMARK    1  A    between atoms: S_10  and  C_6 
REMARK    2  A    between atoms: C_15  and  S_10 
REMARK    3  A    between atoms: C_12  and  C_15 
REMARK       I    between atoms: N_16  and  C_12 
REMARK    4  A    between atoms: C_14  and  C_20 
REMARK    5  A    between atoms: C_20  and  N_16 
ROOT
ATOM      1  C   UNL d   1      56.676   0.170  31.948  0.00  0.00     0.117 A 
ATOM      2  C   UNL d   1      57.185   0.330  32.564  0.00  0.00     0.082 A 
ATOM      3  N   UNL d   1      56.960   0.196  31.160  0.00  0.00    -0.214 NA
ATOM      4  C   UNL d   1      57.970   0.515  32.425  0.00  0.00     0.283 A 
ATOM      5  N   UNL d   1      58.253   0.540  31.637  0.00  0.00    -0.183 NA
ATOM      6  C   UNL d   1      57.742   0.379  31.019  0.00  0.00     0.198 A 
ATOM      7  S   UNL d   1      55.932   0.006  32.265  0.00  0.00    -0.068 SA
ATOM      8  C   UNL d   1      56.754   0.264  33.258  0.00  0.00     0.013 A 
ATOM      9  C   UNL d   1      55.966   0.061  33.086  0.00  0.00     0.031 A 
ATOM     10  O   UNL d   1      58.492   0.680  33.070  0.00  0.00    -0.265 OA
ATOM     11  C   UNL d   1      57.048   0.380  34.032  0.00  0.00     0.001 C 
ATOM     12  C   UNL d   1      55.342  -0.061  33.640  0.00  0.00     0.007 C 
ENDROOT
BRANCH   6  13
ATOM     13  S   UNL d   1      58.024   0.404  30.235  0.00  0.00    -0.043 SA
BRANCH  13  14
ATOM     14  C   UNL d   1      58.311  -0.276  29.889  0.00  0.00     0.101 C 
BRANCH  14  15
ATOM     15  C   UNL d   1      58.594  -0.252  29.081  0.00  0.00     0.286 C 
ATOM     16  O   UNL d   1      58.618   0.473  28.680  0.00  0.00    -0.265 OA
ATOM     17  N   UNL d   1      58.837  -0.941  28.714  0.00  0.00    -0.206 NA
BRANCH  17  18
ATOM     18  C   UNL d   1      58.811  -1.655  29.116  0.00  0.00     0.102 C 
BRANCH  18  19
ATOM     19  C   UNL d   1      59.154  -2.323  28.792  0.00  0.00     0.021 C 
ATOM     20  C   UNL d   1      58.813  -3.066  28.906  0.00  0.00     0.002 C 
ENDBRANCH  18  19
ENDBRANCH  17  18
ENDBRANCH  14  15
ENDBRANCH  13  14
ENDBRANCH   6  13
TORSDOF 5
ENDMDL
MODEL 3
REMARK VINA RESULT:      -4.3      2.542      4.910
REMARK  5 active torsions:
REMARK  status: ('A' for Active; 'I' for Inactive)
REMARK    1  A    between atoms: S_10  and  C_6 
REMARK    2  A    between atoms: C_15  and  S_10 
REMARK    3  A    between atoms: C_12  and  C_15 
REMARK       I    between atoms: N_16  and  C_12 
REMARK    4  A    between atoms: C_14  and  C_20 
REMARK    5  A    between atoms: C_20  and  N_16 
ROOT
ATOM      1  C   UNL d   1      59.131  -2.618  28.888  0.00  0.00     0.117 A 
ATOM      2  C   UNL d   1      59.938  -2.572  28.993  0.00  0.00     0.082 A 
ATOM      3  N   UNL d   1      58.660  -1.935  28.999  0.00  0.00    -0.214 NA
ATOM      4  C   UNL d   1      60.295  -1.868  29.207  0.00  0.00     0.283 A 
ATOM      5  N   UNL d   1      59.823  -1.184  29.318  0.00  0.00    -0.183 NA
ATOM      6  C   UNL d   1      59.013  -1.231  29.212  0.00  0.00     0.198 A 
ATOM      7  S   UNL d   1      58.943  -3.394  28.677  0.00  0.00    -0.068 SA
ATOM      8  C   UNL d   1      60.244  -3.319  28.847  0.00  0.00     0.013 A 
ATOM      9  C   UNL d   1      59.632  -3.844  28.647  0.00  0.00     0.031 A 
ATOM     10  O   UNL d   1      61.133  -1.828  29.315  0.00  0.00    -0.265 OA
ATOM     11  C   UNL d   1      61.051  -3.535  28.889  0.00  0.00     0.001 C 
ATOM     12  C   UNL d   1      59.709  -4.662  28.457  0.00  0.00     0.007 C 
ENDROOT
BRANCH   6  13
ATOM     13  S   UNL d   1      58.545  -0.552  29.323  0.00  0.00    -0.043 SA
BRANCH  13  14
ATOM     14  C   UNL d   1      58.102  -0.474  30.004  0.00  0.00     0.101 C 
BRANCH  14  15
ATOM     15  C   UNL d   1      57.534   0.163  30.068  0.00  0.00     0.286 C 
ATOM     16  O   UNL d   1      57.430   0.682  29.430  0.00  0.00    -0.265 OA
ATOM     17  N   UNL d   1      57.102   0.254  30.756  0.00  0.00    -0.206 NA
BRANCH  17  18
ATOM     18  C   UNL d   1      57.208  -0.262  31.385  0.00  0.00     0.102 C 
BRANCH  18  19
ATOM     19  C   UNL d   1      56.810  -0.143  32.088  0.00  0.00     0.021 C 
ATOM     20  C   UNL d   1      56.603  -0.783  32.566  0.00  0.00     0.002 C 
ENDBRANCH  18  19
ENDBRANCH  17  18
ENDBRANCH  14  15
ENDBRANCH  13  14
ENDBRANCH   6  13
TORSDOF 5
ENDMDL
MODEL 4
REMARK VINA RESULT:      -3.1      1.465      4.544
REMARK  5 active torsions:
REMARK  status: ('A' for Active; 'I' for Inactive)
REMARK    1  A    between atoms: S_10  and  C_6 
REMARK    2  A    between atoms: C_15  and  S_10 
REMARK    3  A    between atoms: C_12  and  C_15 
REMARK       I    between atoms: N_16  and  C_12 
REMARK    4  A    between atoms: C_14  and  C_20 
REMARK    5  A    between atoms: C_20  and  N_16 
ROOT
ATOM      1  C   UNL d   1      58.910   0.323  30.147  0.00  0.00     0.117 A 
ATOM      2  C   UNL d   1      58.649  -0.394  29.861  0.00  0.00     0.082 A 
ATOM      3  N   UNL d   1      58.511   0.682  30.791  0.00  0.00    -0.214 NA
ATOM      4  C   UNL d   1      58.003  -0.769  30.193  0.00  0.00     0.283 A 
ATOM      5  N   UNL d   1      57.603  -0.410  30.836  0.00  0.00    -0.183 NA
ATOM      6  C   UNL d   1      57.866   0.310  31.123  0.00  0.00     0.198 A 
ATOM      7  S   UNL d   1      59.565   0.555  29.701  0.00  0.00    -0.068 SA
ATOM      8  C   UNL d   1      59.143  -0.602  29.241  0.00  0.00     0.013 A 
ATOM      9  C   UNL d   1      59.722  -0.016  29.129  0.00  0.00     0.031 A 
ATOM     10  O   UNL d   1      57.737  -1.514  29.890  0.00  0.00    -0.265 OA
ATOM     11  C   UNL d   1      59.086  -1.296  28.779  0.00  0.00     0.001 C 
ATOM     12  C   UNL d   1      60.336  -0.014  28.550  0.00  0.00     0.007 C 
ENDROOT
BRANCH   6  13
ATOM     13  S   UNL d   1      57.469   0.666  31.763  0.00  0.00    -0.043 SA
BRANCH  13  14
ATOM     14  C   UNL d   1      57.149   0.199  32.349  0.00  0.00     0.101 C 
BRANCH  14  15
ATOM     15  C   UNL d   1      57.164   0.471  33.161  0.00  0.00     0.286 C 
ATOM     16  O   UNL d   1      57.887   0.680  33.508  0.00  0.00    -0.265 OA
ATOM     17  N   UNL d   1      56.467   0.521  33.586  0.00  0.00    -0.206 NA
BRANCH  17  18
ATOM     18  C   UNL d   1      55.754   0.312  33.239  0.00  0.00     0.102 C 
BRANCH  18  19
ATOM     19  C   UNL d   1      55.173  -0.058  33.679  0.00  0.00     0.021 C 
ATOM     20  C   UNL d   1      54.453   0.318  33.824  0.00  0.00     0.002 C 
ENDBRANCH  18  19
ENDBRANCH  17  18
ENDBRANCH  14  15
ENDBRANCH  13  14
ENDBRANCH   6  13
TORSDOF 5
ENDMDL
