MODEL 1
REMARK VINA RESULT:      23.7      0.000      0.000
REMARK  3 active torsions:
REMARK  status: ('A' for Active; 'I' for Inactive)
REMARK    1  A    between atoms: N_2  and  S_1 
REMARK    2  A    between atoms: C_4  and  S_1 
REMARK    3  A    between atoms: C_11  and  C_3 
ROOT
ATOM      1  N   UNL d   1      46.227 -18.315  42.452  0.00  0.00    -0.213 N 
ATOM      2  C   UNL d   1      46.325 -19.107  42.678  0.00  0.00     0.157 A 
ATOM      3  N   UNL d   1      46.559 -19.528  42.006  0.00  0.00    -0.224 NA
ATOM      4  C   UNL d   1      46.400 -18.253  41.648  0.00  0.00     0.114 A 
ATOM      5  C   UNL d   1      46.605 -19.004  41.375  0.00  0.00     0.120 A 
ENDROOT
BRANCH   1   6
ATOM      6  S   UNL d   1      45.996 -17.697  42.947  0.00  0.00     0.273 S 
ATOM      7  O   UNL d   1      46.517 -17.967  43.527  0.00  0.00    -0.200 OA
ATOM      8  O   UNL d   1      45.477 -17.429  42.371  0.00  0.00    -0.200 OA
BRANCH   6   9
ATOM      9  C   UNL d   1      45.766 -17.082  43.441  0.00  0.00     0.104 A 
ATOM     10  C   UNL d   1      45.979 -16.303  43.265  0.00  0.00     0.015 A 
ATOM     11  C   UNL d   1      45.752 -15.678  43.755  0.00  0.00     0.028 A 
ATOM     12  C   UNL d   1      45.966 -14.908  43.577  0.00  0.00     0.002 C 
ATOM     13  C   UNL d   1      45.302 -15.842  44.434  0.00  0.00     0.140 A 
ATOM     14  C   UNL d   1      45.088 -16.613  44.612  0.00  0.00     0.030 A 
ATOM     15  F   UNL d   1      45.072 -15.227  44.927  0.00  0.00    -0.204 F 
ATOM     16  C   UNL d   1      45.320 -17.231  44.116  0.00  0.00     0.015 A 
ENDBRANCH   6   9
ENDBRANCH   1   6
BRANCH   2  17
ATOM     17  C   UNL d   1      46.210 -19.417  43.432  0.00  0.00     0.035 A 
ATOM     18  C   UNL d   1      46.646 -19.124  44.071  0.00  0.00     0.003 A 
ATOM     19  C   UNL d   1      46.533 -19.432  44.828  0.00  0.00     0.000 A 
ATOM     20  C   UNL d   1      45.983 -20.035  44.944  0.00  0.00     0.000 A 
ATOM     21  C   UNL d   1      45.547 -20.327  44.304  0.00  0.00     0.000 A 
ATOM     22  C   UNL d   1      45.661 -20.018  43.551  0.00  0.00     0.003 A 
ENDBRANCH   2  17
TORSDOF 3
ENDMDL
