MODEL 1
REMARK VINA RESULT:      48.3      0.000      0.000
REMARK  7 active torsions:
REMARK  status: ('A' for Active; 'I' for Inactive)
REMARK    1  A    between atoms: C_2  and  C_8 
REMARK    2  A    between atoms: O_17  and  C_2 
REMARK    3  A    between atoms: C_15  and  C_3 
REMARK    4  A    between atoms: C_5  and  C_16 
REMARK       I    between atoms: N_9  and  C_5 
REMARK    5  A    between atoms: C_14  and  N_9 
REMARK    6  A    between atoms: C_16  and  C_15 
REMARK    7  A    between atoms: C_21  and  O_17 
ROOT
ATOM      1  C   UNL d   1     -51.407  24.875  33.329  0.00  0.00     0.064 A 
ATOM      2  C   UNL d   1     -51.817  25.601  33.351  0.00  0.00     0.007 A 
ATOM      3  C   UNL d   1     -50.576  24.879  33.312  0.00  0.00     0.007 A 
ATOM      4  C   UNL d   1     -50.576  26.299  33.337  0.00  0.00     0.085 A 
ATOM      5  C   UNL d   1     -51.397  26.305  33.354  0.00  0.00     0.019 A 
ATOM      6  C   UNL d   1     -50.172  25.592  33.316  0.00  0.00     0.019 A 
ENDROOT
BRANCH   4   7
ATOM      7  N   UNL d   1     -50.156  27.017  33.340  0.00  0.00    -0.208 NA
ATOM      8  C   UNL d   1     -49.937  27.358  34.057  0.00  0.00     0.279 C 
ATOM      9  O   UNL d   1     -49.522  28.067  34.066  0.00  0.00    -0.265 OA
BRANCH   8  10
ATOM     10  C   UNL d   1     -50.131  26.993  34.772  0.00  0.00     0.065 C 
BRANCH  10  11
ATOM     11  C   UNL d   1     -50.408  27.439  35.401  0.00  0.00     0.030 C 
BRANCH  11  12
ATOM     12  C   UNL d   1     -50.566  27.080  36.129  0.00  0.00     0.100 A 
ATOM     13  O   UNL d   1     -51.298  26.808  36.402  0.00  0.00    -0.307 OA
ATOM     14  C   UNL d   1     -51.199  26.492  37.149  0.00  0.00     0.100 A 
ATOM     15  C   UNL d   1     -50.397  26.565  37.350  0.00  0.00     0.027 A 
ATOM     16  C   UNL d   1     -51.783  26.162  37.619  0.00  0.00     0.027 C 
ATOM     17  C   UNL d   1     -50.007  26.927  36.720  0.00  0.00     0.027 A 
ENDBRANCH  11  12
ENDBRANCH  10  11
ENDBRANCH   8  10
ENDBRANCH   4   7
BRANCH   1  18
ATOM     18  C   UNL d   1     -51.822  24.169  33.326  0.00  0.00     0.300 C 
ATOM     19  O   UNL d   1     -51.406  23.445  33.321  0.00  0.00    -0.259 OA
BRANCH  18  20
ATOM     20  O   UNL d   1     -52.652  24.165  33.327  0.00  0.00    -0.271 OA
BRANCH  20  21
ATOM     21  C   UNL d   1     -53.051  23.434  33.340  0.00  0.00     0.126 C 
ATOM     22  C   UNL d   1     -53.436  23.199  34.037  0.00  0.00     0.029 C 
ENDBRANCH  20  21
ENDBRANCH  18  20
ENDBRANCH   1  18
TORSDOF 7
ENDMDL
