MODEL 1
REMARK VINA RESULT:      44.8      0.000      0.000
REMARK  5 active torsions:
REMARK  status: ('A' for Active; 'I' for Inactive)
REMARK    1  A    between atoms: C_10  and  C_4 
REMARK       I    between atoms: C_6  and  N_8 
REMARK    2  A    between atoms: C_9  and  C_6 
REMARK    3  A    between atoms: N_8  and  C_13 
REMARK    4  A    between atoms: C_11  and  C_9 
REMARK    5  A    between atoms: C_13  and  C_10 
ROOT
ATOM      1  C   UNL d   1     -49.129  27.782  34.961  0.00  0.00     0.279 C 
ATOM      2  O   UNL d   1     -49.206  27.885  35.777  0.00  0.00    -0.265 OA
ATOM      3  N   UNL d   1     -49.509  27.160  34.590  0.00  0.00    -0.206 NA
ENDROOT
BRANCH   1   4
ATOM      4  C   UNL d   1     -48.666  28.309  34.527  0.00  0.00     0.062 C 
BRANCH   4   5
ATOM      5  C   UNL d   1     -48.247  28.915  34.911  0.00  0.00     0.005 A 
ATOM      6  C   UNL d   1     -47.808  28.728  35.566  0.00  0.00     0.001 A 
ATOM      7  C   UNL d   1     -47.390  29.325  35.952  0.00  0.00     0.011 A 
ATOM      8  C   UNL d   1     -47.416  30.099  35.680  0.00  0.00     0.058 A 
ATOM      9  C   UNL d   1     -47.864  30.286  35.014  0.00  0.00     0.011 A 
ATOM     10 CL   UNL d   1     -46.991  30.695  36.077  0.00  0.00    -0.082 Cl
ATOM     11  C   UNL d   1     -48.281  29.690  34.629  0.00  0.00     0.001 A 
ENDBRANCH   4   5
ENDBRANCH   1   4
BRANCH   3  12
ATOM     12  C   UNL d   1     -49.427  27.059  33.758  0.00  0.00     0.104 C 
BRANCH  12  13
ATOM     13  C   UNL d   1     -50.095  26.881  33.307  0.00  0.00     0.040 C 
BRANCH  13  14
ATOM     14  C   UNL d   1     -50.389  26.103  33.311  0.00  0.00     0.090 A 
ATOM     15  N   UNL d   1     -51.205  25.973  33.306  0.00  0.00    -0.238 NA
ATOM     16  C   UNL d   1     -51.333  25.158  33.311  0.00  0.00     0.111 A 
ATOM     17  S   UNL d   1     -50.606  24.787  33.320  0.00  0.00    -0.066 SA
ATOM     18  C   UNL d   1     -52.068  24.772  33.309  0.00  0.00     0.028 C 
ATOM     19  C   UNL d   1     -50.014  25.361  33.320  0.00  0.00     0.056 A 
ENDBRANCH  13  14
ENDBRANCH  12  13
ENDBRANCH   3  12
TORSDOF 5
ENDMDL
MODEL 2
REMARK VINA RESULT:      46.4      1.287      1.790
REMARK  5 active torsions:
REMARK  status: ('A' for Active; 'I' for Inactive)
REMARK    1  A    between atoms: C_10  and  C_4 
REMARK       I    between atoms: C_6  and  N_8 
REMARK    2  A    between atoms: C_9  and  C_6 
REMARK    3  A    between atoms: N_8  and  C_13 
REMARK    4  A    between atoms: C_11  and  C_9 
REMARK    5  A    between atoms: C_13  and  C_10 
ROOT
ATOM      1  C   UNL d   1     -48.115  29.120  35.224  0.00  0.00     0.279 C 
ATOM      2  O   UNL d   1     -47.704  29.330  35.909  0.00  0.00    -0.265 OA
ATOM      3  N   UNL d   1     -48.560  28.433  35.209  0.00  0.00    -0.206 NA
ENDROOT
BRANCH   1   4
ATOM      4  C   UNL d   1     -48.073  29.606  34.560  0.00  0.00     0.062 C 
BRANCH   4   5
ATOM      5  C   UNL d   1     -47.893  30.413  34.641  0.00  0.00     0.005 A 
ATOM      6  C   UNL d   1     -47.335  30.633  35.186  0.00  0.00     0.001 A 
ATOM      7  C   UNL d   1     -47.152  31.432  35.271  0.00  0.00     0.011 A 
ATOM      8  C   UNL d   1     -47.526  32.001  34.812  0.00  0.00     0.058 A 
ATOM      9  C   UNL d   1     -48.093  31.774  34.258  0.00  0.00     0.011 A 
ATOM     10 CL   UNL d   1     -47.334  32.805  34.906  0.00  0.00    -0.082 Cl
ATOM     11  C   UNL d   1     -48.276  30.976  34.174  0.00  0.00     0.001 A 
ENDBRANCH   4   5
ENDBRANCH   1   4
BRANCH   3  12
ATOM     12  C   UNL d   1     -48.977  28.223  34.509  0.00  0.00     0.104 C 
BRANCH  12  13
ATOM     13  C   UNL d   1     -49.062  27.425  34.316  0.00  0.00     0.040 C 
BRANCH  13  14
ATOM     14  C   UNL d   1     -49.761  27.172  33.942  0.00  0.00     0.090 A 
ATOM     15  N   UNL d   1     -49.925  26.364  33.884  0.00  0.00    -0.238 NA
ATOM     16  C   UNL d   1     -50.646  26.279  33.492  0.00  0.00     0.111 A 
ATOM     17  S   UNL d   1     -50.926  27.025  33.310  0.00  0.00    -0.066 SA
ATOM     18  C   UNL d   1     -51.030  25.566  33.309  0.00  0.00     0.028 C 
ATOM     19  C   UNL d   1     -50.387  27.585  33.584  0.00  0.00     0.056 A 
ENDBRANCH  13  14
ENDBRANCH  12  13
ENDBRANCH   3  12
TORSDOF 5
ENDMDL
