MODEL 1
REMARK VINA RESULT:       8.9      0.000      0.000
REMARK  8 active torsions:
REMARK  status: ('A' for Active; 'I' for Inactive)
REMARK    1  A    between atoms: C_8  and  N_1 
REMARK    2  A    between atoms: C_7  and  N_3 
REMARK    3  A    between atoms: C_11  and  C_7 
REMARK    4  A    between atoms: C_20  and  C_8 
REMARK    5  A    between atoms: C_9  and  C_13 
REMARK       I    between atoms: N_16  and  C_9 
REMARK    6  A    between atoms: C_24  and  N_16 
REMARK    7  A    between atoms: C_27  and  C_24 
REMARK    8  A    between atoms: C_25  and  C_27 
ROOT
ATOM      1  N   UNL d   1      57.743  -8.403  29.142  0.00  0.00    -0.226 N 
ATOM      2  C   UNL d   1      58.405  -8.875  29.281  0.00  0.00     0.342 A 
ATOM      3  N   UNL d   1      58.441  -9.346  29.955  0.00  0.00    -0.259 N 
ATOM      4  C   UNL d   1      57.110  -8.398  29.676  0.00  0.00     0.270 A 
ATOM      5  C   UNL d   1      57.154  -8.873  30.351  0.00  0.00     0.073 A 
ATOM      6  C   UNL d   1      57.816  -9.345  30.490  0.00  0.00     0.073 A 
ATOM      7  O   UNL d   1      59.040  -8.874  28.736  0.00  0.00    -0.245 OA
ATOM      8  O   UNL d   1      56.454  -7.931  29.538  0.00  0.00    -0.266 OA
ATOM      9  C   UNL d   1      56.521  -8.868  30.885  0.00  0.00     0.006 A 
ATOM     10  C   UNL d   1      57.852  -9.816  31.165  0.00  0.00     0.018 A 
ATOM     11  C   UNL d   1      56.563  -9.345  31.565  0.00  0.00     0.000 A 
ATOM     12  C   UNL d   1      57.225  -9.817  31.704  0.00  0.00     0.002 A 
ENDROOT
BRANCH   1  13
ATOM     13  C   UNL d   1      57.705  -7.923  28.455  0.00  0.00     0.087 C 
BRANCH  13  14
ATOM     14  C   UNL d   1      58.010  -7.165  28.467  0.00  0.00     0.018 A 
ATOM     15  C   UNL d   1      58.826  -7.050  28.470  0.00  0.00     0.002 A 
ATOM     16  C   UNL d   1      59.137  -6.277  28.482  0.00  0.00     0.005 A 
ATOM     17  C   UNL d   1      58.630  -5.628  28.491  0.00  0.00     0.058 A 
ATOM     18  C   UNL d   1      57.808  -5.742  28.488  0.00  0.00     0.005 A 
ATOM     19  C   UNL d   1      57.496  -6.514  28.476  0.00  0.00     0.002 A 
BRANCH  17  20
ATOM     20  C   UNL d   1      58.939  -4.863  28.503  0.00  0.00     0.279 C 
ATOM     21  O   UNL d   1      59.752  -4.746  28.455  0.00  0.00    -0.265 OA
ATOM     22  N   UNL d   1      58.434  -4.216  28.562  0.00  0.00    -0.206 NA
BRANCH  22  23
ATOM     23  C   UNL d   1      58.742  -3.451  28.573  0.00  0.00     0.102 C 
BRANCH  23  24
ATOM     24  C   UNL d   1      58.268  -2.818  28.805  0.00  0.00     0.021 C 
BRANCH  24  25
ATOM     25  C   UNL d   1      58.611  -2.082  28.974  0.00  0.00     0.002 A 
ATOM     26  C   UNL d   1      59.197  -1.776  28.473  0.00  0.00     0.000 A 
ATOM     27  C   UNL d   1      59.542  -1.036  28.643  0.00  0.00     0.000 A 
ATOM     28  C   UNL d   1      59.296  -0.611  29.312  0.00  0.00     0.000 A 
ATOM     29  C   UNL d   1      58.713  -0.917  29.806  0.00  0.00     0.000 A 
ATOM     30  C   UNL d   1      58.369  -1.657  29.636  0.00  0.00     0.000 A 
ENDBRANCH  24  25
ENDBRANCH  23  24
ENDBRANCH  22  23
ENDBRANCH  17  20
ENDBRANCH  13  14
ENDBRANCH   1  13
BRANCH   3  31
ATOM     31  C   UNL d   1      59.104  -9.817  30.095  0.00  0.00     0.084 C 
BRANCH  31  32
ATOM     32  C   UNL d   1      59.775  -9.494  30.447  0.00  0.00     0.018 A 
ATOM     33  C   UNL d   1      60.463  -9.375  29.999  0.00  0.00     0.001 A 
ATOM     34  C   UNL d   1      60.481  -9.583  29.185  0.00  0.00     0.000 C 
ATOM     35  C   UNL d   1      61.133  -9.052  30.350  0.00  0.00     0.000 A 
ATOM     36  C   UNL d   1      61.119  -8.846  31.148  0.00  0.00     0.000 A 
ATOM     37  C   UNL d   1      60.431  -8.964  31.596  0.00  0.00     0.000 A 
ATOM     38  C   UNL d   1      59.760  -9.288  31.244  0.00  0.00     0.002 A 
ENDBRANCH  31  32
ENDBRANCH   3  31
TORSDOF 8
ENDMDL
MODEL 2
REMARK VINA RESULT:      10.4      2.749      7.557
REMARK  8 active torsions:
REMARK  status: ('A' for Active; 'I' for Inactive)
REMARK    1  A    between atoms: C_8  and  N_1 
REMARK    2  A    between atoms: C_7  and  N_3 
REMARK    3  A    between atoms: C_11  and  C_7 
REMARK    4  A    between atoms: C_20  and  C_8 
REMARK    5  A    between atoms: C_9  and  C_13 
REMARK       I    between atoms: N_16  and  C_9 
REMARK    6  A    between atoms: C_24  and  N_16 
REMARK    7  A    between atoms: C_27  and  C_24 
REMARK    8  A    between atoms: C_25  and  C_27 
ROOT
ATOM      1  N   UNL d   1      58.624  -0.892  30.222  0.00  0.00    -0.226 N 
ATOM      2  C   UNL d   1      58.056  -1.188  30.742  0.00  0.00     0.342 A 
ATOM      3  N   UNL d   1      58.050  -0.944  31.529  0.00  0.00    -0.259 N 
ATOM      4  C   UNL d   1      59.191  -0.348  30.484  0.00  0.00     0.270 A 
ATOM      5  C   UNL d   1      59.179  -0.108  31.275  0.00  0.00     0.073 A 
ATOM      6  C   UNL d   1      58.611  -0.405  31.795  0.00  0.00     0.073 A 
ATOM      7  O   UNL d   1      57.486  -1.736  30.469  0.00  0.00    -0.245 OA
ATOM      8  O   UNL d   1      59.754  -0.055  29.969  0.00  0.00    -0.266 OA
ATOM      9  C   UNL d   1      59.746   0.435  31.537  0.00  0.00     0.006 A 
ATOM     10  C   UNL d   1      58.605  -0.161  32.582  0.00  0.00     0.018 A 
ATOM     11  C   UNL d   1      59.736   0.678  32.332  0.00  0.00     0.000 A 
ATOM     12  C   UNL d   1      59.168   0.382  32.852  0.00  0.00     0.002 A 
ENDROOT
BRANCH   1  13
ATOM     13  C   UNL d   1      58.631  -1.139  29.421  0.00  0.00     0.087 C 
BRANCH  13  14
ATOM     14  C   UNL d   1      58.813  -1.913  29.233  0.00  0.00     0.018 A 
ATOM     15  C   UNL d   1      59.548  -2.224  29.434  0.00  0.00     0.002 A 
ATOM     16  C   UNL d   1      59.733  -3.013  29.242  0.00  0.00     0.005 A 
ATOM     17  C   UNL d   1      59.181  -3.483  28.849  0.00  0.00     0.058 A 
ATOM     18  C   UNL d   1      58.440  -3.172  28.645  0.00  0.00     0.005 A 
ATOM     19  C   UNL d   1      58.254  -2.382  28.838  0.00  0.00     0.002 A 
BRANCH  17  20
ATOM     20  C   UNL d   1      59.365  -4.265  28.659  0.00  0.00     0.279 C 
ATOM     21  O   UNL d   1      58.764  -4.793  28.462  0.00  0.00    -0.265 OA
ATOM     22  N   UNL d   1      60.147  -4.517  28.665  0.00  0.00    -0.206 NA
BRANCH  22  23
ATOM     23  C   UNL d   1      60.331  -5.299  28.475  0.00  0.00     0.102 C 
BRANCH  23  24
ATOM     24  C   UNL d   1      60.970  -5.673  28.836  0.00  0.00     0.021 C 
BRANCH  24  25
ATOM     25  C   UNL d   1      60.923  -6.477  29.034  0.00  0.00     0.002 A 
ATOM     26  C   UNL d   1      61.133  -6.726  29.797  0.00  0.00     0.000 A 
ATOM     27  C   UNL d   1      61.086  -7.535  29.996  0.00  0.00     0.000 A 
ATOM     28  C   UNL d   1      60.829  -8.084  29.430  0.00  0.00     0.000 A 
ATOM     29  C   UNL d   1      60.622  -7.833  28.673  0.00  0.00     0.000 A 
ATOM     30  C   UNL d   1      60.669  -7.025  28.474  0.00  0.00     0.000 A 
ENDBRANCH  24  25
ENDBRANCH  23  24
ENDBRANCH  22  23
ENDBRANCH  17  20
ENDBRANCH  13  14
ENDBRANCH   1  13
BRANCH   3  31
ATOM     31  C   UNL d   1      57.482  -1.240  32.049  0.00  0.00     0.084 C 
BRANCH  31  32
ATOM     32  C   UNL d   1      56.837  -0.776  32.264  0.00  0.00     0.018 A 
ATOM     33  C   UNL d   1      56.362  -0.996  32.906  0.00  0.00     0.001 A 
ATOM     34  C   UNL d   1      56.534  -1.693  33.343  0.00  0.00     0.000 C 
ATOM     35  C   UNL d   1      55.717  -0.532  33.122  0.00  0.00     0.000 A 
ATOM     36  C   UNL d   1      55.544   0.152  32.697  0.00  0.00     0.000 A 
ATOM     37  C   UNL d   1      56.019   0.373  32.054  0.00  0.00     0.000 A 
ATOM     38  C   UNL d   1      56.665  -0.092  31.839  0.00  0.00     0.002 A 
ENDBRANCH  31  32
ENDBRANCH   3  31
TORSDOF 8
ENDMDL
