MODEL 1
REMARK VINA RESULT:      10.0      0.000      0.000
REMARK  1 active torsions:
REMARK  status: ('A' for Active; 'I' for Inactive)
REMARK    1  A    between atoms: N_4  and  C_1 
ROOT
ATOM      1  C   UNL d   1      43.936 -15.378  36.740  0.00  0.00     0.735 A 
ATOM      2  N   UNL d   1      44.591 -15.722  36.346  0.00  0.00    -0.059 NA
ATOM      3  N   UNL d   1      44.263 -14.768  37.222  0.00  0.00    -0.059 NA
ATOM      4  C   UNL d   1      45.267 -15.343  36.576  0.00  0.00     0.118 A 
ATOM      5  C   UNL d   1      45.065 -14.754  37.118  0.00  0.00     0.118 A 
ATOM      6  C   UNL d   1      46.065 -15.467  36.352  0.00  0.00     0.021 A 
ATOM      7  C   UNL d   1      45.658 -14.281  37.442  0.00  0.00     0.021 A 
ATOM      8  C   UNL d   1      46.647 -14.977  36.693  0.00  0.00     0.002 A 
ATOM      9  C   UNL d   1      46.444 -14.387  37.235  0.00  0.00     0.002 A 
ENDROOT
BRANCH   1  10
ATOM     10  N   UNL d   1      43.162 -15.620  36.642  0.00  0.00    -0.133 N 
ATOM     11  C   UNL d   1      42.815 -16.276  36.356  0.00  0.00     0.125 A 
ATOM     12  C   UNL d   1      41.999 -16.357  36.330  0.00  0.00     0.142 A 
ATOM     13  O   UNL d   1      41.508 -15.759  36.602  0.00  0.00    -0.300 OA
ATOM     14  C   UNL d   1      41.882 -15.045  36.914  0.00  0.00     0.142 A 
ATOM     15  C   UNL d   1      42.689 -14.995  36.926  0.00  0.00     0.125 A 
ENDBRANCH   1  10
TORSDOF 1
ENDMDL
MODEL 2
REMARK VINA RESULT:      10.5      0.251      1.158
REMARK  1 active torsions:
REMARK  status: ('A' for Active; 'I' for Inactive)
REMARK    1  A    between atoms: N_4  and  C_1 
ROOT
ATOM      1  C   UNL d   1      43.921 -15.355  36.712  0.00  0.00     0.735 A 
ATOM      2  N   UNL d   1      44.242 -14.735  37.177  0.00  0.00    -0.059 NA
ATOM      3  N   UNL d   1      44.587 -15.750  36.380  0.00  0.00    -0.059 NA
ATOM      4  C   UNL d   1      45.048 -14.757  37.127  0.00  0.00     0.118 A 
ATOM      5  C   UNL d   1      45.262 -15.384  36.634  0.00  0.00     0.118 A 
ATOM      6  C   UNL d   1      45.631 -14.269  37.480  0.00  0.00     0.021 A 
ATOM      7  C   UNL d   1      46.061 -15.530  36.489  0.00  0.00     0.021 A 
ATOM      8  C   UNL d   1      46.431 -14.436  37.317  0.00  0.00     0.002 A 
ATOM      9  C   UNL d   1      46.645 -15.063  36.824  0.00  0.00     0.002 A 
ENDROOT
BRANCH   1  10
ATOM     10  N   UNL d   1      43.121 -15.501  36.633  0.00  0.00    -0.133 N 
ATOM     11  C   UNL d   1      42.464 -15.055  36.683  0.00  0.00     0.125 A 
ATOM     12  C   UNL d   1      41.716 -15.374  36.571  0.00  0.00     0.142 A 
ATOM     13  O   UNL d   1      41.619 -16.170  36.402  0.00  0.00    -0.300 OA
ATOM     14  C   UNL d   1      42.331 -16.657  36.346  0.00  0.00     0.142 A 
ATOM     15  C   UNL d   1      43.054 -16.315  36.461  0.00  0.00     0.125 A 
ENDBRANCH   1  10
TORSDOF 1
ENDMDL
MODEL 3
REMARK VINA RESULT:      11.6      7.409      7.751
REMARK  1 active torsions:
REMARK  status: ('A' for Active; 'I' for Inactive)
REMARK    1  A    between atoms: N_4  and  C_1 
ROOT
ATOM      1  C   UNL d   1      46.506 -19.170  42.214  0.00  0.00     0.735 A 
ATOM      2  N   UNL d   1      46.506 -19.910  42.609  0.00  0.00    -0.059 NA
ATOM      3  N   UNL d   1      46.531 -18.593  42.828  0.00  0.00    -0.059 NA
ATOM      4  C   UNL d   1      46.529 -19.785  43.407  0.00  0.00     0.118 A 
ATOM      5  C   UNL d   1      46.544 -18.970  43.543  0.00  0.00     0.118 A 
ATOM      6  C   UNL d   1      46.537 -20.328  44.045  0.00  0.00     0.021 A 
ATOM      7  C   UNL d   1      46.568 -18.690  44.318  0.00  0.00     0.021 A 
ATOM      8  C   UNL d   1      46.562 -20.021  44.819  0.00  0.00     0.002 A 
ATOM      9  C   UNL d   1      46.577 -19.206  44.955  0.00  0.00     0.002 A 
ENDROOT
BRANCH   1  10
ATOM     10  N   UNL d   1      46.487 -19.084  41.403  0.00  0.00    -0.133 N 
ATOM     11  C   UNL d   1      46.370 -18.470  40.909  0.00  0.00     0.125 A 
ATOM     12  C   UNL d   1      46.383 -18.563  40.094  0.00  0.00     0.142 A 
ATOM     13  O   UNL d   1      46.519 -19.298  39.756  0.00  0.00    -0.300 OA
ATOM     14  C   UNL d   1      46.646 -19.966  40.289  0.00  0.00     0.142 A 
ATOM     15  C   UNL d   1      46.627 -19.843  41.088  0.00  0.00     0.125 A 
ENDBRANCH   1  10
TORSDOF 1
ENDMDL
