MODEL 1
REMARK VINA RESULT:      36.9      0.000      0.000
REMARK  2 active torsions:
REMARK  status: ('A' for Active; 'I' for Inactive)
REMARK    1  A    between atoms: C_2  and  S_1 
REMARK    2  A    between atoms: N_3  and  S_1 
ROOT
ATOM      1  S   UNL d   1     -51.189  24.563  33.422  0.00  0.00     0.272 S 
ATOM      2  O   UNL d   1     -50.919  25.329  33.562  0.00  0.00    -0.200 OA
ATOM      3  O   UNL d   1     -50.644  23.950  33.311  0.00  0.00    -0.200 OA
ENDROOT
BRANCH   1   4
ATOM      4  C   UNL d   1     -50.379  24.715  33.451  0.00  0.00     0.115 A 
ATOM      5  C   UNL d   1     -50.112  25.485  33.395  0.00  0.00     0.071 A 
ATOM      6  C   UNL d   1     -49.308  25.644  33.423  0.00  0.00     0.024 A 
ATOM      7 CL   UNL d   1     -50.636  26.117  33.310  0.00  0.00    -0.082 Cl
ATOM      8  C   UNL d   1     -48.766  25.023  33.509  0.00  0.00     0.059 A 
ATOM      9  C   UNL d   1     -49.045  24.249  33.564  0.00  0.00     0.011 A 
ATOM     10 CL   UNL d   1     -47.957  25.181  33.537  0.00  0.00    -0.082 Cl
ATOM     11  C   UNL d   1     -49.849  24.092  33.536  0.00  0.00     0.015 A 
ATOM     12  C   UNL d   1     -48.502  23.632  33.649  0.00  0.00     0.001 C 
ENDBRANCH   1   4
BRANCH   1  13
ATOM     13  N   UNL d   1     -51.997  24.407  33.392  0.00  0.00    -0.229 N 
ATOM     14  C   UNL d   1     -52.177  23.573  33.420  0.00  0.00     0.092 A 
ATOM     15  C   UNL d   1     -52.787  23.190  33.409  0.00  0.00     0.020 A 
ATOM     16  C   UNL d   1     -53.561  23.495  33.361  0.00  0.00     0.002 A 
ATOM     17  C   UNL d   1     -53.782  24.341  33.314  0.00  0.00     0.002 A 
ATOM     18  C   UNL d   1     -53.250  25.048  33.308  0.00  0.00     0.020 A 
ATOM     19  C   UNL d   1     -52.406  25.028  33.347  0.00  0.00     0.092 A 
ENDBRANCH   1  13
TORSDOF 2
ENDMDL
