MODEL 1
REMARK VINA RESULT:      38.3      0.000      0.000
REMARK  5 active torsions:
REMARK  status: ('A' for Active; 'I' for Inactive)
REMARK    1  A    between atoms: C_6  and  C_1 
REMARK    2  A    between atoms: C_11  and  N_3 
REMARK    3  A    between atoms: C_20  and  C_11 
REMARK    4  A    between atoms: C_13  and  O_19 
REMARK    5  A    between atoms: O_19  and  C_20 
ROOT
ATOM      1  C   UNL d   1      13.908  12.320  -2.514  0.00  0.00     0.171 A 
ATOM      2  N   UNL d   1      14.210  11.779  -1.966  0.00  0.00    -0.225 NA
ATOM      3  N   UNL d   1      14.016  13.086  -2.209  0.00  0.00    -0.286 N 
ATOM      4  C   UNL d   1      14.385  13.018  -1.471  0.00  0.00     0.083 A 
ATOM      5  C   UNL d   1      14.506  12.210  -1.320  0.00  0.00     0.099 A 
ATOM      6  C   UNL d   1      14.634  13.581  -0.907  0.00  0.00     0.019 A 
ATOM      7  C   UNL d   1      14.870  11.969  -0.613  0.00  0.00     0.021 A 
ATOM      8  C   UNL d   1      14.994  13.338  -0.207  0.00  0.00     0.002 A 
ATOM      9  C   UNL d   1      15.113  12.530  -0.060  0.00  0.00     0.002 A 
ENDROOT
BRANCH   3  10
ATOM     10  C   UNL d   1      13.739  13.689  -2.698  0.00  0.00     0.108 C 
BRANCH  10  11
ATOM     11  C   UNL d   1      14.062  14.445  -2.641  0.00  0.00     0.142 C 
BRANCH  11  12
ATOM     12  O   UNL d   1      13.743  15.062  -3.085  0.00  0.00    -0.304 OA
BRANCH  12  13
ATOM     13  C   UNL d   1      14.242  15.610  -3.444  0.00  0.00     0.100 A 
ATOM     14  C   UNL d   1      14.298  15.626  -4.267  0.00  0.00     0.026 A 
ATOM     15  C   UNL d   1      14.798  16.173  -4.632  0.00  0.00     0.013 A 
ATOM     16  C   UNL d   1      15.238  16.702  -4.167  0.00  0.00     0.058 A 
ATOM     17  C   UNL d   1      15.177  16.679  -3.346  0.00  0.00     0.013 A 
ATOM     18 CL   UNL d   1      15.736  17.247  -4.529  0.00  0.00    -0.082 Cl
ATOM     19  C   UNL d   1      14.677  16.131  -2.986  0.00  0.00     0.026 A 
ENDBRANCH  12  13
ENDBRANCH  11  12
ENDBRANCH  10  11
ENDBRANCH   3  10
BRANCH   1  20
ATOM     20  C   UNL d   1      13.559  12.132  -3.238  0.00  0.00     0.134 A 
ATOM     21  O   UNL d   1      12.903  11.925  -3.451  0.00  0.00    -0.302 OA
ATOM     22  C   UNL d   1      12.770  11.801  -4.145  0.00  0.00     0.123 A 
ATOM     23  C   UNL d   1      13.296  11.882  -4.637  0.00  0.00     0.029 A 
ATOM     24  C   UNL d   1      13.948  12.088  -4.422  0.00  0.00     0.030 A 
ENDBRANCH   1  20
TORSDOF 5
ENDMDL
