MODEL 1
REMARK VINA RESULT:       9.1      0.000      0.000
REMARK  7 active torsions:
REMARK  status: ('A' for Active; 'I' for Inactive)
REMARK    1  A    between atoms: C_11  and  C_3 
REMARK    2  A    between atoms: C_10  and  C_4 
REMARK    3  A    between atoms: O_16  and  C_10 
REMARK    4  A    between atoms: N_14  and  C_11 
REMARK    5  A    between atoms: C_21  and  N_14 
REMARK    6  A    between atoms: C_23  and  O_16 
REMARK    7  A    between atoms: C_20  and  C_21 
ROOT
ATOM      1  C   UNL d   1     -41.523-121.653 -52.929  0.00  0.00     0.035 A 
ATOM      2  C   UNL d   1     -41.569-121.670 -53.760  0.00  0.00     0.100 A 
ATOM      3  C   UNL d   1     -41.455-122.362 -52.518  0.00  0.00     0.060 A 
ATOM      4  C   UNL d   1     -41.557-120.872 -52.671  0.00  0.00     0.088 A 
ATOM      5  O   UNL d   1     -41.634-120.864 -54.017  0.00  0.00    -0.307 OA
ATOM      6  C   UNL d   1     -41.625-120.406 -53.359  0.00  0.00     0.105 A 
ATOM      7  C   UNL d   1     -41.434-123.086 -52.940  0.00  0.00     0.197 A 
ATOM      8  C   UNL d   1     -41.548-122.386 -54.192  0.00  0.00     0.026 A 
ATOM      9  C   UNL d   1     -41.481-123.096 -53.781  0.00  0.00     0.041 A 
ATOM     10  O   UNL d   1     -41.365-123.812 -52.520  0.00  0.00    -0.286 OA
ATOM     11  C   UNL d   1     -41.678-119.565 -53.366  0.00  0.00     0.027 C 
ATOM     12  C   UNL d   1     -41.594-122.393 -55.007  0.00  0.00     0.002 A 
ATOM     13  C   UNL d   1     -41.459-123.810 -54.187  0.00  0.00     0.003 A 
ATOM     14  C   UNL d   1     -41.506-123.817 -55.024  0.00  0.00     0.000 A 
ATOM     15  C   UNL d   1     -41.573-123.107 -55.435  0.00  0.00     0.000 A 
ENDROOT
BRANCH   3  16
ATOM     16  C   UNL d   1     -41.410-122.320 -51.668  0.00  0.00     0.102 C 
BRANCH  16  17
ATOM     17  N   UNL d   1     -41.844-122.909 -51.205  0.00  0.00    -0.240 NA
BRANCH  17  18
ATOM     18  C   UNL d   1     -41.598-123.065 -50.422  0.00  0.00     0.124 C 
BRANCH  18  19
ATOM     19  C   UNL d   1     -42.161-123.093 -49.823  0.00  0.00     0.119 A 
ATOM     20  O   UNL d   1     -42.733-123.717 -49.795  0.00  0.00    -0.304 OA
ATOM     21  C   UNL d   1     -43.206-123.589 -49.142  0.00  0.00     0.123 A 
ATOM     22  C   UNL d   1     -42.949-122.920 -48.778  0.00  0.00     0.029 A 
ATOM     23  C   UNL d   1     -42.315-122.606 -49.178  0.00  0.00     0.028 A 
ENDBRANCH  18  19
ENDBRANCH  17  18
ENDBRANCH  16  17
ENDBRANCH   3  16
BRANCH   4  24
ATOM     24  C   UNL d   1     -41.531-120.580 -51.884  0.00  0.00     0.302 C 
ATOM     25  O   UNL d   1     -41.924-121.004 -51.258  0.00  0.00    -0.259 OA
BRANCH  24  26
ATOM     26  O   UNL d   1     -41.128-119.882 -51.699  0.00  0.00    -0.271 OA
BRANCH  26  27
ATOM     27  C   UNL d   1     -41.503-119.300 -51.255  0.00  0.00     0.126 C 
ATOM     28  C   UNL d   1     -41.124-118.602 -51.098  0.00  0.00     0.029 C 
ENDBRANCH  26  27
ENDBRANCH  24  26
ENDBRANCH   4  24
TORSDOF 7
ENDMDL
MODEL 2
REMARK VINA RESULT:      12.0      1.362      4.191
REMARK  7 active torsions:
REMARK  status: ('A' for Active; 'I' for Inactive)
REMARK    1  A    between atoms: C_11  and  C_3 
REMARK    2  A    between atoms: C_10  and  C_4 
REMARK    3  A    between atoms: O_16  and  C_10 
REMARK    4  A    between atoms: N_14  and  C_11 
REMARK    5  A    between atoms: C_21  and  N_14 
REMARK    6  A    between atoms: C_23  and  O_16 
REMARK    7  A    between atoms: C_20  and  C_21 
ROOT
ATOM      1  C   UNL d   1     -41.495-122.369 -53.177  0.00  0.00     0.035 A 
ATOM      2  C   UNL d   1     -41.498-123.081 -52.745  0.00  0.00     0.100 A 
ATOM      3  C   UNL d   1     -41.374-121.660 -52.777  0.00  0.00     0.060 A 
ATOM      4  C   UNL d   1     -41.623-122.533 -53.972  0.00  0.00     0.088 A 
ATOM      5  O   UNL d   1     -41.633-123.705 -53.304  0.00  0.00    -0.307 OA
ATOM      6  C   UNL d   1     -41.705-123.362 -54.025  0.00  0.00     0.105 A 
ATOM      7  C   UNL d   1     -41.256-121.666 -51.948  0.00  0.00     0.197 A 
ATOM      8  C   UNL d   1     -41.381-123.099 -51.917  0.00  0.00     0.026 A 
ATOM      9  C   UNL d   1     -41.260-122.390 -51.517  0.00  0.00     0.041 A 
ATOM     10  O   UNL d   1     -41.133-120.940 -51.538  0.00  0.00    -0.286 OA
ATOM     11  C   UNL d   1     -41.845-123.786 -54.740  0.00  0.00     0.027 C 
ATOM     12  C   UNL d   1     -41.386-123.801 -51.501  0.00  0.00     0.002 A 
ATOM     13  C   UNL d   1     -41.144-122.386 -50.703  0.00  0.00     0.003 A 
ATOM     14  C   UNL d   1     -41.149-123.108 -50.277  0.00  0.00     0.000 A 
ATOM     15  C   UNL d   1     -41.270-123.817 -50.677  0.00  0.00     0.000 A 
ENDROOT
BRANCH   3  16
ATOM     16  C   UNL d   1     -41.375-120.945 -53.240  0.00  0.00     0.102 C 
BRANCH  16  17
ATOM     17  N   UNL d   1     -41.684-120.222 -52.877  0.00  0.00    -0.240 NA
BRANCH  17  18
ATOM     18  C   UNL d   1     -41.870-119.573 -53.368  0.00  0.00     0.124 C 
BRANCH  18  19
ATOM     19  C   UNL d   1     -41.607-118.822 -53.158  0.00  0.00     0.119 A 
ATOM     20  O   UNL d   1     -41.646-118.180 -53.709  0.00  0.00    -0.304 OA
ATOM     21  C   UNL d   1     -41.347-117.518 -53.338  0.00  0.00     0.123 A 
ATOM     22  C   UNL d   1     -41.131-117.728 -52.593  0.00  0.00     0.029 A 
ATOM     23  C   UNL d   1     -41.282-118.517 -52.467  0.00  0.00     0.028 A 
ENDBRANCH  18  19
ENDBRANCH  17  18
ENDBRANCH  16  17
ENDBRANCH   3  16
BRANCH   4  24
ATOM     24  C   UNL d   1     -41.666-121.996 -54.617  0.00  0.00     0.302 C 
ATOM     25  O   UNL d   1     -42.231-121.359 -54.604  0.00  0.00    -0.259 OA
BRANCH  24  26
ATOM     26  O   UNL d   1     -41.168-122.073 -55.273  0.00  0.00    -0.271 OA
BRANCH  26  27
ATOM     27  C   UNL d   1     -41.475-121.986 -56.031  0.00  0.00     0.126 C 
ATOM     28  C   UNL d   1     -41.488-121.256 -56.382  0.00  0.00     0.029 C 
ENDBRANCH  26  27
ENDBRANCH  24  26
ENDBRANCH   4  24
TORSDOF 7
ENDMDL
