MODEL 1
REMARK VINA RESULT:      -6.8      0.000      0.000
REMARK  4 active torsions:
REMARK  status: ('A' for Active; 'I' for Inactive)
REMARK    1  A    between atoms: C_2  and  N_1 
REMARK    2  A    between atoms: C_9  and  C_10 
REMARK       I    between atoms: N_11  and  C_9 
REMARK    3  A    between atoms: C_21  and  N_11 
REMARK    4  A    between atoms: C_20  and  C_21 
ROOT
ATOM      1  C   UNL d   1     -41.405-122.069 -52.173  0.00  0.00     0.279 C 
ATOM      2  N   UNL d   1     -41.569-122.502 -51.494  0.00  0.00    -0.206 NA
ATOM      3  O   UNL d   1     -41.191-121.276 -52.115  0.00  0.00    -0.265 OA
ENDROOT
BRANCH   1   4
ATOM      4  C   UNL d   1     -41.455-122.429 -52.918  0.00  0.00     0.059 A 
ATOM      5  C   UNL d   1     -41.790-122.008 -53.551  0.00  0.00     0.028 A 
ATOM      6  C   UNL d   1     -41.834-122.377 -54.288  0.00  0.00     0.127 A 
ATOM      7  C   UNL d   1     -41.549-123.153 -54.395  0.00  0.00     0.022 A 
ATOM      8  C   UNL d   1     -41.220-123.557 -53.758  0.00  0.00     0.002 A 
ATOM      9  C   UNL d   1     -41.594-123.517 -55.127  0.00  0.00     0.002 C 
ATOM     10  C   UNL d   1     -41.170-123.200 -53.016  0.00  0.00     0.005 A 
BRANCH   6  11
ATOM     11  N   UNL d   1     -42.165-121.971 -54.929  0.00  0.00    -0.114 N 
ATOM     12  O   UNL d   1     -41.680-121.599 -55.482  0.00  0.00    -0.532 OA
ATOM     13  O   UNL d   1     -42.983-121.933 -55.023  0.00  0.00    -0.532 OA
ENDBRANCH   6  11
ENDBRANCH   1   4
BRANCH   2  14
ATOM     14  C   UNL d   1     -41.521-122.149 -50.758  0.00  0.00     0.102 C 
BRANCH  14  15
ATOM     15  C   UNL d   1     -41.885-122.500 -50.108  0.00  0.00     0.019 A 
ATOM     16  C   UNL d   1     -41.450-122.641 -49.421  0.00  0.00     0.003 A 
ATOM     17  C   UNL d   1     -41.810-122.993 -48.763  0.00  0.00     0.019 A 
ATOM     18  C   UNL d   1     -41.529-123.197 -48.024  0.00  0.00     0.021 A 
ATOM     19  C   UNL d   1     -42.606-123.200 -48.803  0.00  0.00     0.081 A 
ATOM     20  C   UNL d   1     -42.150-123.533 -47.598  0.00  0.00     0.082 A 
ATOM     21  C   UNL d   1     -42.111-123.817 -46.826  0.00  0.00     0.021 C 
ATOM     22  N   UNL d   1     -42.818-123.536 -48.080  0.00  0.00    -0.246 NA
ATOM     23  C   UNL d   1     -43.041-123.061 -49.486  0.00  0.00     0.019 A 
ATOM     24  C   UNL d   1     -42.680-122.710 -50.140  0.00  0.00     0.003 A 
ENDBRANCH  14  15
ENDBRANCH   2  14
TORSDOF 4
ENDMDL
MODEL 2
REMARK VINA RESULT:      -6.0      1.638      5.491
REMARK  4 active torsions:
REMARK  status: ('A' for Active; 'I' for Inactive)
REMARK    1  A    between atoms: C_2  and  N_1 
REMARK    2  A    between atoms: C_9  and  C_10 
REMARK       I    between atoms: N_11  and  C_9 
REMARK    3  A    between atoms: C_21  and  N_11 
REMARK    4  A    between atoms: C_20  and  C_21 
ROOT
ATOM      1  C   UNL d   1     -41.705-122.251 -50.590  0.00  0.00     0.279 C 
ATOM      2  N   UNL d   1     -41.573-122.632 -51.306  0.00  0.00    -0.206 NA
ATOM      3  O   UNL d   1     -41.446-121.477 -50.481  0.00  0.00    -0.265 OA
ENDROOT
BRANCH   1   4
ATOM      4  C   UNL d   1     -42.100-122.644 -49.977  0.00  0.00     0.059 A 
ATOM      5  C   UNL d   1     -41.728-122.719 -49.237  0.00  0.00     0.028 A 
ATOM      6  C   UNL d   1     -42.131-123.113 -48.634  0.00  0.00     0.127 A 
ATOM      7  C   UNL d   1     -42.892-123.428 -48.763  0.00  0.00     0.022 A 
ATOM      8  C   UNL d   1     -43.247-123.345 -49.501  0.00  0.00     0.002 A 
ATOM      9  C   UNL d   1     -43.289-123.817 -48.162  0.00  0.00     0.002 C 
ATOM     10  C   UNL d   1     -42.855-122.954 -50.112  0.00  0.00     0.005 A 
BRANCH   6  11
ATOM     11  N   UNL d   1     -41.775-123.196 -47.891  0.00  0.00    -0.114 N 
ATOM     12  O   UNL d   1     -42.066-122.781 -47.241  0.00  0.00    -0.532 OA
ATOM     13  O   UNL d   1     -41.125-123.694 -47.792  0.00  0.00    -0.532 OA
ENDBRANCH   6  11
ENDBRANCH   1   4
BRANCH   2  14
ATOM     14  C   UNL d   1     -41.184-122.247 -51.913  0.00  0.00     0.102 C 
BRANCH  14  15
ATOM     15  C   UNL d   1     -41.334-122.454 -52.696  0.00  0.00     0.019 A 
ATOM     16  C   UNL d   1     -41.697-121.912 -53.201  0.00  0.00     0.003 A 
ATOM     17  C   UNL d   1     -41.850-122.114 -53.990  0.00  0.00     0.019 A 
ATOM     18  C   UNL d   1     -42.193-121.704 -54.608  0.00  0.00     0.021 A 
ATOM     19  C   UNL d   1     -41.636-122.860 -54.263  0.00  0.00     0.081 A 
ATOM     20  C   UNL d   1     -42.196-122.194 -55.270  0.00  0.00     0.082 A 
ATOM     21  C   UNL d   1     -42.491-122.002 -56.015  0.00  0.00     0.021 C 
ATOM     22  N   UNL d   1     -41.850-122.912 -55.058  0.00  0.00    -0.246 NA
ATOM     23  C   UNL d   1     -41.275-123.402 -53.762  0.00  0.00     0.019 A 
ATOM     24  C   UNL d   1     -41.123-123.199 -52.976  0.00  0.00     0.003 A 
ENDBRANCH  14  15
ENDBRANCH   2  14
TORSDOF 4
ENDMDL
