MODEL 1
REMARK VINA RESULT:      -2.3      0.000      0.000
REMARK  6 active torsions:
REMARK  status: ('A' for Active; 'I' for Inactive)
REMARK    1  A    between atoms: C_5  and  C_1 
REMARK       I    between atoms: N_10  and  C_5 
REMARK    2  A    between atoms: C_9  and  C_6 
REMARK    3  A    between atoms: C_17  and  N_7 
REMARK    4  A    between atoms: O_23  and  C_8 
REMARK    5  A    between atoms: O_25  and  C_12 
REMARK    6  A    between atoms: C_18  and  C_17 
ROOT
ATOM      1  C   UNL d   1      33.153  21.549 -21.203  0.00  0.00     0.316 C 
ATOM      2  N   UNL d   1      33.239  19.810 -22.360  0.00  0.00    -0.143 NA
ATOM      3  N   UNL d   1      33.155  20.366 -21.282  0.00  0.00    -0.104 NA
ATOM      4  O   UNL d   1      33.209  22.002 -21.881  0.00  0.00    -0.262 OA
ENDROOT
BRANCH   1   5
ATOM      5  C   UNL d   1      33.095  21.908 -20.465  0.00  0.00     0.164 A 
ATOM      6  C   UNL d   1      33.241  21.484 -19.787  0.00  0.00     0.047 A 
ATOM      7  C   UNL d   1      32.976  22.637 -19.006  0.00  0.00     0.105 A 
ATOM      8  N   UNL d   1      32.829  23.064 -19.694  0.00  0.00    -0.148 NA
ATOM      9  N   UNL d   1      32.887  22.706 -20.417  0.00  0.00    -0.143 NA
BRANCH   7  10
ATOM     10  C   UNL d   1      32.970  22.811 -18.204  0.00  0.00     0.019 A 
ATOM     11  C   UNL d   1      33.241  23.525 -17.934  0.00  0.00     0.002 A 
ATOM     12  C   UNL d   1      33.236  23.701 -17.137  0.00  0.00     0.011 A 
ATOM     13  C   UNL d   1      32.953  23.144 -16.608  0.00  0.00     0.058 A 
ATOM     14  C   UNL d   1      32.679  22.424 -16.871  0.00  0.00     0.011 A 
ATOM     15 CL   UNL d   1      32.945  23.314 -15.804  0.00  0.00    -0.082 Cl
ATOM     16  C   UNL d   1      32.685  22.250 -17.672  0.00  0.00     0.002 A 
ENDBRANCH   7  10
ENDBRANCH   1   5
BRANCH   2  17
ATOM     17  C   UNL d   1      33.240  18.968 -22.414  0.00  0.00     0.122 C 
BRANCH  17  18
ATOM     18  C   UNL d   1      32.743  18.551 -23.023  0.00  0.00     0.023 A 
ATOM     19  C   UNL d   1      32.710  17.652 -23.029  0.00  0.00     0.028 A 
ATOM     20  C   UNL d   1      32.207  17.234 -23.647  0.00  0.00     0.116 A 
ATOM     21  C   UNL d   1      31.740  17.708 -24.253  0.00  0.00     0.116 A 
ATOM     22  C   UNL d   1      31.780  18.597 -24.238  0.00  0.00     0.026 A 
ATOM     23  C   UNL d   1      32.283  19.026 -23.622  0.00  0.00     0.004 A 
BRANCH  20  24
ATOM     24  O   UNL d   1      32.174  16.337 -23.653  0.00  0.00    -0.326 OA
ATOM     25  C   UNL d   1      32.883  15.865 -23.393  0.00  0.00     0.181 C 
ENDBRANCH  20  24
BRANCH  21  26
ATOM     26  O   UNL d   1      31.244  17.281 -24.861  0.00  0.00    -0.326 OA
ATOM     27  C   UNL d   1      30.426  17.584 -25.046  0.00  0.00     0.181 C 
ENDBRANCH  21  26
ENDBRANCH  17  18
ENDBRANCH   2  17
TORSDOF 6
ENDMDL
MODEL 2
REMARK VINA RESULT:      -2.1      1.436      2.235
REMARK  6 active torsions:
REMARK  status: ('A' for Active; 'I' for Inactive)
REMARK    1  A    between atoms: C_5  and  C_1 
REMARK       I    between atoms: N_10  and  C_5 
REMARK    2  A    between atoms: C_9  and  C_6 
REMARK    3  A    between atoms: C_17  and  N_7 
REMARK    4  A    between atoms: O_23  and  C_8 
REMARK    5  A    between atoms: O_25  and  C_12 
REMARK    6  A    between atoms: C_18  and  C_17 
ROOT
ATOM      1  C   UNL d   1      33.198  20.487 -22.961  0.00  0.00     0.316 C 
ATOM      2  N   UNL d   1      33.205  18.495 -23.597  0.00  0.00    -0.143 NA
ATOM      3  N   UNL d   1      33.170  19.328 -22.711  0.00  0.00    -0.104 NA
ATOM      4  O   UNL d   1      33.241  20.734 -23.739  0.00  0.00    -0.262 OA
ENDROOT
BRANCH   1   5
ATOM      5  C   UNL d   1      33.174  21.036 -22.349  0.00  0.00     0.164 A 
ATOM      6  C   UNL d   1      33.177  20.791 -21.575  0.00  0.00     0.047 A 
ATOM      7  C   UNL d   1      33.125  22.141 -21.144  0.00  0.00     0.105 A 
ATOM      8  N   UNL d   1      33.122  22.386 -21.930  0.00  0.00    -0.148 NA
ATOM      9  N   UNL d   1      33.146  21.842 -22.528  0.00  0.00    -0.143 NA
BRANCH   7  10
ATOM     10  C   UNL d   1      33.106  22.523 -20.419  0.00  0.00     0.019 A 
ATOM     11  C   UNL d   1      33.241  23.320 -20.367  0.00  0.00     0.002 A 
ATOM     12  C   UNL d   1      33.223  23.702 -19.647  0.00  0.00     0.011 A 
ATOM     13  C   UNL d   1      33.065  23.269 -18.970  0.00  0.00     0.058 A 
ATOM     14  C   UNL d   1      32.929  22.468 -19.013  0.00  0.00     0.011 A 
ATOM     15 CL   UNL d   1      33.045  23.648 -18.240  0.00  0.00    -0.082 Cl
ATOM     16  C   UNL d   1      32.948  22.087 -19.738  0.00  0.00     0.002 A 
ENDBRANCH   7  10
ENDBRANCH   1   5
BRANCH   2  17
ATOM     17  C   UNL d   1      33.185  17.671 -23.416  0.00  0.00     0.122 C 
BRANCH  17  18
ATOM     18  C   UNL d   1      32.454  17.188 -23.575  0.00  0.00     0.023 A 
ATOM     19  C   UNL d   1      31.910  17.416 -24.254  0.00  0.00     0.028 A 
ATOM     20  C   UNL d   1      31.172  16.926 -24.411  0.00  0.00     0.116 A 
ATOM     21  C   UNL d   1      30.978  16.215 -23.894  0.00  0.00     0.116 A 
ATOM     22  C   UNL d   1      31.522  15.998 -23.225  0.00  0.00     0.026 A 
ATOM     23  C   UNL d   1      32.266  16.484 -23.060  0.00  0.00     0.004 A 
BRANCH  20  24
ATOM     24  O   UNL d   1      30.629  17.154 -25.089  0.00  0.00    -0.326 OA
ATOM     25  C   UNL d   1      30.232  17.950 -25.091  0.00  0.00     0.181 C 
ENDBRANCH  20  24
BRANCH  21  26
ATOM     26  O   UNL d   1      30.242  15.736 -24.060  0.00  0.00    -0.326 OA
ATOM     27  C   UNL d   1      29.728  15.477 -23.379  0.00  0.00     0.181 C 
ENDBRANCH  21  26
ENDBRANCH  17  18
ENDBRANCH   2  17
TORSDOF 6
ENDMDL
MODEL 3
REMARK VINA RESULT:      -0.3      3.339      7.108
REMARK  6 active torsions:
REMARK  status: ('A' for Active; 'I' for Inactive)
REMARK    1  A    between atoms: C_5  and  C_1 
REMARK       I    between atoms: N_10  and  C_5 
REMARK    2  A    between atoms: C_9  and  C_6 
REMARK    3  A    between atoms: C_17  and  N_7 
REMARK    4  A    between atoms: O_23  and  C_8 
REMARK    5  A    between atoms: O_25  and  C_12 
REMARK    6  A    between atoms: C_18  and  C_17 
ROOT
ATOM      1  C   UNL d   1      32.479  18.570 -24.091  0.00  0.00     0.316 C 
ATOM      2  N   UNL d   1      33.233  20.511 -23.900  0.00  0.00    -0.143 NA
ATOM      3  N   UNL d   1      32.300  19.732 -23.936  0.00  0.00    -0.104 NA
ATOM      4  O   UNL d   1      33.240  18.285 -24.175  0.00  0.00    -0.262 OA
ENDROOT
BRANCH   1   5
ATOM      5  C   UNL d   1      31.836  18.058 -24.113  0.00  0.00     0.164 A 
ATOM      6  C   UNL d   1      31.137  18.258 -23.750  0.00  0.00     0.047 A 
ATOM      7  C   UNL d   1      30.566  17.028 -24.165  0.00  0.00     0.105 A 
ATOM      8  N   UNL d   1      31.276  16.829 -24.532  0.00  0.00    -0.148 NA
ATOM      9  N   UNL d   1      31.906  17.336 -24.508  0.00  0.00    -0.143 NA
BRANCH   7  10
ATOM     10  C   UNL d   1      29.837  16.664 -24.079  0.00  0.00     0.019 A 
ATOM     11  C   UNL d   1      29.772  15.857 -24.099  0.00  0.00     0.002 A 
ATOM     12  C   UNL d   1      29.048  15.492 -24.014  0.00  0.00     0.011 A 
ATOM     13  C   UNL d   1      28.380  15.953 -23.906  0.00  0.00     0.058 A 
ATOM     14  C   UNL d   1      28.435  16.765 -23.884  0.00  0.00     0.011 A 
ATOM     15 CL   UNL d   1      27.646  15.592 -23.819  0.00  0.00    -0.082 Cl
ATOM     16  C   UNL d   1      29.165  17.129 -23.971  0.00  0.00     0.002 A 
ENDBRANCH   7  10
ENDBRANCH   1   5
BRANCH   2  17
ATOM     17  C   UNL d   1      33.103  21.337 -23.789  0.00  0.00     0.122 C 
BRANCH  17  18
ATOM     18  C   UNL d   1      33.131  21.697 -22.975  0.00  0.00     0.023 A 
ATOM     19  C   UNL d   1      33.075  21.165 -22.253  0.00  0.00     0.028 A 
ATOM     20  C   UNL d   1      33.104  21.532 -21.432  0.00  0.00     0.116 A 
ATOM     21  C   UNL d   1      33.187  22.423 -21.333  0.00  0.00     0.116 A 
ATOM     22  C   UNL d   1      33.241  22.940 -22.054  0.00  0.00     0.026 A 
ATOM     23  C   UNL d   1      33.213  22.581 -22.883  0.00  0.00     0.004 A 
BRANCH  20  24
ATOM     24  O   UNL d   1      33.048  21.000 -20.710  0.00  0.00    -0.326 OA
ATOM     25  C   UNL d   1      33.153  20.121 -20.798  0.00  0.00     0.181 C 
ENDBRANCH  20  24
BRANCH  21  26
ATOM     26  O   UNL d   1      33.213  22.775 -20.512  0.00  0.00    -0.326 OA
ATOM     27  C   UNL d   1      33.185  23.661 -20.418  0.00  0.00     0.181 C 
ENDBRANCH  21  26
ENDBRANCH  17  18
ENDBRANCH   2  17
TORSDOF 6
ENDMDL
