MODEL 1
REMARK VINA RESULT:      -9.3      0.000      0.000
REMARK  4 active torsions:
REMARK  status: ('A' for Active; 'I' for Inactive)
REMARK    1  A    between atoms: C_2  and  S_1 
REMARK    2  A    between atoms: N_3  and  S_1 
REMARK    3  A    between atoms: C_4  and  C_9 
REMARK       I    between atoms: N_5  and  C_4 
REMARK    4  A    between atoms: C_6  and  N_5 
ROOT
ATOM      1  C   UNL d   1      52.914  32.946  53.363  0.00  0.00     0.104 A 
ATOM      2  C   UNL d   1      52.941  32.127  53.408  0.00  0.00     0.018 A 
ATOM      3  C   UNL d   1      53.617  31.754  53.691  0.00  0.00     0.059 A 
ATOM      4  C   UNL d   1      53.570  33.396  53.603  0.00  0.00     0.012 A 
ATOM      5  C   UNL d   1      54.269  32.200  53.930  0.00  0.00     0.005 A 
ATOM      6  C   UNL d   1      54.241  33.023  53.885  0.00  0.00     0.001 A 
ATOM      7  C   UNL d   1      53.545  34.225  53.558  0.00  0.00     0.001 C 
ENDROOT
BRANCH   1   8
ATOM      8  S   UNL d   1      52.242  33.321  53.081  0.00  0.00     0.271 S 
ATOM      9  O   UNL d   1      52.429  33.066  52.321  0.00  0.00    -0.200 OA
ATOM     10  O   UNL d   1      52.063  33.570  53.841  0.00  0.00    -0.200 OA
BRANCH   8  11
ATOM     11  N   UNL d   1      51.571  33.693  52.789  0.00  0.00    -0.229 N 
ATOM     12  C   UNL d   1      50.927  33.704  53.351  0.00  0.00     0.092 A 
ATOM     13  C   UNL d   1      50.257  33.959  53.344  0.00  0.00     0.020 A 
ATOM     14  C   UNL d   1      49.889  34.356  52.712  0.00  0.00     0.002 A 
ATOM     15  C   UNL d   1      50.245  34.538  51.939  0.00  0.00     0.002 A 
ATOM     16  C   UNL d   1      51.061  34.346  51.662  0.00  0.00     0.020 A 
ATOM     17  C   UNL d   1      51.652  33.944  52.101  0.00  0.00     0.092 A 
ENDBRANCH   8  11
ENDBRANCH   1   8
BRANCH   3  18
ATOM     18  C   UNL d   1      53.644  30.939  53.736  0.00  0.00     0.281 C 
ATOM     19  N   UNL d   1      53.189  30.542  54.289  0.00  0.00    -0.187 NA
ATOM     20  O   UNL d   1      54.080  30.705  53.264  0.00  0.00    -0.265 OA
BRANCH  19  21
ATOM     21  C   UNL d   1      53.216  29.711  54.336  0.00  0.00     0.194 A 
ATOM     22  N   UNL d   1      52.944  29.192  53.756  0.00  0.00    -0.106 NA
ATOM     23  O   UNL d   1      53.080  28.414  54.032  0.00  0.00    -0.207 OA
ATOM     24  C   UNL d   1      53.432  28.466  54.776  0.00  0.00     0.153 A 
ATOM     25  C   UNL d   1      53.518  29.268  54.968  0.00  0.00     0.070 A 
ENDBRANCH  19  21
ENDBRANCH   3  18
TORSDOF 4
ENDMDL
MODEL 2
REMARK VINA RESULT:      -9.2      1.444      4.648
REMARK  4 active torsions:
REMARK  status: ('A' for Active; 'I' for Inactive)
REMARK    1  A    between atoms: C_2  and  S_1 
REMARK    2  A    between atoms: N_3  and  S_1 
REMARK    3  A    between atoms: C_4  and  C_9 
REMARK       I    between atoms: N_5  and  C_4 
REMARK    4  A    between atoms: C_6  and  N_5 
ROOT
ATOM      1  C   UNL d   1      52.636  33.155  53.198  0.00  0.00     0.104 A 
ATOM      2  C   UNL d   1      51.937  33.360  52.818  0.00  0.00     0.018 A 
ATOM      3  C   UNL d   1      51.729  34.151  52.740  0.00  0.00     0.059 A 
ATOM      4  C   UNL d   1      53.131  33.748  53.502  0.00  0.00     0.012 A 
ATOM      5  C   UNL d   1      52.220  34.742  53.042  0.00  0.00     0.005 A 
ATOM      6  C   UNL d   1      52.922  34.536  53.423  0.00  0.00     0.001 A 
ATOM      7  C   UNL d   1      53.838  33.545  53.886  0.00  0.00     0.001 C 
ENDROOT
BRANCH   1   8
ATOM      8  S   UNL d   1      52.845  32.367  53.277  0.00  0.00     0.271 S 
ATOM      9  O   UNL d   1      52.485  32.354  54.017  0.00  0.00    -0.200 OA
ATOM     10  O   UNL d   1      53.202  32.388  52.540  0.00  0.00    -0.200 OA
BRANCH   8  11
ATOM     11  N   UNL d   1      53.050  31.577  53.366  0.00  0.00    -0.229 N 
ATOM     12  C   UNL d   1      52.543  31.050  52.923  0.00  0.00     0.092 A 
ATOM     13  C   UNL d   1      52.510  30.340  52.833  0.00  0.00     0.020 A 
ATOM     14  C   UNL d   1      53.016  29.777  53.178  0.00  0.00     0.002 A 
ATOM     15  C   UNL d   1      53.683  29.942  53.713  0.00  0.00     0.002 A 
ATOM     16  C   UNL d   1      53.962  30.728  54.002  0.00  0.00     0.020 A 
ATOM     17  C   UNL d   1      53.630  31.473  53.809  0.00  0.00     0.092 A 
ENDBRANCH   8  11
ENDBRANCH   1   8
BRANCH   3  18
ATOM     18  C   UNL d   1      51.034  34.355  52.363  0.00  0.00     0.281 C 
ATOM     19  N   UNL d   1      50.345  34.453  52.794  0.00  0.00    -0.187 NA
ATOM     20  O   UNL d   1      51.155  34.415  51.692  0.00  0.00    -0.265 OA
BRANCH  19  21
ATOM     21  C   UNL d   1      49.636  34.660  52.410  0.00  0.00     0.194 A 
ATOM     22  N   UNL d   1      49.397  34.388  51.669  0.00  0.00    -0.106 NA
ATOM     23  O   UNL d   1      48.655  34.736  51.500  0.00  0.00    -0.207 OA
ATOM     24  C   UNL d   1      48.449  35.216  52.138  0.00  0.00     0.153 A 
ATOM     25  C   UNL d   1      49.054  35.172  52.704  0.00  0.00     0.070 A 
ENDBRANCH  19  21
ENDBRANCH   3  18
TORSDOF 4
ENDMDL
MODEL 3
REMARK VINA RESULT:      -8.0      1.945      4.585
REMARK  4 active torsions:
REMARK  status: ('A' for Active; 'I' for Inactive)
REMARK    1  A    between atoms: C_2  and  S_1 
REMARK    2  A    between atoms: N_3  and  S_1 
REMARK    3  A    between atoms: C_4  and  C_9 
REMARK       I    between atoms: N_5  and  C_4 
REMARK    4  A    between atoms: C_6  and  N_5 
ROOT
ATOM      1  C   UNL d   1      52.894  32.701  53.528  0.00  0.00     0.104 A 
ATOM      2  C   UNL d   1      52.219  33.167  53.512  0.00  0.00     0.018 A 
ATOM      3  C   UNL d   1      51.537  32.890  53.145  0.00  0.00     0.059 A 
ATOM      4  C   UNL d   1      52.887  31.950  53.172  0.00  0.00     0.012 A 
ATOM      5  C   UNL d   1      51.529  32.145  52.791  0.00  0.00     0.005 A 
ATOM      6  C   UNL d   1      52.208  31.677  52.807  0.00  0.00     0.001 A 
ATOM      7  C   UNL d   1      53.568  31.476  53.186  0.00  0.00     0.001 C 
ENDROOT
BRANCH   1   8
ATOM      8  S   UNL d   1      53.574  32.974  53.893  0.00  0.00     0.271 S 
ATOM      9  O   UNL d   1      53.740  33.428  53.227  0.00  0.00    -0.200 OA
ATOM     10  O   UNL d   1      53.403  32.519  54.553  0.00  0.00    -0.200 OA
BRANCH   8  11
ATOM     11  N   UNL d   1      54.259  33.254  54.251  0.00  0.00    -0.229 N 
ATOM     12  C   UNL d   1      54.162  33.395  55.088  0.00  0.00     0.092 A 
ATOM     13  C   UNL d   1      54.589  33.632  55.612  0.00  0.00     0.020 A 
ATOM     14  C   UNL d   1      55.387  33.856  55.532  0.00  0.00     0.002 A 
ATOM     15  C   UNL d   1      55.854  33.847  54.797  0.00  0.00     0.002 A 
ATOM     16  C   UNL d   1      55.589  33.603  53.991  0.00  0.00     0.020 A 
ATOM     17  C   UNL d   1      54.823  33.329  53.783  0.00  0.00     0.092 A 
ENDBRANCH   8  11
ENDBRANCH   1   8
BRANCH   3  18
ATOM     18  C   UNL d   1      50.865  33.355  53.130  0.00  0.00     0.281 C 
ATOM     19  N   UNL d   1      50.816  33.991  52.616  0.00  0.00    -0.187 NA
ATOM     20  O   UNL d   1      50.418  33.114  53.588  0.00  0.00    -0.265 OA
BRANCH  19  21
ATOM     21  C   UNL d   1      50.132  34.464  52.600  0.00  0.00     0.194 A 
ATOM     22  N   UNL d   1      49.895  34.982  53.197  0.00  0.00    -0.106 NA
ATOM     23  O   UNL d   1      49.181  35.341  52.951  0.00  0.00    -0.207 OA
ATOM     24  C   UNL d   1      48.989  35.040  52.207  0.00  0.00     0.153 A 
ATOM     25  C   UNL d   1      49.575  34.497  51.986  0.00  0.00     0.070 A 
ENDBRANCH  19  21
ENDBRANCH   3  18
TORSDOF 4
ENDMDL
MODEL 4
REMARK VINA RESULT:      -7.5      2.277      5.342
REMARK  4 active torsions:
REMARK  status: ('A' for Active; 'I' for Inactive)
REMARK    1  A    between atoms: C_2  and  S_1 
REMARK    2  A    between atoms: N_3  and  S_1 
REMARK    3  A    between atoms: C_4  and  C_9 
REMARK       I    between atoms: N_5  and  C_4 
REMARK    4  A    between atoms: C_6  and  N_5 
ROOT
ATOM      1  C   UNL d   1      51.580  34.199  53.066  0.00  0.00     0.104 A 
ATOM      2  C   UNL d   1      50.874  34.487  53.370  0.00  0.00     0.018 A 
ATOM      3  C   UNL d   1      50.237  34.623  52.869  0.00  0.00     0.059 A 
ATOM      4  C   UNL d   1      51.649  34.045  52.253  0.00  0.00     0.012 A 
ATOM      5  C   UNL d   1      50.303  34.470  52.061  0.00  0.00     0.005 A 
ATOM      6  C   UNL d   1      51.013  34.181  51.756  0.00  0.00     0.001 A 
ATOM      7  C   UNL d   1      52.361  33.754  51.943  0.00  0.00     0.001 C 
ENDROOT
BRANCH   1   8
ATOM      8  S   UNL d   1      52.217  34.063  53.564  0.00  0.00     0.271 S 
ATOM      9  O   UNL d   1      51.901  33.327  53.753  0.00  0.00    -0.200 OA
ATOM     10  O   UNL d   1      52.524  34.797  53.371  0.00  0.00    -0.200 OA
BRANCH   8  11
ATOM     11  N   UNL d   1      52.851  33.917  54.065  0.00  0.00    -0.229 N 
ATOM     12  C   UNL d   1      53.083  33.094  54.075  0.00  0.00     0.092 A 
ATOM     13  C   UNL d   1      53.588  32.717  54.415  0.00  0.00     0.020 A 
ATOM     14  C   UNL d   1      54.146  33.019  54.954  0.00  0.00     0.002 A 
ATOM     15  C   UNL d   1      54.224  33.848  55.206  0.00  0.00     0.002 A 
ATOM     16  C   UNL d   1      53.737  34.539  54.951  0.00  0.00     0.020 A 
ATOM     17  C   UNL d   1      53.097  34.520  54.408  0.00  0.00     0.092 A 
ENDBRANCH   8  11
ENDBRANCH   1   8
BRANCH   3  18
ATOM     18  C   UNL d   1      49.534  34.910  53.171  0.00  0.00     0.281 C 
ATOM     19  N   UNL d   1      49.244  35.634  52.921  0.00  0.00    -0.187 NA
ATOM     20  O   UNL d   1      49.285  34.458  53.620  0.00  0.00    -0.265 OA
BRANCH  19  21
ATOM     21  C   UNL d   1      48.528  35.927  53.229  0.00  0.00     0.194 A 
ATOM     22  N   UNL d   1      48.444  36.324  53.947  0.00  0.00    -0.106 NA
ATOM     23  O   UNL d   1      47.634  36.516  54.034  0.00  0.00    -0.207 OA
ATOM     24  C   UNL d   1      47.234  36.235  53.370  0.00  0.00     0.153 A 
ATOM     25  C   UNL d   1      47.783  35.870  52.869  0.00  0.00     0.070 A 
ENDBRANCH  19  21
ENDBRANCH   3  18
TORSDOF 4
ENDMDL
