MODEL 1
REMARK VINA RESULT:      59.6      0.000      0.000
REMARK  7 active torsions:
REMARK  status: ('A' for Active; 'I' for Inactive)
REMARK    1  A    between atoms: C_3  and  S_1 
REMARK    2  A    between atoms: N_4  and  S_1 
REMARK    3  A    between atoms: C_2  and  C_11 
REMARK       I    between atoms: N_5  and  C_2 
REMARK    4  A    between atoms: C_18  and  N_4 
REMARK    5  A    between atoms: C_12  and  N_5 
REMARK    6  A    between atoms: C_22  and  C_18 
REMARK    7  A    between atoms: O_26  and  C_19 
ROOT
ATOM      1  C   UNL d   1     -50.346  26.764  33.535  0.00  0.00     0.058 A 
ATOM      2  C   UNL d   1     -50.728  27.496  33.433  0.00  0.00     0.005 A 
ATOM      3  C   UNL d   1     -49.539  26.742  33.703  0.00  0.00     0.005 A 
ATOM      4  C   UNL d   1     -49.500  28.175  33.666  0.00  0.00     0.020 A 
ATOM      5  C   UNL d   1     -50.307  28.195  33.498  0.00  0.00     0.002 A 
ATOM      6  C   UNL d   1     -49.113  27.454  33.769  0.00  0.00     0.002 A 
ENDROOT
BRANCH   4   7
ATOM      7  C   UNL d   1     -49.068  28.881  33.733  0.00  0.00     0.112 C 
BRANCH   7   8
ATOM      8  N   UNL d   1     -49.002  29.259  34.471  0.00  0.00    -0.157 NA
BRANCH   8   9
ATOM      9  S   UNL d   1     -48.549  29.953  34.548  0.00  0.00     0.285 S 
ATOM     10  O   UNL d   1     -47.960  29.532  34.961  0.00  0.00    -0.198 OA
ATOM     11  O   UNL d   1     -49.138  30.385  34.133  0.00  0.00    -0.198 OA
BRANCH   9  12
ATOM     12  C   UNL d   1     -48.098  30.655  34.623  0.00  0.00     0.107 A 
ATOM     13  C   UNL d   1     -48.163  31.254  34.059  0.00  0.00     0.037 A 
ATOM     14  C   UNL d   1     -47.720  31.942  34.131  0.00  0.00     0.095 A 
ATOM     15  C   UNL d   1     -47.209  32.039  34.766  0.00  0.00     0.024 A 
ATOM     16  C   UNL d   1     -47.140  31.439  35.336  0.00  0.00     0.003 A 
ATOM     17  C   UNL d   1     -47.582  30.750  35.265  0.00  0.00     0.013 A 
BRANCH  14  18
ATOM     18  O   UNL d   1     -47.784  32.550  33.563  0.00  0.00    -0.328 OA
ATOM     19  C   UNL d   1     -47.714  33.331  33.800  0.00  0.00     0.181 C 
ENDBRANCH  14  18
ENDBRANCH   9  12
ENDBRANCH   8   9
ENDBRANCH   7   8
ENDBRANCH   4   7
BRANCH   1  20
ATOM     20  C   UNL d   1     -50.762  26.056  33.472  0.00  0.00     0.279 C 
ATOM     21  N   UNL d   1     -51.579  26.048  33.573  0.00  0.00    -0.208 NA
ATOM     22  O   UNL d   1     -50.365  25.350  33.306  0.00  0.00    -0.265 OA
BRANCH  21  23
ATOM     23  C   UNL d   1     -51.999  25.332  33.508  0.00  0.00     0.086 A 
ATOM     24  C   UNL d   1     -51.577  24.615  33.502  0.00  0.00     0.032 A 
ATOM     25  C   UNL d   1     -52.000  23.903  33.437  0.00  0.00     0.070 A 
ATOM     26 CL   UNL d   1     -51.585  23.190  33.430  0.00  0.00    -0.081 Cl
ATOM     27  C   UNL d   1     -52.822  23.914  33.381  0.00  0.00     0.068 A 
ATOM     28  C   UNL d   1     -53.230  24.635  33.388  0.00  0.00     0.014 A 
ATOM     29 CL   UNL d   1     -53.236  23.199  33.316  0.00  0.00    -0.082 Cl
ATOM     30  C   UNL d   1     -52.812  25.342  33.452  0.00  0.00     0.020 A 
ENDBRANCH  21  23
ENDBRANCH   1  20
TORSDOF 7
ENDMDL
