MODEL 1
REMARK VINA RESULT:      -3.2      0.000      0.000
REMARK  3 active torsions:
REMARK  status: ('A' for Active; 'I' for Inactive)
REMARK    1  A    between atoms: C_8  and  C_3 
REMARK    2  A    between atoms: O_18  and  C_12 
REMARK    3  A    between atoms: O_19  and  C_13 
ROOT
ATOM      1  S   UNL d   1      58.785   0.222  31.107  0.00  0.00     0.211 S 
ATOM      2  C   UNL d   1      59.512   0.279  30.627  0.00  0.00     0.103 A 
ATOM      3  C   UNL d   1      58.009  -0.027  30.855  0.00  0.00     0.093 A 
ATOM      4  N   UNL d   1      59.030  -0.136  29.407  0.00  0.00    -0.321 N 
ATOM      5  C   UNL d   1      58.216  -0.299  29.541  0.00  0.00     0.258 A 
ATOM      6  C   UNL d   1      59.573   0.098  29.831  0.00  0.00     0.070 A 
ATOM      7  C   UNL d   1      57.793  -0.262  30.107  0.00  0.00     0.072 A 
ATOM      8  O   UNL d   1      58.594   0.365  31.880  0.00  0.00    -0.217 OA
ATOM      9  O   UNL d   1      59.560   0.479  31.396  0.00  0.00    -0.217 OA
ATOM     10  O   UNL d   1      57.778  -0.589  28.785  0.00  0.00    -0.267 OA
ATOM     11  C   UNL d   1      60.170   0.539  31.044  0.00  0.00     0.013 A 
ATOM     12  C   UNL d   1      60.288   0.177  29.449  0.00  0.00     0.018 A 
ATOM     13  C   UNL d   1      60.900   0.620  30.660  0.00  0.00     0.001 A 
ATOM     14  C   UNL d   1      60.944   0.434  29.857  0.00  0.00     0.002 A 
ATOM     15  H   UNL d   1      59.257  -0.274  28.624  0.00  0.00     0.169 HD
ENDROOT
BRANCH   3  16
ATOM     16  C   UNL d   1      57.412  -0.029  31.432  0.00  0.00     0.013 A 
ATOM     17  C   UNL d   1      57.210  -0.731  31.820  0.00  0.00     0.027 A 
ATOM     18  C   UNL d   1      56.615  -0.724  32.392  0.00  0.00     0.116 A 
ATOM     19  C   UNL d   1      56.228  -0.034  32.577  0.00  0.00     0.116 A 
ATOM     20  C   UNL d   1      56.426   0.676  32.192  0.00  0.00     0.026 A 
ATOM     21  C   UNL d   1      57.020   0.682  31.616  0.00  0.00     0.003 A 
BRANCH  18  22
ATOM     22  O   UNL d   1      56.413  -1.428  32.780  0.00  0.00    -0.326 OA
ATOM     23  C   UNL d   1      55.823  -1.919  32.480  0.00  0.00     0.181 C 
ENDBRANCH  18  22
BRANCH  19  24
ATOM     24  O   UNL d   1      55.629  -0.033  33.154  0.00  0.00    -0.326 OA
ATOM     25  C   UNL d   1      55.234   0.659  33.334  0.00  0.00     0.181 C 
ENDBRANCH  19  24
ENDBRANCH   3  16
TORSDOF 3
ENDMDL
MODEL 2
REMARK VINA RESULT:      -2.9      1.599      2.276
REMARK  3 active torsions:
REMARK  status: ('A' for Active; 'I' for Inactive)
REMARK    1  A    between atoms: C_8  and  C_3 
REMARK    2  A    between atoms: O_18  and  C_12 
REMARK    3  A    between atoms: O_19  and  C_13 
ROOT
ATOM      1  S   UNL d   1      58.139  -1.299  30.219  0.00  0.00     0.211 S 
ATOM      2  C   UNL d   1      58.564  -1.751  29.603  0.00  0.00     0.103 A 
ATOM      3  C   UNL d   1      58.213  -0.470  30.405  0.00  0.00     0.093 A 
ATOM      4  N   UNL d   1      59.343  -0.754  29.066  0.00  0.00    -0.321 N 
ATOM      5  C   UNL d   1      59.146  -0.065  29.506  0.00  0.00     0.258 A 
ATOM      6  C   UNL d   1      59.120  -1.445  29.087  0.00  0.00     0.070 A 
ATOM      7  C   UNL d   1      58.702   0.068  30.040  0.00  0.00     0.072 A 
ATOM      8  O   UNL d   1      57.581  -1.474  30.778  0.00  0.00    -0.217 OA
ATOM      9  O   UNL d   1      58.039  -2.144  30.055  0.00  0.00    -0.217 OA
ATOM     10  O   UNL d   1      59.612   0.682  29.234  0.00  0.00    -0.267 OA
ATOM     11  C   UNL d   1      58.360  -2.546  29.570  0.00  0.00     0.013 A 
ATOM     12  C   UNL d   1      59.476  -1.931  28.538  0.00  0.00     0.018 A 
ATOM     13  C   UNL d   1      58.719  -3.043  29.013  0.00  0.00     0.001 A 
ATOM     14  C   UNL d   1      59.278  -2.720  28.500  0.00  0.00     0.002 A 
ATOM     15  H   UNL d   1      59.913  -0.606  28.484  0.00  0.00     0.169 HD
ENDROOT
BRANCH   3  16
ATOM     16  C   UNL d   1      57.738  -0.183  31.023  0.00  0.00     0.013 A 
ATOM     17  C   UNL d   1      58.087   0.107  31.715  0.00  0.00     0.027 A 
ATOM     18  C   UNL d   1      57.607   0.392  32.324  0.00  0.00     0.116 A 
ATOM     19  C   UNL d   1      56.798   0.388  32.248  0.00  0.00     0.116 A 
ATOM     20  C   UNL d   1      56.441   0.098  31.555  0.00  0.00     0.026 A 
ATOM     21  C   UNL d   1      56.910  -0.189  30.938  0.00  0.00     0.003 A 
BRANCH  18  22
ATOM     22  O   UNL d   1      57.956   0.682  33.017  0.00  0.00    -0.326 OA
ATOM     23  C   UNL d   1      58.772   0.638  33.127  0.00  0.00     0.181 C 
ENDBRANCH  18  22
BRANCH  19  24
ATOM     24  O   UNL d   1      56.319   0.676  32.865  0.00  0.00    -0.326 OA
ATOM     25  C   UNL d   1      55.534   0.454  32.913  0.00  0.00     0.181 C 
ENDBRANCH  19  24
ENDBRANCH   3  16
TORSDOF 3
ENDMDL
MODEL 3
REMARK VINA RESULT:      -2.6      2.262      4.174
REMARK  3 active torsions:
REMARK  status: ('A' for Active; 'I' for Inactive)
REMARK    1  A    between atoms: C_8  and  C_3 
REMARK    2  A    between atoms: O_18  and  C_12 
REMARK    3  A    between atoms: O_19  and  C_13 
ROOT
ATOM      1  S   UNL d   1      58.047  -1.259  30.358  0.00  0.00     0.211 S 
ATOM      2  C   UNL d   1      57.574  -0.623  30.728  0.00  0.00     0.103 A 
ATOM      3  C   UNL d   1      58.522  -1.215  29.651  0.00  0.00     0.093 A 
ATOM      4  N   UNL d   1      57.828   0.407  29.853  0.00  0.00    -0.321 N 
ATOM      5  C   UNL d   1      58.341   0.077  29.274  0.00  0.00     0.258 A 
ATOM      6  C   UNL d   1      57.506   0.142  30.449  0.00  0.00     0.070 A 
ATOM      7  C   UNL d   1      58.628  -0.562  29.176  0.00  0.00     0.072 A 
ATOM      8  O   UNL d   1      58.196  -2.036  30.526  0.00  0.00    -0.217 OA
ATOM      9  O   UNL d   1      57.574  -1.337  31.080  0.00  0.00    -0.217 OA
ATOM     10  O   UNL d   1      58.585   0.682  28.623  0.00  0.00    -0.267 OA
ATOM     11  C   UNL d   1      57.180  -0.854  31.410  0.00  0.00     0.013 A 
ATOM     12  C   UNL d   1      57.044   0.682  30.849  0.00  0.00     0.018 A 
ATOM     13  C   UNL d   1      56.710  -0.309  31.821  0.00  0.00     0.001 A 
ATOM     14  C   UNL d   1      56.651   0.460  31.527  0.00  0.00     0.002 A 
ATOM     15  H   UNL d   1      57.656   1.203  29.708  0.00  0.00     0.169 HD
ENDROOT
BRANCH   3  16
ATOM     16  C   UNL d   1      58.917  -1.908  29.423  0.00  0.00     0.013 A 
ATOM     17  C   UNL d   1      58.502  -2.520  29.051  0.00  0.00     0.027 A 
ATOM     18  C   UNL d   1      58.903  -3.207  28.827  0.00  0.00     0.116 A 
ATOM     19  C   UNL d   1      59.699  -3.285  28.969  0.00  0.00     0.116 A 
ATOM     20  C   UNL d   1      60.123  -2.673  29.342  0.00  0.00     0.026 A 
ATOM     21  C   UNL d   1      59.732  -1.981  29.571  0.00  0.00     0.003 A 
BRANCH  18  22
ATOM     22  O   UNL d   1      58.487  -3.819  28.455  0.00  0.00    -0.326 OA
ATOM     23  C   UNL d   1      57.663  -3.830  28.459  0.00  0.00     0.181 C 
ENDBRANCH  18  22
BRANCH  19  24
ATOM     24  O   UNL d   1      60.098  -3.978  28.742  0.00  0.00    -0.326 OA
ATOM     25  C   UNL d   1      60.907  -3.968  28.627  0.00  0.00     0.181 C 
ENDBRANCH  19  24
ENDBRANCH   3  16
TORSDOF 3
ENDMDL
MODEL 4
REMARK VINA RESULT:      -1.9      1.215      1.976
REMARK  3 active torsions:
REMARK  status: ('A' for Active; 'I' for Inactive)
REMARK    1  A    between atoms: C_8  and  C_3 
REMARK    2  A    between atoms: O_18  and  C_12 
REMARK    3  A    between atoms: O_19  and  C_13 
ROOT
ATOM      1  S   UNL d   1      57.952   0.461  30.738  0.00  0.00     0.211 S 
ATOM      2  C   UNL d   1      58.503   0.460  30.060  0.00  0.00     0.103 A 
ATOM      3  C   UNL d   1      58.142   0.519  31.568  0.00  0.00     0.093 A 
ATOM      4  N   UNL d   1      59.702   0.573  30.723  0.00  0.00    -0.321 N 
ATOM      5  C   UNL d   1      59.497   0.604  31.538  0.00  0.00     0.258 A 
ATOM      6  C   UNL d   1      59.318   0.515  30.109  0.00  0.00     0.070 A 
ATOM      7  C   UNL d   1      58.885   0.584  31.893  0.00  0.00     0.072 A 
ATOM      8  O   UNL d   1      57.149   0.414  30.827  0.00  0.00    -0.217 OA
ATOM      9  O   UNL d   1      57.725   0.401  29.905  0.00  0.00    -0.217 OA
ATOM     10  O   UNL d   1      60.229   0.682  32.091  0.00  0.00    -0.267 OA
ATOM     11  C   UNL d   1      58.134   0.396  29.330  0.00  0.00     0.013 A 
ATOM     12  C   UNL d   1      59.767   0.507  29.430  0.00  0.00     0.018 A 
ATOM     13  C   UNL d   1      58.587   0.387  28.636  0.00  0.00     0.001 A 
ATOM     14  C   UNL d   1      59.408   0.444  28.701  0.00  0.00     0.002 A 
ATOM     15  H   UNL d   1      60.519   0.619  30.600  0.00  0.00     0.169 HD
ENDROOT
BRANCH   3  16
ATOM     16  C   UNL d   1      57.504   0.507  32.099  0.00  0.00     0.013 A 
ATOM     17  C   UNL d   1      57.638   0.401  32.908  0.00  0.00     0.027 A 
ATOM     18  C   UNL d   1      56.998   0.390  33.430  0.00  0.00     0.116 A 
ATOM     19  C   UNL d   1      56.239   0.482  33.154  0.00  0.00     0.116 A 
ATOM     20  C   UNL d   1      56.096   0.589  32.341  0.00  0.00     0.026 A 
ATOM     21  C   UNL d   1      56.730   0.602  31.809  0.00  0.00     0.003 A 
BRANCH  18  22
ATOM     22  O   UNL d   1      57.132   0.284  34.240  0.00  0.00    -0.326 OA
ATOM     23  C   UNL d   1      57.747   0.682  34.619  0.00  0.00     0.181 C 
ENDBRANCH  18  22
BRANCH  19  24
ATOM     24  O   UNL d   1      55.598   0.471  33.683  0.00  0.00    -0.326 OA
ATOM     25  C   UNL d   1      54.831   0.448  33.399  0.00  0.00     0.181 C 
ENDBRANCH  19  24
ENDBRANCH   3  16
TORSDOF 3
ENDMDL
MODEL 5
REMARK VINA RESULT:      -0.9      9.023      9.911
REMARK  3 active torsions:
REMARK  status: ('A' for Active; 'I' for Inactive)
REMARK    1  A    between atoms: C_8  and  C_3 
REMARK    2  A    between atoms: O_18  and  C_12 
REMARK    3  A    between atoms: O_19  and  C_13 
ROOT
ATOM      1  S   UNL d   1      58.635  -9.479  32.248  0.00  0.00     0.211 S 
ATOM      2  C   UNL d   1      58.393  -9.583  31.415  0.00  0.00     0.103 A 
ATOM      3  C   UNL d   1      59.425  -9.492  32.569  0.00  0.00     0.093 A 
ATOM      4  N   UNL d   1      59.622  -9.761  30.825  0.00  0.00    -0.321 N 
ATOM      5  C   UNL d   1      60.174  -9.710  31.458  0.00  0.00     0.258 A 
ATOM      6  C   UNL d   1      58.898  -9.712  30.785  0.00  0.00     0.070 A 
ATOM      7  C   UNL d   1      60.116  -9.604  32.155  0.00  0.00     0.072 A 
ATOM      8  O   UNL d   1      58.249  -9.348  32.947  0.00  0.00    -0.217 OA
ATOM      9  O   UNL d   1      57.820  -9.461  31.954  0.00  0.00    -0.217 OA
ATOM     10  O   UNL d   1      61.047  -9.816  31.183  0.00  0.00    -0.267 OA
ATOM     11  C   UNL d   1      57.581  -9.539  31.294  0.00  0.00     0.013 A 
ATOM     12  C   UNL d   1      58.597  -9.799  30.033  0.00  0.00     0.018 A 
ATOM     13  C   UNL d   1      57.271  -9.627  30.531  0.00  0.00     0.001 A 
ATOM     14  C   UNL d   1      57.793  -9.757  29.906  0.00  0.00     0.002 A 
ATOM     15  H   UNL d   1      59.987  -9.895  30.095  0.00  0.00     0.169 HD
ENDROOT
BRANCH   3  16
ATOM     16  C   UNL d   1      59.496  -9.378  33.388  0.00  0.00     0.013 A 
ATOM     17  C   UNL d   1      60.044  -8.834  33.686  0.00  0.00     0.027 A 
ATOM     18  C   UNL d   1      60.109  -8.727  34.503  0.00  0.00     0.116 A 
ATOM     19  C   UNL d   1      59.640  -9.151  35.013  0.00  0.00     0.116 A 
ATOM     20  C   UNL d   1      59.087  -9.699  34.721  0.00  0.00     0.026 A 
ATOM     21  C   UNL d   1      59.013  -9.816  33.905  0.00  0.00     0.003 A 
BRANCH  18  22
ATOM     22  O   UNL d   1      60.657  -8.182  34.801  0.00  0.00    -0.326 OA
ATOM     23  C   UNL d   1      60.464  -7.383  34.865  0.00  0.00     0.181 C 
ENDBRANCH  18  22
BRANCH  19  24
ATOM     24  O   UNL d   1      59.709  -9.039  35.834  0.00  0.00    -0.326 OA
ATOM     25  C   UNL d   1      59.039  -8.980  36.299  0.00  0.00     0.181 C 
ENDBRANCH  19  24
ENDBRANCH   3  16
TORSDOF 3
ENDMDL
