MODEL 1
REMARK VINA RESULT:      -8.2      0.000      0.000
REMARK  5 active torsions:
REMARK  status: ('A' for Active; 'I' for Inactive)
REMARK    1  A    between atoms: C_3  and  C_1 
REMARK    2  A    between atoms: N_2  and  C_7 
REMARK       I    between atoms: N_4  and  C_3 
REMARK    3  A    between atoms: C_9  and  N_4 
REMARK    4  A    between atoms: O_19  and  C_6 
REMARK    5  A    between atoms: O_20  and  C_10 
ROOT
ATOM      1  C   UNL d   1     -48.479  12.746  23.047  0.00  0.00     0.281 C 
ATOM      2  N   UNL d   1     -47.693  12.992  22.991  0.00  0.00    -0.206 NA
ATOM      3  O   UNL d   1     -48.649  11.987  23.235  0.00  0.00    -0.265 OA
ENDROOT
BRANCH   1   4
ATOM      4  C   UNL d   1     -49.087  13.296  22.907  0.00  0.00     0.080 A 
ATOM      5  C   UNL d   1     -49.166  13.959  23.377  0.00  0.00     0.007 A 
ATOM      6  C   UNL d   1     -49.787  14.503  23.219  0.00  0.00     0.000 A 
ATOM      7  C   UNL d   1     -49.859  15.168  23.698  0.00  0.00     0.000 A 
ATOM      8  C   UNL d   1     -50.300  14.349  22.591  0.00  0.00     0.002 A 
ATOM      9  C   UNL d   1     -50.483  15.708  23.534  0.00  0.00     0.000 A 
ATOM     10  C   UNL d   1     -50.977  15.560  22.930  0.00  0.00     0.000 A 
ATOM     11  C   UNL d   1     -50.903  14.892  22.451  0.00  0.00     0.000 A 
ATOM     12  C   UNL d   1     -50.202  13.677  22.133  0.00  0.00     0.024 A 
ATOM     13  C   UNL d   1     -49.584  13.149  22.300  0.00  0.00     0.099 A 
BRANCH  13  14
ATOM     14  O   UNL d   1     -49.468  12.457  21.844  0.00  0.00    -0.328 OA
ATOM     15  C   UNL d   1     -49.967  12.310  21.191  0.00  0.00     0.181 C 
ENDBRANCH  13  14
ENDBRANCH   1   4
BRANCH   2  16
ATOM     16  C   UNL d   1     -47.090  12.483  23.121  0.00  0.00     0.107 A 
ATOM     17  C   UNL d   1     -46.354  12.650  22.801  0.00  0.00     0.113 A 
ATOM     18  C   UNL d   1     -45.721  12.133  22.927  0.00  0.00     0.049 A 
ATOM     19  C   UNL d   1     -45.819  11.443  23.376  0.00  0.00     0.129 A 
ATOM     20  C   UNL d   1     -46.558  11.278  23.696  0.00  0.00     0.025 A 
ATOM     21  C   UNL d   1     -47.191  11.788  23.574  0.00  0.00     0.023 A 
BRANCH  17  22
ATOM     22  O   UNL d   1     -46.241  13.346  22.344  0.00  0.00    -0.327 OA
ATOM     23  C   UNL d   1     -45.458  13.606  22.191  0.00  0.00     0.181 C 
ENDBRANCH  17  22
BRANCH  19  24
ATOM     24  N   UNL d   1     -45.168  10.938  23.489  0.00  0.00    -0.114 N 
ATOM     25  O   UNL d   1     -45.322  10.137  23.615  0.00  0.00    -0.532 OA
ATOM     26  O   UNL d   1     -44.405  11.238  23.474  0.00  0.00    -0.532 OA
ENDBRANCH  19  24
ENDBRANCH   2  16
TORSDOF 5
ENDMDL
MODEL 2
REMARK VINA RESULT:      -7.2      1.456      2.337
REMARK  5 active torsions:
REMARK  status: ('A' for Active; 'I' for Inactive)
REMARK    1  A    between atoms: C_3  and  C_1 
REMARK    2  A    between atoms: N_2  and  C_7 
REMARK       I    between atoms: N_4  and  C_3 
REMARK    3  A    between atoms: C_9  and  N_4 
REMARK    4  A    between atoms: O_19  and  C_6 
REMARK    5  A    between atoms: O_20  and  C_10 
ROOT
ATOM      1  C   UNL d   1     -47.550  13.087  22.487  0.00  0.00     0.281 C 
ATOM      2  N   UNL d   1     -46.990  12.661  22.919  0.00  0.00    -0.206 NA
ATOM      3  O   UNL d   1     -47.331  13.480  21.825  0.00  0.00    -0.265 OA
ENDROOT
BRANCH   1   4
ATOM      4  C   UNL d   1     -48.339  13.102  22.749  0.00  0.00     0.080 A 
ATOM      5  C   UNL d   1     -48.732  12.409  22.927  0.00  0.00     0.007 A 
ATOM      6  C   UNL d   1     -49.529  12.445  23.190  0.00  0.00     0.000 A 
ATOM      7  C   UNL d   1     -49.917  11.741  23.368  0.00  0.00     0.000 A 
ATOM      8  C   UNL d   1     -49.892  13.183  23.261  0.00  0.00     0.002 A 
ATOM      9  C   UNL d   1     -50.716  11.785  23.630  0.00  0.00     0.000 A 
ATOM     10  C   UNL d   1     -51.064  12.496  23.698  0.00  0.00     0.000 A 
ATOM     11  C   UNL d   1     -50.673  13.200  23.520  0.00  0.00     0.000 A 
ATOM     12  C   UNL d   1     -49.477  13.866  23.076  0.00  0.00     0.024 A 
ATOM     13  C   UNL d   1     -48.691  13.815  22.818  0.00  0.00     0.099 A 
BRANCH  13  14
ATOM     14  O   UNL d   1     -48.252  14.500  22.625  0.00  0.00    -0.328 OA
ATOM     15  C   UNL d   1     -48.607  15.251  22.711  0.00  0.00     0.181 C 
ENDBRANCH  13  14
ENDBRANCH   1   4
BRANCH   2  16
ATOM     16  C   UNL d   1     -46.225  12.630  22.689  0.00  0.00     0.107 A 
ATOM     17  C   UNL d   1     -45.722  12.094  23.051  0.00  0.00     0.113 A 
ATOM     18  C   UNL d   1     -44.928  12.051  22.824  0.00  0.00     0.049 A 
ATOM     19  C   UNL d   1     -44.629  12.546  22.230  0.00  0.00     0.129 A 
ATOM     20  C   UNL d   1     -45.136  13.083  21.867  0.00  0.00     0.025 A 
ATOM     21  C   UNL d   1     -45.926  13.130  22.090  0.00  0.00     0.023 A 
BRANCH  17  22
ATOM     22  O   UNL d   1     -46.012  11.587  23.655  0.00  0.00    -0.327 OA
ATOM     23  C   UNL d   1     -45.720  10.802  23.697  0.00  0.00     0.181 C 
ENDBRANCH  17  22
BRANCH  19  24
ATOM     24  N   UNL d   1     -43.827  12.485  22.017  0.00  0.00    -0.114 N 
ATOM     25  O   UNL d   1     -43.517  13.069  21.522  0.00  0.00    -0.532 OA
ATOM     26  O   UNL d   1     -43.372  11.863  22.295  0.00  0.00    -0.532 OA
ENDBRANCH  19  24
ENDBRANCH   2  16
TORSDOF 5
ENDMDL
MODEL 3
REMARK VINA RESULT:      -6.4      1.466      5.052
REMARK  5 active torsions:
REMARK  status: ('A' for Active; 'I' for Inactive)
REMARK    1  A    between atoms: C_3  and  C_1 
REMARK    2  A    between atoms: N_2  and  C_7 
REMARK       I    between atoms: N_4  and  C_3 
REMARK    3  A    between atoms: C_9  and  N_4 
REMARK    4  A    between atoms: O_19  and  C_6 
REMARK    5  A    between atoms: O_20  and  C_10 
ROOT
ATOM      1  C   UNL d   1     -46.896  13.133  22.970  0.00  0.00     0.281 C 
ATOM      2  N   UNL d   1     -47.579  12.915  22.562  0.00  0.00    -0.206 NA
ATOM      3  O   UNL d   1     -46.865  13.836  23.352  0.00  0.00    -0.265 OA
ENDROOT
BRANCH   1   4
ATOM      4  C   UNL d   1     -46.245  12.616  22.978  0.00  0.00     0.080 A 
ATOM      5  C   UNL d   1     -46.298  11.884  23.337  0.00  0.00     0.007 A 
ATOM      6  C   UNL d   1     -45.630  11.375  23.334  0.00  0.00     0.000 A 
ATOM      7  C   UNL d   1     -45.693  10.640  23.698  0.00  0.00     0.000 A 
ATOM      8  C   UNL d   1     -44.936  11.633  22.968  0.00  0.00     0.002 A 
ATOM      9  C   UNL d   1     -45.019  10.136  23.692  0.00  0.00     0.000 A 
ATOM     10  C   UNL d   1     -44.351  10.384  23.339  0.00  0.00     0.000 A 
ATOM     11  C   UNL d   1     -44.290  11.122  22.975  0.00  0.00     0.000 A 
ATOM     12  C   UNL d   1     -44.905  12.372  22.615  0.00  0.00     0.024 A 
ATOM     13  C   UNL d   1     -45.573  12.863  22.625  0.00  0.00     0.099 A 
BRANCH  13  14
ATOM     14  O   UNL d   1     -45.561  13.620  22.269  0.00  0.00    -0.328 OA
ATOM     15  C   UNL d   1     -44.883  13.863  21.847  0.00  0.00     0.181 C 
ENDBRANCH  13  14
ENDBRANCH   1   4
BRANCH   2  16
ATOM     16  C   UNL d   1     -48.219  13.394  22.539  0.00  0.00     0.107 A 
ATOM     17  C   UNL d   1     -48.851  13.189  22.059  0.00  0.00     0.113 A 
ATOM     18  C   UNL d   1     -49.519  13.675  22.025  0.00  0.00     0.049 A 
ATOM     19  C   UNL d   1     -49.561  14.372  22.471  0.00  0.00     0.129 A 
ATOM     20  C   UNL d   1     -48.925  14.575  22.952  0.00  0.00     0.025 A 
ATOM     21  C   UNL d   1     -48.259  14.096  22.990  0.00  0.00     0.023 A 
BRANCH  17  22
ATOM     22  O   UNL d   1     -48.822  12.486  21.601  0.00  0.00    -0.327 OA
ATOM     23  C   UNL d   1     -49.471  12.301  21.103  0.00  0.00     0.181 C 
ENDBRANCH  17  22
BRANCH  19  24
ATOM     24  N   UNL d   1     -50.243  14.845  22.421  0.00  0.00    -0.114 N 
ATOM     25  O   UNL d   1     -50.920  14.586  22.817  0.00  0.00    -0.532 OA
ATOM     26  O   UNL d   1     -50.231  15.543  21.990  0.00  0.00    -0.532 OA
ENDBRANCH  19  24
ENDBRANCH   2  16
TORSDOF 5
ENDMDL
MODEL 4
REMARK VINA RESULT:      -6.0      7.395      9.694
REMARK  5 active torsions:
REMARK  status: ('A' for Active; 'I' for Inactive)
REMARK    1  A    between atoms: C_3  and  C_1 
REMARK    2  A    between atoms: N_2  and  C_7 
REMARK       I    between atoms: N_4  and  C_3 
REMARK    3  A    between atoms: C_9  and  N_4 
REMARK    4  A    between atoms: O_19  and  C_6 
REMARK    5  A    between atoms: O_20  and  C_10 
ROOT
ATOM      1  C   UNL d   1     -40.376  15.091  19.955  0.00  0.00     0.281 C 
ATOM      2  N   UNL d   1     -40.115  14.752  19.249  0.00  0.00    -0.206 NA
ATOM      3  O   UNL d   1     -40.934  15.665  19.942  0.00  0.00    -0.265 OA
ENDROOT
BRANCH   1   4
ATOM      4  C   UNL d   1     -40.052  14.830  20.675  0.00  0.00     0.080 A 
ATOM      5  C   UNL d   1     -39.306  15.067  20.907  0.00  0.00     0.007 A 
ATOM      6  C   UNL d   1     -38.996  14.792  21.638  0.00  0.00     0.000 A 
ATOM      7  C   UNL d   1     -38.243  15.036  21.864  0.00  0.00     0.000 A 
ATOM      8  C   UNL d   1     -39.458  14.289  22.101  0.00  0.00     0.002 A 
ATOM      9  C   UNL d   1     -37.940  14.757  22.597  0.00  0.00     0.000 A 
ATOM     10  C   UNL d   1     -38.385  14.272  23.043  0.00  0.00     0.000 A 
ATOM     11  C   UNL d   1     -39.139  14.029  22.815  0.00  0.00     0.000 A 
ATOM     12  C   UNL d   1     -40.204  14.064  21.848  0.00  0.00     0.024 A 
ATOM     13  C   UNL d   1     -40.497  14.343  21.124  0.00  0.00     0.099 A 
BRANCH  13  14
ATOM     14  O   UNL d   1     -41.257  14.125  20.849  0.00  0.00    -0.328 OA
ATOM     15  C   UNL d   1     -41.688  13.540  21.261  0.00  0.00     0.181 C 
ENDBRANCH  13  14
ENDBRANCH   1   4
BRANCH   2  16
ATOM     16  C   UNL d   1     -40.410  14.986  18.544  0.00  0.00     0.107 A 
ATOM     17  C   UNL d   1     -40.292  14.510  17.887  0.00  0.00     0.113 A 
ATOM     18  C   UNL d   1     -40.591  14.738  17.151  0.00  0.00     0.049 A 
ATOM     19  C   UNL d   1     -41.013  15.446  17.065  0.00  0.00     0.129 A 
ATOM     20  C   UNL d   1     -41.130  15.922  17.726  0.00  0.00     0.025 A 
ATOM     21  C   UNL d   1     -40.835  15.700  18.460  0.00  0.00     0.023 A 
BRANCH  17  22
ATOM     22  O   UNL d   1     -39.866  13.789  17.960  0.00  0.00    -0.327 OA
ATOM     23  C   UNL d   1     -39.313  13.585  17.364  0.00  0.00     0.181 C 
ENDBRANCH  17  22
BRANCH  19  24
ATOM     24  N   UNL d   1     -41.305  15.656  16.315  0.00  0.00    -0.114 N 
ATOM     25  O   UNL d   1     -42.118  15.587  16.187  0.00  0.00    -0.532 OA
ATOM     26  O   UNL d   1     -40.793  15.921  15.732  0.00  0.00    -0.532 OA
ENDBRANCH  19  24
ENDBRANCH   2  16
TORSDOF 5
ENDMDL
MODEL 5
REMARK VINA RESULT:      -5.5      8.540     10.751
REMARK  5 active torsions:
REMARK  status: ('A' for Active; 'I' for Inactive)
REMARK    1  A    between atoms: C_3  and  C_1 
REMARK    2  A    between atoms: N_2  and  C_7 
REMARK       I    between atoms: N_4  and  C_3 
REMARK    3  A    between atoms: C_9  and  N_4 
REMARK    4  A    between atoms: O_19  and  C_6 
REMARK    5  A    between atoms: O_20  and  C_10 
ROOT
ATOM      1  C   UNL d   1     -38.846  14.694  19.426  0.00  0.00     0.281 C 
ATOM      2  N   UNL d   1     -38.678  14.124  18.853  0.00  0.00    -0.206 NA
ATOM      3  O   UNL d   1     -38.885  15.467  19.223  0.00  0.00    -0.265 OA
ENDROOT
BRANCH   1   4
ATOM      4  C   UNL d   1     -38.971  14.454  20.213  0.00  0.00     0.080 A 
ATOM      5  C   UNL d   1     -38.393  14.049  20.623  0.00  0.00     0.007 A 
ATOM      6  C   UNL d   1     -38.539  13.815  21.416  0.00  0.00     0.000 A 
ATOM      7  C   UNL d   1     -37.950  13.408  21.821  0.00  0.00     0.000 A 
ATOM      8  C   UNL d   1     -39.266  14.003  21.758  0.00  0.00     0.002 A 
ATOM      9  C   UNL d   1     -38.104  13.177  22.616  0.00  0.00     0.000 A 
ATOM     10  C   UNL d   1     -38.804  13.358  22.945  0.00  0.00     0.000 A 
ATOM     11  C   UNL d   1     -39.393  13.767  22.537  0.00  0.00     0.000 A 
ATOM     12  C   UNL d   1     -39.832  14.411  21.328  0.00  0.00     0.024 A 
ATOM     13  C   UNL d   1     -39.674  14.635  20.545  0.00  0.00     0.099 A 
BRANCH  13  14
ATOM     14  O   UNL d   1     -40.239  15.051  20.090  0.00  0.00    -0.328 OA
ATOM     15  C   UNL d   1     -40.967  15.266  20.438  0.00  0.00     0.181 C 
ENDBRANCH  13  14
ENDBRANCH   1   4
BRANCH   2  16
ATOM     16  C   UNL d   1     -38.553  14.329  18.090  0.00  0.00     0.107 A 
ATOM     17  C   UNL d   1     -38.649  13.761  17.507  0.00  0.00     0.113 A 
ATOM     18  C   UNL d   1     -38.523  13.958  16.713  0.00  0.00     0.049 A 
ATOM     19  C   UNL d   1     -38.300  14.726  16.496  0.00  0.00     0.129 A 
ATOM     20  C   UNL d   1     -38.205  15.293  17.084  0.00  0.00     0.025 A 
ATOM     21  C   UNL d   1     -38.328  15.103  17.874  0.00  0.00     0.023 A 
BRANCH  17  22
ATOM     22  O   UNL d   1     -38.874  12.979  17.712  0.00  0.00    -0.327 OA
ATOM     23  C   UNL d   1     -38.530  12.336  17.297  0.00  0.00     0.181 C 
ENDBRANCH  17  22
BRANCH  19  24
ATOM     24  N   UNL d   1     -38.179  14.901  15.692  0.00  0.00    -0.114 N 
ATOM     25  O   UNL d   1     -38.306  15.679  15.446  0.00  0.00    -0.532 OA
ATOM     26  O   UNL d   1     -37.941  14.313  15.172  0.00  0.00    -0.532 OA
ENDBRANCH  19  24
ENDBRANCH   2  16
TORSDOF 5
ENDMDL
MODEL 6
REMARK VINA RESULT:      -5.2      8.224     10.671
REMARK  5 active torsions:
REMARK  status: ('A' for Active; 'I' for Inactive)
REMARK    1  A    between atoms: C_3  and  C_1 
REMARK    2  A    between atoms: N_2  and  C_7 
REMARK       I    between atoms: N_4  and  C_3 
REMARK    3  A    between atoms: C_9  and  N_4 
REMARK    4  A    between atoms: O_19  and  C_6 
REMARK    5  A    between atoms: O_20  and  C_10 
ROOT
ATOM      1  C   UNL d   1     -38.414  13.787  19.032  0.00  0.00     0.281 C 
ATOM      2  N   UNL d   1     -38.919  14.238  19.504  0.00  0.00    -0.206 NA
ATOM      3  O   UNL d   1     -37.940  13.235  19.366  0.00  0.00    -0.265 OA
ENDROOT
BRANCH   1   4
ATOM      4  C   UNL d   1     -38.406  13.914  18.210  0.00  0.00     0.080 A 
ATOM      5  C   UNL d   1     -38.399  14.672  17.905  0.00  0.00     0.007 A 
ATOM      6  C   UNL d   1     -38.391  14.779  17.072  0.00  0.00     0.000 A 
ATOM      7  C   UNL d   1     -38.385  15.546  16.774  0.00  0.00     0.000 A 
ATOM      8  C   UNL d   1     -38.389  14.112  16.585  0.00  0.00     0.002 A 
ATOM      9  C   UNL d   1     -38.376  15.646  15.938  0.00  0.00     0.000 A 
ATOM     10  C   UNL d   1     -38.375  15.004  15.470  0.00  0.00     0.000 A 
ATOM     11  C   UNL d   1     -38.381  14.236  15.771  0.00  0.00     0.000 A 
ATOM     12  C   UNL d   1     -38.396  13.361  16.914  0.00  0.00     0.024 A 
ATOM     13  C   UNL d   1     -38.404  13.270  17.738  0.00  0.00     0.099 A 
BRANCH  13  14
ATOM     14  O   UNL d   1     -38.411  12.512  18.092  0.00  0.00    -0.328 OA
ATOM     15  C   UNL d   1     -38.305  11.837  17.612  0.00  0.00     0.181 C 
ENDBRANCH  13  14
ENDBRANCH   1   4
BRANCH   2  16
ATOM     16  C   UNL d   1     -38.946  14.136  20.297  0.00  0.00     0.107 A 
ATOM     17  C   UNL d   1     -39.643  14.303  20.695  0.00  0.00     0.113 A 
ATOM     18  C   UNL d   1     -39.686  14.202  21.515  0.00  0.00     0.049 A 
ATOM     19  C   UNL d   1     -39.030  13.932  21.944  0.00  0.00     0.129 A 
ATOM     20  C   UNL d   1     -38.333  13.765  21.542  0.00  0.00     0.025 A 
ATOM     21  C   UNL d   1     -38.284  13.863  20.728  0.00  0.00     0.023 A 
BRANCH  17  22
ATOM     22  O   UNL d   1     -40.315  14.577  20.272  0.00  0.00    -0.327 OA
ATOM     23  C   UNL d   1     -40.951  14.915  20.700  0.00  0.00     0.181 C 
ENDBRANCH  17  22
BRANCH  19  24
ATOM     24  N   UNL d   1     -39.096  13.837  22.768  0.00  0.00    -0.114 N 
ATOM     25  O   UNL d   1     -39.336  13.100  23.052  0.00  0.00    -0.532 OA
ATOM     26  O   UNL d   1     -38.926  14.463  23.270  0.00  0.00    -0.532 OA
ENDBRANCH  19  24
ENDBRANCH   2  16
TORSDOF 5
ENDMDL
