MODEL 1
REMARK VINA RESULT:      44.9      0.000      0.000
REMARK  4 active torsions:
REMARK  status: ('A' for Active; 'I' for Inactive)
REMARK    1  A    between atoms: S_4  and  C_1 
REMARK    2  A    between atoms: N_7  and  C_3 
REMARK    3  A    between atoms: C_11  and  S_4 
REMARK    4  A    between atoms: C_8  and  C_6 
ROOT
ATOM      1  C   UNL d   1      14.065  13.067  -3.037  0.00  0.00     0.210 A 
ATOM      2  N   UNL d   1      13.952  12.963  -3.843  0.00  0.00    -0.205 NA
ATOM      3  C   UNL d   1      13.971  12.334  -2.668  0.00  0.00     0.199 A 
ATOM      4  O   UNL d   1      13.800  11.781  -3.253  0.00  0.00    -0.268 OA
ATOM      5  C   UNL d   1      13.788  12.167  -3.976  0.00  0.00     0.208 A 
ENDROOT
BRANCH   1   6
ATOM      6  S   UNL d   1      14.239  13.812  -2.730  0.00  0.00     0.230 S 
ATOM      7  O   UNL d   1      13.875  14.483  -3.032  0.00  0.00    -0.215 OA
ATOM      8  O   UNL d   1      14.787  13.885  -2.111  0.00  0.00    -0.215 OA
BRANCH   6   9
ATOM      9  C   UNL d   1      14.419  14.552  -2.418  0.00  0.00     0.090 A 
ATOM     10  C   UNL d   1      14.305  15.224  -2.876  0.00  0.00     0.011 A 
ATOM     11  C   UNL d   1      14.483  15.974  -2.571  0.00  0.00     0.001 A 
ATOM     12  C   UNL d   1      14.776  16.042  -1.801  0.00  0.00     0.000 A 
ATOM     13  C   UNL d   1      14.891  15.363  -1.338  0.00  0.00     0.001 A 
ATOM     14  C   UNL d   1      14.711  14.619  -1.648  0.00  0.00     0.011 A 
ENDBRANCH   6   9
ENDBRANCH   1   6
BRANCH   3  15
ATOM     15  N   UNL d   1      14.036  12.183  -1.860  0.00  0.00    -0.283 N 
ATOM     16  C   UNL d   1      13.425  12.130  -1.487  0.00  0.00     0.082 A 
ATOM     17  C   UNL d   1      13.230  11.982  -0.663  0.00  0.00     0.019 A 
ATOM     18  C   UNL d   1      13.635  11.859  -0.062  0.00  0.00     0.002 A 
ATOM     19  C   UNL d   1      14.474  11.830  -0.026  0.00  0.00     0.002 A 
ATOM     20  C   UNL d   1      15.017  11.944  -0.717  0.00  0.00     0.019 A 
ATOM     21  C   UNL d   1      14.809  12.105  -1.554  0.00  0.00     0.082 A 
ENDBRANCH   3  15
BRANCH   5  22
ATOM     22  C   UNL d   1      13.676  12.064  -4.779  0.00  0.00     0.141 A 
ATOM     23  O   UNL d   1      14.052  12.071  -5.508  0.00  0.00    -0.302 OA
ATOM     24  C   UNL d   1      13.494  11.897  -6.087  0.00  0.00     0.123 A 
ATOM     25  C   UNL d   1      12.769  11.781  -5.709  0.00  0.00     0.029 A 
ATOM     26  C   UNL d   1      12.882  11.885  -4.902  0.00  0.00     0.030 A 
ENDBRANCH   5  22
TORSDOF 4
ENDMDL
MODEL 2
REMARK VINA RESULT:      46.5      1.109      3.451
REMARK  4 active torsions:
REMARK  status: ('A' for Active; 'I' for Inactive)
REMARK    1  A    between atoms: S_4  and  C_1 
REMARK    2  A    between atoms: N_7  and  C_3 
REMARK    3  A    between atoms: C_11  and  S_4 
REMARK    4  A    between atoms: C_8  and  C_6 
ROOT
ATOM      1  C   UNL d   1      13.893  13.093  -3.066  0.00  0.00     0.210 A 
ATOM      2  N   UNL d   1      13.981  12.967  -2.260  0.00  0.00    -0.205 NA
ATOM      3  C   UNL d   1      13.842  12.357  -3.437  0.00  0.00     0.199 A 
ATOM      4  O   UNL d   1      13.899  11.780  -2.853  0.00  0.00    -0.268 OA
ATOM      5  C   UNL d   1      13.985  12.153  -2.129  0.00  0.00     0.208 A 
ENDROOT
BRANCH   1   6
ATOM      6  S   UNL d   1      13.870  13.858  -3.371  0.00  0.00     0.230 S 
ATOM      7  O   UNL d   1      14.499  14.373  -3.254  0.00  0.00    -0.215 OA
ATOM      8  O   UNL d   1      13.206  14.112  -3.799  0.00  0.00    -0.215 OA
BRANCH   6   9
ATOM      9  C   UNL d   1      13.839  14.621  -3.678  0.00  0.00     0.090 A 
ATOM     10  C   UNL d   1      13.187  14.857  -4.117  0.00  0.00     0.011 A 
ATOM     11  C   UNL d   1      13.146  15.623  -4.431  0.00  0.00     0.001 A 
ATOM     12  C   UNL d   1      13.769  16.151  -4.298  0.00  0.00     0.000 A 
ATOM     13  C   UNL d   1      14.428  15.913  -3.855  0.00  0.00     0.001 A 
ATOM     14  C   UNL d   1      14.462  15.149  -3.545  0.00  0.00     0.011 A 
ENDBRANCH   6   9
ENDBRANCH   1   6
BRANCH   3  15
ATOM     15  N   UNL d   1      13.750  12.224  -4.246  0.00  0.00    -0.283 N 
ATOM     16  C   UNL d   1      13.107  11.998  -4.469  0.00  0.00     0.082 A 
ATOM     17  C   UNL d   1      12.769  11.795  -5.232  0.00  0.00     0.019 A 
ATOM     18  C   UNL d   1      13.035  11.787  -5.917  0.00  0.00     0.002 A 
ATOM     19  C   UNL d   1      13.815  11.995  -6.149  0.00  0.00     0.002 A 
ATOM     20  C   UNL d   1      14.456  12.262  -5.598  0.00  0.00     0.019 A 
ATOM     21  C   UNL d   1      14.419  12.365  -4.727  0.00  0.00     0.082 A 
ENDBRANCH   3  15
BRANCH   5  22
ATOM     22  C   UNL d   1      14.072  12.028  -1.327  0.00  0.00     0.141 A 
ATOM     23  O   UNL d   1      13.665  11.893  -0.628  0.00  0.00    -0.302 OA
ATOM     24  C   UNL d   1      14.215  11.824  -0.018  0.00  0.00     0.123 A 
ATOM     25  C   UNL d   1      14.965  11.918  -0.348  0.00  0.00     0.029 A 
ATOM     26  C   UNL d   1      14.877  12.044  -1.155  0.00  0.00     0.030 A 
ENDBRANCH   5  22
TORSDOF 4
ENDMDL
