MODEL 1
REMARK VINA RESULT:      -6.1      0.000      0.000
REMARK  4 active torsions:
REMARK  status: ('A' for Active; 'I' for Inactive)
REMARK    1  A    between atoms: N_8  and  C_2 
REMARK    2  A    between atoms: C_9  and  C_3 
REMARK    3  A    between atoms: C_7  and  N_10 
REMARK    4  A    between atoms: N_10  and  N_8 
ROOT
ATOM      1  N   UNL d   1     -41.698-122.635 -52.408  0.00  0.00    -0.219 NA
ATOM      2  C   UNL d   1     -41.446-123.140 -51.820  0.00  0.00     0.215 A 
ATOM      3  C   UNL d   1     -41.523-123.017 -53.135  0.00  0.00     0.090 A 
ATOM      4  S   UNL d   1     -41.123-123.818 -52.167  0.00  0.00    -0.045 SA
ATOM      5  C   UNL d   1     -41.172-123.736 -52.968  0.00  0.00     0.058 A 
ENDROOT
BRANCH   2   6
ATOM      6  N   UNL d   1     -41.500-123.008 -51.009  0.00  0.00    -0.120 NA
BRANCH   6   7
ATOM      7  N   UNL d   1     -41.966-123.490 -50.547  0.00  0.00    -0.127 NA
BRANCH   7   8
ATOM      8  C   UNL d   1     -42.013-123.357 -49.729  0.00  0.00     0.184 A 
ATOM      9  N   UNL d   1     -42.760-123.119 -49.491  0.00  0.00    -0.224 NA
ATOM     10  C   UNL d   1     -43.042-122.933 -48.751  0.00  0.00     0.101 A 
ATOM     11  C   UNL d   1     -42.646-122.937 -48.042  0.00  0.00     0.021 A 
ATOM     12  C   UNL d   1     -41.850-123.132 -47.898  0.00  0.00     0.002 A 
ATOM     13  C   UNL d   1     -41.280-123.364 -48.422  0.00  0.00     0.003 A 
ATOM     14  C   UNL d   1     -41.342-123.470 -49.257  0.00  0.00     0.041 A 
ENDBRANCH   7   8
ENDBRANCH   6   7
ENDBRANCH   2   6
BRANCH   3  15
ATOM     15  C   UNL d   1     -41.699-122.675 -53.877  0.00  0.00     0.018 A 
ATOM     16  C   UNL d   1     -41.427-123.000 -54.573  0.00  0.00     0.002 A 
ATOM     17  C   UNL d   1     -41.608-122.651 -55.297  0.00  0.00     0.011 A 
ATOM     18  C   UNL d   1     -42.068-121.967 -55.319  0.00  0.00     0.058 A 
ATOM     19  C   UNL d   1     -42.351-121.626 -54.627  0.00  0.00     0.011 A 
ATOM     20 CL   UNL d   1     -42.244-121.625 -56.061  0.00  0.00    -0.082 Cl
ATOM     21  C   UNL d   1     -42.168-121.977 -53.896  0.00  0.00     0.002 A 
ENDBRANCH   3  15
TORSDOF 4
ENDMDL
