MODEL 1
REMARK VINA RESULT:      -2.3      0.000      0.000
REMARK  4 active torsions:
REMARK  status: ('A' for Active; 'I' for Inactive)
REMARK    1  A    between atoms: C_3  and  C_1 
REMARK       I    between atoms: N_8  and  C_3 
REMARK    2  A    between atoms: C_10  and  C_7 
REMARK    3  A    between atoms: C_9  and  N_8 
REMARK    4  A    between atoms: O_14  and  C_10 
ROOT
ATOM      1  C   UNL d   1      29.238  16.380 -23.686  0.00  0.00     0.081 A 
ATOM      2  C   UNL d   1      30.005  16.205 -23.446  0.00  0.00     0.090 A 
ATOM      3  C   UNL d   1      28.598  16.094 -23.251  0.00  0.00     0.007 A 
ATOM      4  C   UNL d   1      30.136  15.744 -22.772  0.00  0.00     0.019 A 
ATOM      5  C   UNL d   1      28.725  15.632 -22.576  0.00  0.00     0.000 A 
ATOM      6  C   UNL d   1      29.500  15.459 -22.339  0.00  0.00     0.002 A 
ENDROOT
BRANCH   2   7
ATOM      7  N   UNL d   1      30.597  16.518 -23.919  0.00  0.00    -0.207 NA
ATOM      8  C   UNL d   1      31.387  16.382 -23.726  0.00  0.00     0.287 C 
ATOM      9  O   UNL d   1      31.578  15.937 -23.063  0.00  0.00    -0.265 OA
BRANCH   8  10
ATOM     10  C   UNL d   1      31.990  16.693 -24.196  0.00  0.00     0.108 A 
ATOM     11  C   UNL d   1      32.484  16.265 -24.702  0.00  0.00     0.094 A 
ATOM     12  N   UNL d   1      33.002  16.799 -25.058  0.00  0.00    -0.219 NA
ATOM     13  C   UNL d   1      32.460  15.453 -24.825  0.00  0.00     0.021 C 
ATOM     14  C   UNL d   1      32.829  17.547 -24.775  0.00  0.00     0.215 A 
ATOM     15  S   UNL d   1      32.204  17.484 -24.242  0.00  0.00    -0.041 SA
ATOM     16  N   UNL d   1      33.212  18.249 -24.984  0.00  0.00    -0.120 N 
ENDBRANCH   8  10
ENDBRANCH   2   7
BRANCH   1  17
ATOM     17  C   UNL d   1      29.110  16.839 -24.356  0.00  0.00     0.297 C 
ATOM     18  O   UNL d   1      29.115  16.486 -25.095  0.00  0.00    -0.259 OA
BRANCH  17  19
ATOM     19  O   UNL d   1      28.977  17.642 -24.279  0.00  0.00    -0.296 OA
ATOM     20  C   UNL d   1      28.735  18.083 -24.934  0.00  0.00     0.185 C 
ENDBRANCH  17  19
ENDBRANCH   1  17
TORSDOF 4
ENDMDL
MODEL 2
REMARK VINA RESULT:      -1.7      1.633      3.554
REMARK  4 active torsions:
REMARK  status: ('A' for Active; 'I' for Inactive)
REMARK    1  A    between atoms: C_3  and  C_1 
REMARK       I    between atoms: N_8  and  C_3 
REMARK    2  A    between atoms: C_10  and  C_7 
REMARK    3  A    between atoms: C_9  and  N_8 
REMARK    4  A    between atoms: O_14  and  C_10 
ROOT
ATOM      1  C   UNL d   1      32.453  17.063 -24.082  0.00  0.00     0.081 A 
ATOM      2  C   UNL d   1      31.775  16.637 -24.270  0.00  0.00     0.090 A 
ATOM      3  C   UNL d   1      33.187  16.684 -24.079  0.00  0.00     0.007 A 
ATOM      4  C   UNL d   1      31.826  15.833 -24.454  0.00  0.00     0.019 A 
ATOM      5  C   UNL d   1      33.241  15.878 -24.263  0.00  0.00     0.000 A 
ATOM      6  C   UNL d   1      32.554  15.454 -24.451  0.00  0.00     0.002 A 
ENDROOT
BRANCH   2   7
ATOM      7  N   UNL d   1      31.079  17.070 -24.256  0.00  0.00    -0.207 NA
ATOM      8  C   UNL d   1      30.378  16.721 -24.517  0.00  0.00     0.287 C 
ATOM      9  O   UNL d   1      30.380  15.947 -24.788  0.00  0.00    -0.265 OA
BRANCH   8  10
ATOM     10  C   UNL d   1      29.673  17.149 -24.507  0.00  0.00     0.108 A 
ATOM     11  C   UNL d   1      29.005  16.978 -24.051  0.00  0.00     0.094 A 
ATOM     12  N   UNL d   1      28.433  17.548 -24.217  0.00  0.00    -0.219 NA
ATOM     13  C   UNL d   1      28.928  16.350 -23.526  0.00  0.00     0.021 C 
ATOM     14  C   UNL d   1      28.746  18.065 -24.770  0.00  0.00     0.215 A 
ATOM     15  S   UNL d   1      29.510  17.821 -24.950  0.00  0.00    -0.041 SA
ATOM     16  N   UNL d   1      28.363  18.722 -25.095  0.00  0.00    -0.120 N 
ENDBRANCH   8  10
ENDBRANCH   2   7
BRANCH   1  17
ATOM     17  C   UNL d   1      32.402  17.863 -23.899  0.00  0.00     0.297 C 
ATOM     18  O   UNL d   1      32.402  18.417 -24.502  0.00  0.00    -0.259 OA
BRANCH  17  19
ATOM     19  O   UNL d   1      32.351  18.098 -23.118  0.00  0.00    -0.296 OA
ATOM     20  C   UNL d   1      32.850  18.692 -22.835  0.00  0.00     0.185 C 
ENDBRANCH  17  19
ENDBRANCH   1  17
TORSDOF 4
ENDMDL
MODEL 3
REMARK VINA RESULT:      -1.3      1.111      2.109
REMARK  4 active torsions:
REMARK  status: ('A' for Active; 'I' for Inactive)
REMARK    1  A    between atoms: C_3  and  C_1 
REMARK       I    between atoms: N_8  and  C_3 
REMARK    2  A    between atoms: C_10  and  C_7 
REMARK    3  A    between atoms: C_9  and  N_8 
REMARK    4  A    between atoms: O_14  and  C_10 
ROOT
ATOM      1  C   UNL d   1      29.047  16.910 -23.824  0.00  0.00     0.081 A 
ATOM      2  C   UNL d   1      29.665  17.294 -24.207  0.00  0.00     0.090 A 
ATOM      3  C   UNL d   1      28.297  17.255 -23.811  0.00  0.00     0.007 A 
ATOM      4  C   UNL d   1      29.539  18.022 -24.577  0.00  0.00     0.019 A 
ATOM      5  C   UNL d   1      28.167  17.984 -24.181  0.00  0.00     0.000 A 
ATOM      6  C   UNL d   1      28.794  18.366 -24.565  0.00  0.00     0.002 A 
ENDROOT
BRANCH   2   7
ATOM      7  N   UNL d   1      30.384  16.900 -24.184  0.00  0.00    -0.207 NA
ATOM      8  C   UNL d   1      31.062  17.274 -24.469  0.00  0.00     0.287 C 
ATOM      9  O   UNL d   1      31.015  18.035 -24.771  0.00  0.00    -0.265 OA
BRANCH   8  10
ATOM     10  C   UNL d   1      31.790  16.887 -24.450  0.00  0.00     0.108 A 
ATOM     11  C   UNL d   1      32.414  17.045 -23.932  0.00  0.00     0.094 A 
ATOM     12  N   UNL d   1      33.029  16.526 -24.113  0.00  0.00    -0.219 NA
ATOM     13  C   UNL d   1      32.418  17.618 -23.343  0.00  0.00     0.021 C 
ATOM     14  C   UNL d   1      32.786  16.053 -24.736  0.00  0.00     0.215 A 
ATOM     15  S   UNL d   1      32.021  16.274 -24.946  0.00  0.00    -0.041 SA
ATOM     16  N   UNL d   1      33.228  15.454 -25.097  0.00  0.00    -0.120 N 
ENDBRANCH   8  10
ENDBRANCH   2   7
BRANCH   1  17
ATOM     17  C   UNL d   1      29.173  16.186 -23.456  0.00  0.00     0.297 C 
ATOM     18  O   UNL d   1      29.007  15.492 -23.858  0.00  0.00    -0.259 OA
BRANCH  17  19
ATOM     19  O   UNL d   1      29.464  16.165 -22.692  0.00  0.00    -0.296 OA
ATOM     20  C   UNL d   1      29.468  15.453 -22.274  0.00  0.00     0.185 C 
ENDBRANCH  17  19
ENDBRANCH   1  17
TORSDOF 4
ENDMDL
MODEL 4
REMARK VINA RESULT:      -1.3      1.519      2.181
REMARK  4 active torsions:
REMARK  status: ('A' for Active; 'I' for Inactive)
REMARK    1  A    between atoms: C_3  and  C_1 
REMARK       I    between atoms: N_8  and  C_3 
REMARK    2  A    between atoms: C_10  and  C_7 
REMARK    3  A    between atoms: C_9  and  N_8 
REMARK    4  A    between atoms: O_14  and  C_10 
ROOT
ATOM      1  C   UNL d   1      30.347  16.879 -24.535  0.00  0.00     0.081 A 
ATOM      2  C   UNL d   1      31.168  16.915 -24.575  0.00  0.00     0.090 A 
ATOM      3  C   UNL d   1      29.967  16.148 -24.580  0.00  0.00     0.007 A 
ATOM      4  C   UNL d   1      31.612  16.222 -24.660  0.00  0.00     0.019 A 
ATOM      5  C   UNL d   1      30.408  15.453 -24.665  0.00  0.00     0.000 A 
ATOM      6  C   UNL d   1      31.235  15.494 -24.704  0.00  0.00     0.002 A 
ENDROOT
BRANCH   2   7
ATOM      7  N   UNL d   1      31.486  17.669 -24.525  0.00  0.00    -0.207 NA
ATOM      8  C   UNL d   1      32.276  17.764 -24.307  0.00  0.00     0.287 C 
ATOM      9  O   UNL d   1      32.739  17.107 -24.142  0.00  0.00    -0.265 OA
BRANCH   8  10
ATOM     10  C   UNL d   1      32.604  18.519 -24.254  0.00  0.00     0.108 A 
ATOM     11  C   UNL d   1      32.896  18.877 -23.569  0.00  0.00     0.094 A 
ATOM     12  N   UNL d   1      33.170  19.628 -23.774  0.00  0.00    -0.219 NA
ATOM     13  C   UNL d   1      32.910  18.542 -22.818  0.00  0.00     0.021 C 
ATOM     14  C   UNL d   1      33.048  19.731 -24.577  0.00  0.00     0.215 A 
ATOM     15  S   UNL d   1      32.699  19.047 -24.875  0.00  0.00    -0.041 SA
ATOM     16  N   UNL d   1      33.240  20.403 -25.018  0.00  0.00    -0.120 N 
ENDBRANCH   8  10
ENDBRANCH   2   7
BRANCH   1  17
ATOM     17  C   UNL d   1      29.908  17.569 -24.451  0.00  0.00     0.297 C 
ATOM     18  O   UNL d   1      29.864  17.935 -23.720  0.00  0.00    -0.259 OA
BRANCH  17  19
ATOM     19  O   UNL d   1      29.517  17.882 -25.097  0.00  0.00    -0.296 OA
ATOM     20  C   UNL d   1      28.907  18.427 -24.983  0.00  0.00     0.185 C 
ENDBRANCH  17  19
ENDBRANCH   1  17
TORSDOF 4
ENDMDL
MODEL 5
REMARK VINA RESULT:      -0.2      5.667      6.784
REMARK  4 active torsions:
REMARK  status: ('A' for Active; 'I' for Inactive)
REMARK    1  A    between atoms: C_3  and  C_1 
REMARK       I    between atoms: N_8  and  C_3 
REMARK    2  A    between atoms: C_10  and  C_7 
REMARK    3  A    between atoms: C_9  and  N_8 
REMARK    4  A    between atoms: O_14  and  C_10 
ROOT
ATOM      1  C   UNL d   1      32.596  22.026 -20.824  0.00  0.00     0.081 A 
ATOM      2  C   UNL d   1      32.799  22.567 -21.409  0.00  0.00     0.090 A 
ATOM      3  C   UNL d   1      32.518  22.280 -20.042  0.00  0.00     0.007 A 
ATOM      4  C   UNL d   1      32.926  23.361 -21.217  0.00  0.00     0.019 A 
ATOM      5  C   UNL d   1      32.644  23.074 -19.846  0.00  0.00     0.000 A 
ATOM      6  C   UNL d   1      32.848  23.615 -20.440  0.00  0.00     0.002 A 
ENDROOT
BRANCH   2   7
ATOM      7  N   UNL d   1      32.861  22.255 -22.164  0.00  0.00    -0.207 NA
ATOM      8  C   UNL d   1      33.059  22.748 -22.794  0.00  0.00     0.287 C 
ATOM      9  O   UNL d   1      33.194  23.547 -22.664  0.00  0.00    -0.265 OA
BRANCH   8  10
ATOM     10  C   UNL d   1      33.124  22.443 -23.558  0.00  0.00     0.108 A 
ATOM     11  C   UNL d   1      33.191  22.882 -24.255  0.00  0.00     0.094 A 
ATOM     12  N   UNL d   1      33.241  22.350 -24.884  0.00  0.00    -0.219 NA
ATOM     13  C   UNL d   1      33.206  23.702 -24.308  0.00  0.00     0.021 C 
ATOM     14  C   UNL d   1      33.204  21.592 -24.577  0.00  0.00     0.215 A 
ATOM     15  S   UNL d   1      33.132  21.647 -23.759  0.00  0.00    -0.041 SA
ATOM     16  N   UNL d   1      33.235  20.888 -25.009  0.00  0.00    -0.120 N 
ENDBRANCH   8  10
ENDBRANCH   2   7
BRANCH   1  17
ATOM     17  C   UNL d   1      32.471  21.237 -21.016  0.00  0.00     0.297 C 
ATOM     18  O   UNL d   1      31.767  21.013 -21.368  0.00  0.00    -0.259 OA
BRANCH  17  19
ATOM     19  O   UNL d   1      33.049  20.683 -20.853  0.00  0.00    -0.296 OA
ATOM     20  C   UNL d   1      32.848  19.885 -20.789  0.00  0.00     0.185 C 
ENDBRANCH  17  19
ENDBRANCH   1  17
TORSDOF 4
ENDMDL
MODEL 6
REMARK VINA RESULT:      -0.2      4.829      5.729
REMARK  4 active torsions:
REMARK  status: ('A' for Active; 'I' for Inactive)
REMARK    1  A    between atoms: C_3  and  C_1 
REMARK       I    between atoms: N_8  and  C_3 
REMARK    2  A    between atoms: C_10  and  C_7 
REMARK    3  A    between atoms: C_9  and  N_8 
REMARK    4  A    between atoms: O_14  and  C_10 
ROOT
ATOM      1  C   UNL d   1      32.786  22.053 -21.138  0.00  0.00     0.081 A 
ATOM      2  C   UNL d   1      33.041  21.279 -21.246  0.00  0.00     0.090 A 
ATOM      3  C   UNL d   1      32.728  22.362 -20.375  0.00  0.00     0.007 A 
ATOM      4  C   UNL d   1      33.240  20.811 -20.594  0.00  0.00     0.019 A 
ATOM      5  C   UNL d   1      32.927  21.897 -19.720  0.00  0.00     0.000 A 
ATOM      6  C   UNL d   1      33.184  21.117 -19.835  0.00  0.00     0.002 A 
ENDROOT
BRANCH   2   7
ATOM      7  N   UNL d   1      33.077  21.031 -22.027  0.00  0.00    -0.207 NA
ATOM      8  C   UNL d   1      33.137  20.226 -22.196  0.00  0.00     0.287 C 
ATOM      9  O   UNL d   1      33.161  19.678 -21.585  0.00  0.00    -0.265 OA
BRANCH   8  10
ATOM     10  C   UNL d   1      33.173  19.966 -22.978  0.00  0.00     0.108 A 
ATOM     11  C   UNL d   1      33.209  19.180 -23.230  0.00  0.00     0.094 A 
ATOM     12  N   UNL d   1      33.238  19.181 -24.055  0.00  0.00    -0.219 NA
ATOM     13  C   UNL d   1      33.215  18.517 -22.744  0.00  0.00     0.021 C 
ATOM     14  C   UNL d   1      33.220  19.960 -24.307  0.00  0.00     0.215 A 
ATOM     15  S   UNL d   1      33.180  20.446 -23.644  0.00  0.00    -0.041 SA
ATOM     16  N   UNL d   1      33.239  20.219 -25.092  0.00  0.00    -0.120 N 
ENDBRANCH   8  10
ENDBRANCH   2   7
BRANCH   1  17
ATOM     17  C   UNL d   1      32.588  22.517 -21.787  0.00  0.00     0.297 C 
ATOM     18  O   UNL d   1      31.812  22.538 -22.049  0.00  0.00    -0.259 OA
BRANCH  17  19
ATOM     19  O   UNL d   1      33.166  22.954 -22.165  0.00  0.00    -0.296 OA
ATOM     20  C   UNL d   1      32.964  23.652 -22.557  0.00  0.00     0.185 C 
ENDBRANCH  17  19
ENDBRANCH   1  17
TORSDOF 4
ENDMDL
MODEL 7
REMARK VINA RESULT:       0.2      2.639      4.373
REMARK  4 active torsions:
REMARK  status: ('A' for Active; 'I' for Inactive)
REMARK    1  A    between atoms: C_3  and  C_1 
REMARK       I    between atoms: N_8  and  C_3 
REMARK    2  A    between atoms: C_10  and  C_7 
REMARK    3  A    between atoms: C_9  and  N_8 
REMARK    4  A    between atoms: O_14  and  C_10 
ROOT
ATOM      1  C   UNL d   1      32.950  19.995 -23.206  0.00  0.00     0.081 A 
ATOM      2  C   UNL d   1      32.873  19.509 -23.865  0.00  0.00     0.090 A 
ATOM      3  C   UNL d   1      33.134  20.794 -23.307  0.00  0.00     0.007 A 
ATOM      4  C   UNL d   1      32.980  19.816 -24.625  0.00  0.00     0.019 A 
ATOM      5  C   UNL d   1      33.241  21.105 -24.066  0.00  0.00     0.000 A 
ATOM      6  C   UNL d   1      33.162  20.610 -24.726  0.00  0.00     0.002 A 
ENDROOT
BRANCH   2   7
ATOM      7  N   UNL d   1      32.690  18.726 -23.699  0.00  0.00    -0.207 NA
ATOM      8  C   UNL d   1      32.307  18.269 -24.268  0.00  0.00     0.287 C 
ATOM      9  O   UNL d   1      32.112  18.596 -24.995  0.00  0.00    -0.265 OA
BRANCH   8  10
ATOM     10  C   UNL d   1      32.119  17.481 -24.111  0.00  0.00     0.108 A 
ATOM     11  C   UNL d   1      31.360  17.153 -24.105  0.00  0.00     0.094 A 
ATOM     12  N   UNL d   1      31.434  16.352 -23.922  0.00  0.00    -0.219 NA
ATOM     13  C   UNL d   1      30.660  17.556 -24.255  0.00  0.00     0.021 C 
ATOM     14  C   UNL d   1      32.230  16.189 -23.817  0.00  0.00     0.215 A 
ATOM     15  S   UNL d   1      32.654  16.885 -23.933  0.00  0.00    -0.041 SA
ATOM     16  N   UNL d   1      32.557  15.454 -23.626  0.00  0.00    -0.120 N 
ENDBRANCH   8  10
ENDBRANCH   2   7
BRANCH   1  17
ATOM     17  C   UNL d   1      32.844  19.688 -22.451  0.00  0.00     0.297 C 
ATOM     18  O   UNL d   1      33.241  19.007 -22.231  0.00  0.00    -0.259 OA
BRANCH  17  19
ATOM     19  O   UNL d   1      32.344  20.066 -21.926  0.00  0.00    -0.296 OA
ATOM     20  C   UNL d   1      32.543  20.106 -21.125  0.00  0.00     0.185 C 
ENDBRANCH  17  19
ENDBRANCH   1  17
TORSDOF 4
ENDMDL
MODEL 8
REMARK VINA RESULT:       0.3      1.620      3.552
REMARK  4 active torsions:
REMARK  status: ('A' for Active; 'I' for Inactive)
REMARK    1  A    between atoms: C_3  and  C_1 
REMARK       I    between atoms: N_8  and  C_3 
REMARK    2  A    between atoms: C_10  and  C_7 
REMARK    3  A    between atoms: C_9  and  N_8 
REMARK    4  A    between atoms: O_14  and  C_10 
ROOT
ATOM      1  C   UNL d   1      32.116  17.348 -24.368  0.00  0.00     0.081 A 
ATOM      2  C   UNL d   1      31.711  16.647 -24.226  0.00  0.00     0.090 A 
ATOM      3  C   UNL d   1      32.881  17.323 -24.676  0.00  0.00     0.007 A 
ATOM      4  C   UNL d   1      32.066  15.919 -24.390  0.00  0.00     0.019 A 
ATOM      5  C   UNL d   1      33.241  16.595 -24.842  0.00  0.00     0.000 A 
ATOM      6  C   UNL d   1      32.827  15.892 -24.696  0.00  0.00     0.002 A 
ENDROOT
BRANCH   2   7
ATOM      7  N   UNL d   1      30.955  16.739 -23.920  0.00  0.00    -0.207 NA
ATOM      8  C   UNL d   1      30.400  16.138 -24.020  0.00  0.00     0.287 C 
ATOM      9  O   UNL d   1      30.603  15.453 -24.424  0.00  0.00    -0.265 OA
BRANCH   8  10
ATOM     10  C   UNL d   1      29.637  16.221 -23.716  0.00  0.00     0.108 A 
ATOM     11  C   UNL d   1      29.360  15.909 -23.003  0.00  0.00     0.094 A 
ATOM     12  N   UNL d   1      28.569  16.129 -22.923  0.00  0.00    -0.219 NA
ATOM     13  C   UNL d   1      29.797  15.460 -22.471  0.00  0.00     0.021 C 
ATOM     14  C   UNL d   1      28.362  16.571 -23.580  0.00  0.00     0.215 A 
ATOM     15  S   UNL d   1      29.020  16.629 -24.071  0.00  0.00    -0.041 SA
ATOM     16  N   UNL d   1      27.620  16.905 -23.730  0.00  0.00    -0.120 N 
ENDBRANCH   8  10
ENDBRANCH   2   7
BRANCH   1  17
ATOM     17  C   UNL d   1      31.761  18.071 -24.205  0.00  0.00     0.297 C 
ATOM     18  O   UNL d   1      31.141  18.333 -24.671  0.00  0.00    -0.259 OA
BRANCH  17  19
ATOM     19  O   UNL d   1      32.031  18.523 -23.579  0.00  0.00    -0.296 OA
ATOM     20  C   UNL d   1      31.677  19.251 -23.416  0.00  0.00     0.185 C 
ENDBRANCH  17  19
ENDBRANCH   1  17
TORSDOF 4
ENDMDL
