MODEL 1
REMARK VINA RESULT:      19.2      0.000      0.000
REMARK  2 active torsions:
REMARK  status: ('A' for Active; 'I' for Inactive)
REMARK    1  A    between atoms: C_5  and  C_1 
REMARK    2  A    between atoms: C_7  and  C_3 
REMARK       I    between atoms: N_8  and  C_7 
ROOT
ATOM      1  C   UNL d   1      45.861 -17.590  44.417  0.00  0.00     0.086 A 
ATOM      2  S   UNL d   1      46.099 -16.817  44.233  0.00  0.00    -0.080 SA
ATOM      3  C   UNL d   1      45.548 -16.300  44.568  0.00  0.00     0.053 A 
ATOM      4  C   UNL d   1      45.168 -17.547  44.862  0.00  0.00     0.012 A 
ATOM      5  C   UNL d   1      44.975 -16.748  44.955  0.00  0.00     0.009 A 
ENDROOT
BRANCH   3   6
ATOM      6  C   UNL d   1      45.569 -15.477  44.522  0.00  0.00     0.117 A 
ATOM      7  N   UNL d   1      45.061 -15.009  44.072  0.00  0.00    -0.238 NA
ATOM      8  C   UNL d   1      45.282 -14.219  44.191  0.00  0.00     0.088 A 
ATOM      9  C   UNL d   1      44.980 -13.514  43.890  0.00  0.00     0.020 A 
ATOM     10  C   UNL d   1      45.922 -14.206  44.711  0.00  0.00     0.049 A 
ATOM     11  C   UNL d   1      45.319 -12.801  44.111  0.00  0.00     0.002 A 
ATOM     12  C   UNL d   1      45.959 -12.789  44.631  0.00  0.00     0.001 A 
ATOM     13  C   UNL d   1      46.261 -13.489  44.931  0.00  0.00     0.008 A 
ATOM     14  S   UNL d   1      46.099 -14.989  44.915  0.00  0.00    -0.066 SA
ENDBRANCH   3   6
BRANCH   1  15
ATOM     15  C   UNL d   1      46.254 -18.282  44.192  0.00  0.00     0.271 C 
ATOM     16  N   UNL d   1      46.251 -18.511  43.401  0.00  0.00    -0.267 N 
ATOM     17  C   UNL d   1      46.643 -19.199  43.180  0.00  0.00     0.110 A 
ATOM     18  C   UNL d   1      45.862 -18.057  42.845  0.00  0.00     0.110 A 
ATOM     19  C   UNL d   1      46.644 -19.433  42.394  0.00  0.00     0.142 A 
ATOM     20  O   UNL d   1      46.252 -18.977  41.830  0.00  0.00    -0.300 OA
ATOM     21  C   UNL d   1      45.860 -18.288  42.052  0.00  0.00     0.142 A 
ATOM     22  O   UNL d   1      46.646 -18.737  44.756  0.00  0.00    -0.266 OA
ENDBRANCH   1  15
TORSDOF 2
ENDMDL
