MODEL 1
REMARK VINA RESULT:      62.9      0.000      0.000
REMARK  3 active torsions:
REMARK  status: ('A' for Active; 'I' for Inactive)
REMARK    1  A    between atoms: C_10  and  C_1 
REMARK    2  A    between atoms: C_8  and  N_5 
REMARK    3  A    between atoms: N_9  and  C_10 
ROOT
ATOM      1  C   UNL d   1     -49.578  25.874  33.407  0.00  0.00     0.084 C 
ENDROOT
BRANCH   1   2
ATOM      2  N   UNL d   1     -49.304  26.574  33.749  0.00  0.00    -0.300 N 
ATOM      3  C   UNL d   1     -49.527  27.301  33.434  0.00  0.00     0.100 A 
ATOM      4  C   UNL d   1     -49.253  28.005  33.776  0.00  0.00     0.101 A 
ATOM      5  N   UNL d   1     -48.756  27.975  34.432  0.00  0.00    -0.286 N 
ATOM      6  C   UNL d   1     -48.526  27.240  34.756  0.00  0.00     0.101 A 
ATOM      7  C   UNL d   1     -48.808  26.532  34.405  0.00  0.00     0.100 A 
BRANCH   5   8
ATOM      8  C   UNL d   1     -48.475  28.662  34.783  0.00  0.00     0.148 A 
ATOM      9  N   UNL d   1     -48.532  29.382  34.357  0.00  0.00    -0.227 NA
ATOM     10  C   UNL d   1     -48.248  30.086  34.707  0.00  0.00     0.101 A 
ATOM     11  C   UNL d   1     -47.918  30.061  35.462  0.00  0.00     0.021 A 
ATOM     12  C   UNL d   1     -47.865  29.345  35.877  0.00  0.00     0.005 A 
ATOM     13  C   UNL d   1     -48.143  28.649  35.537  0.00  0.00     0.037 A 
ENDBRANCH   5   8
ENDBRANCH   1   2
BRANCH   1  14
ATOM     14  C   UNL d   1     -50.391  25.711  33.382  0.00  0.00     0.059 A 
ATOM     15  C   UNL d   1     -50.657  24.914  33.382  0.00  0.00     0.214 A 
ATOM     16  C   UNL d   1     -51.466  24.772  33.357  0.00  0.00     0.121 A 
ATOM     17  O   UNL d   1     -50.119  24.297  33.408  0.00  0.00    -0.285 OA
ATOM     18  N   UNL d   1     -51.732  23.994  33.358  0.00  0.00    -0.241 NA
ATOM     19  C   UNL d   1     -52.002  25.387  33.332  0.00  0.00     0.032 A 
ATOM     20  C   UNL d   1     -52.554  23.823  33.332  0.00  0.00     0.099 A 
ATOM     21  C   UNL d   1     -53.095  24.443  33.307  0.00  0.00     0.021 A 
ATOM     22  C   UNL d   1     -52.820  25.230  33.307  0.00  0.00     0.004 A 
ATOM     23  C   UNL d   1     -51.749  26.166  33.331  0.00  0.00     0.059 A 
ATOM     24  C   UNL d   1     -50.921  26.331  33.357  0.00  0.00     0.016 A 
ATOM     25 CL   UNL d   1     -52.293  26.789  33.306  0.00  0.00    -0.082 Cl
ENDBRANCH   1  14
TORSDOF 3
ENDMDL
