MODEL 1
REMARK VINA RESULT:      -4.3      0.000      0.000
REMARK  3 active torsions:
REMARK  status: ('A' for Active; 'I' for Inactive)
REMARK    1  A    between atoms: C_7  and  C_1 
REMARK    2  A    between atoms: N_5  and  C_9 
REMARK    3  A    between atoms: C_14  and  C_7 
ROOT
ATOM      1  C   UNL d   1      58.112  -0.059  30.099  0.00  0.00     0.139 A 
ATOM      2  C   UNL d   1      58.896  -0.784  29.302  0.00  0.00     0.064 A 
ATOM      3  C   UNL d   1      58.718  -0.014  29.537  0.00  0.00     0.220 A 
ATOM      4  C   UNL d   1      58.405  -1.306  29.714  0.00  0.00     0.106 A 
ATOM      5  O   UNL d   1      57.918  -0.854  30.209  0.00  0.00    -0.304 OA
ATOM      6  C   UNL d   1      58.468  -2.110  29.583  0.00  0.00     0.067 A 
ATOM      7  C   UNL d   1      59.447  -1.073  28.762  0.00  0.00     0.009 A 
ATOM      8  O   UNL d   1      59.073   0.682  29.268  0.00  0.00    -0.284 OA
ATOM      9  C   UNL d   1      59.020  -2.399  29.041  0.00  0.00     0.198 A 
ATOM     10  C   UNL d   1      59.506  -1.882  28.634  0.00  0.00     0.042 A 
ATOM     11  O   UNL d   1      59.080  -3.212  28.913  0.00  0.00    -0.286 OA
ENDROOT
BRANCH   1  12
ATOM     12  C   UNL d   1      57.758   0.579  30.487  0.00  0.00     0.028 C 
BRANCH  12  13
ATOM     13  C   UNL d   1      57.500   0.506  31.272  0.00  0.00     0.002 A 
ATOM     14  C   UNL d   1      56.732   0.255  31.419  0.00  0.00     0.002 A 
ATOM     15  C   UNL d   1      56.464   0.178  32.191  0.00  0.00     0.024 A 
ATOM     16  C   UNL d   1      56.973   0.355  32.828  0.00  0.00     0.127 A 
ATOM     17  C   UNL d   1      57.747   0.608  32.675  0.00  0.00     0.024 A 
ATOM     18  C   UNL d   1      58.006   0.682  31.891  0.00  0.00     0.002 A 
BRANCH  16  19
ATOM     19  N   UNL d   1      56.699   0.276  33.605  0.00  0.00    -0.114 N 
ATOM     20  O   UNL d   1      57.094   0.670  34.216  0.00  0.00    -0.532 OA
ATOM     21  O   UNL d   1      56.043  -0.186  33.779  0.00  0.00    -0.532 OA
ENDBRANCH  16  19
ENDBRANCH  12  13
ENDBRANCH   1  12
TORSDOF 3
ENDMDL
MODEL 2
REMARK VINA RESULT:      -4.1      1.793      4.428
REMARK  3 active torsions:
REMARK  status: ('A' for Active; 'I' for Inactive)
REMARK    1  A    between atoms: C_7  and  C_1 
REMARK    2  A    between atoms: N_5  and  C_9 
REMARK    3  A    between atoms: C_14  and  C_7 
ROOT
ATOM      1  C   UNL d   1      57.965  -0.669  30.243  0.00  0.00     0.139 A 
ATOM      2  C   UNL d   1      57.488  -0.171  31.384  0.00  0.00     0.064 A 
ATOM      3  C   UNL d   1      57.986  -0.012  30.747  0.00  0.00     0.220 A 
ATOM      4  C   UNL d   1      57.158  -0.922  31.280  0.00  0.00     0.106 A 
ATOM      5  O   UNL d   1      57.456  -1.230  30.571  0.00  0.00    -0.304 OA
ATOM      6  C   UNL d   1      56.639  -1.218  31.837  0.00  0.00     0.067 A 
ATOM      7  C   UNL d   1      57.293   0.277  32.048  0.00  0.00     0.009 A 
ATOM      8  O   UNL d   1      58.429   0.674  30.624  0.00  0.00    -0.284 OA
ATOM      9  C   UNL d   1      56.445  -0.769  32.502  0.00  0.00     0.198 A 
ATOM     10  C   UNL d   1      56.771  -0.026  32.605  0.00  0.00     0.042 A 
ATOM     11  O   UNL d   1      55.920  -1.072  33.062  0.00  0.00    -0.286 OA
ENDROOT
BRANCH   1  12
ATOM     12  C   UNL d   1      58.381  -0.754  29.535  0.00  0.00     0.028 C 
BRANCH  12  13
ATOM     13  C   UNL d   1      58.831  -1.435  29.388  0.00  0.00     0.002 A 
ATOM     14  C   UNL d   1      59.641  -1.418  29.524  0.00  0.00     0.002 A 
ATOM     15  C   UNL d   1      60.098  -2.085  29.383  0.00  0.00     0.024 A 
ATOM     16  C   UNL d   1      59.737  -2.784  29.100  0.00  0.00     0.127 A 
ATOM     17  C   UNL d   1      58.920  -2.797  28.964  0.00  0.00     0.024 A 
ATOM     18  C   UNL d   1      58.470  -2.116  29.111  0.00  0.00     0.002 A 
BRANCH  16  19
ATOM     19  N   UNL d   1      60.201  -3.454  28.959  0.00  0.00    -0.114 N 
ATOM     20  O   UNL d   1      61.019  -3.413  29.077  0.00  0.00    -0.532 OA
ATOM     21  O   UNL d   1      59.864  -4.158  28.705  0.00  0.00    -0.532 OA
ENDBRANCH  16  19
ENDBRANCH  12  13
ENDBRANCH   1  12
TORSDOF 3
ENDMDL
MODEL 3
REMARK VINA RESULT:      -3.8      1.198      1.381
REMARK  3 active torsions:
REMARK  status: ('A' for Active; 'I' for Inactive)
REMARK    1  A    between atoms: C_7  and  C_1 
REMARK    2  A    between atoms: N_5  and  C_9 
REMARK    3  A    between atoms: C_14  and  C_7 
ROOT
ATOM      1  C   UNL d   1      58.220   0.312  30.149  0.00  0.00     0.139 A 
ATOM      2  C   UNL d   1      59.022  -0.101  29.167  0.00  0.00     0.064 A 
ATOM      3  C   UNL d   1      58.325   0.309  29.328  0.00  0.00     0.220 A 
ATOM      4  C   UNL d   1      59.352  -0.352  29.883  0.00  0.00     0.106 A 
ATOM      5  O   UNL d   1      58.852  -0.095  30.492  0.00  0.00    -0.304 OA
ATOM      6  C   UNL d   1      60.051  -0.774  29.881  0.00  0.00     0.067 A 
ATOM      7  C   UNL d   1      59.398  -0.276  28.455  0.00  0.00     0.009 A 
ATOM      8  O   UNL d   1      57.816   0.656  28.777  0.00  0.00    -0.284 OA
ATOM      9  C   UNL d   1      60.427  -0.949  29.167  0.00  0.00     0.198 A 
ATOM     10  C   UNL d   1      60.101  -0.701  28.459  0.00  0.00     0.042 A 
ATOM     11  O   UNL d   1      61.133  -1.376  29.171  0.00  0.00    -0.286 OA
ENDROOT
BRANCH   1  12
ATOM     12  C   UNL d   1      57.594   0.660  30.559  0.00  0.00     0.028 C 
BRANCH  12  13
ATOM     13  C   UNL d   1      57.269   0.290  31.227  0.00  0.00     0.002 A 
ATOM     14  C   UNL d   1      57.295   0.675  31.952  0.00  0.00     0.002 A 
ATOM     15  C   UNL d   1      56.977   0.320  32.620  0.00  0.00     0.024 A 
ATOM     16  C   UNL d   1      56.626  -0.436  32.562  0.00  0.00     0.127 A 
ATOM     17  C   UNL d   1      56.602  -0.821  31.830  0.00  0.00     0.024 A 
ATOM     18  C   UNL d   1      56.926  -0.451  31.162  0.00  0.00     0.002 A 
BRANCH  16  19
ATOM     19  N   UNL d   1      56.307  -0.790  33.239  0.00  0.00    -0.114 N 
ATOM     20  O   UNL d   1      56.012  -0.312  33.845  0.00  0.00    -0.532 OA
ATOM     21  O   UNL d   1      56.279  -1.607  33.317  0.00  0.00    -0.532 OA
ENDBRANCH  16  19
ENDBRANCH  12  13
ENDBRANCH   1  12
TORSDOF 3
ENDMDL
MODEL 4
REMARK VINA RESULT:      -2.9      1.861      4.290
REMARK  3 active torsions:
REMARK  status: ('A' for Active; 'I' for Inactive)
REMARK    1  A    between atoms: C_7  and  C_1 
REMARK    2  A    between atoms: N_5  and  C_9 
REMARK    3  A    between atoms: C_14  and  C_7 
ROOT
ATOM      1  C   UNL d   1      57.051   0.027  31.110  0.00  0.00     0.139 A 
ATOM      2  C   UNL d   1      56.509  -0.494  32.211  0.00  0.00     0.064 A 
ATOM      3  C   UNL d   1      56.839  -0.682  31.480  0.00  0.00     0.220 A 
ATOM      4  C   UNL d   1      56.516   0.329  32.299  0.00  0.00     0.106 A 
ATOM      5  O   UNL d   1      56.853   0.651  31.614  0.00  0.00    -0.304 OA
ATOM      6  C   UNL d   1      56.218   0.665  32.981  0.00  0.00     0.067 A 
ATOM      7  C   UNL d   1      56.204  -0.971  32.810  0.00  0.00     0.009 A 
ATOM      8  O   UNL d   1      56.942  -1.439  31.163  0.00  0.00    -0.284 OA
ATOM      9  C   UNL d   1      55.912   0.187  33.580  0.00  0.00     0.198 A 
ATOM     10  C   UNL d   1      55.906  -0.626  33.493  0.00  0.00     0.042 A 
ATOM     11  O   UNL d   1      55.613   0.532  34.268  0.00  0.00    -0.286 OA
ENDROOT
BRANCH   1  12
ATOM     12  C   UNL d   1      57.401   0.104  30.366  0.00  0.00     0.028 C 
BRANCH  12  13
ATOM     13  C   UNL d   1      58.224   0.181  30.293  0.00  0.00     0.002 A 
ATOM     14  C   UNL d   1      58.604  -0.172  29.656  0.00  0.00     0.002 A 
ATOM     15  C   UNL d   1      59.418  -0.104  29.571  0.00  0.00     0.024 A 
ATOM     16  C   UNL d   1      59.860   0.325  30.135  0.00  0.00     0.127 A 
ATOM     17  C   UNL d   1      59.473   0.679  30.776  0.00  0.00     0.024 A 
ATOM     18  C   UNL d   1      58.651   0.603  30.850  0.00  0.00     0.002 A 
BRANCH  16  19
ATOM     19  N   UNL d   1      60.681   0.391  30.046  0.00  0.00    -0.114 N 
ATOM     20  O   UNL d   1      61.133   0.682  30.674  0.00  0.00    -0.532 OA
ATOM     21  O   UNL d   1      61.051   0.173  29.347  0.00  0.00    -0.532 OA
ENDBRANCH  16  19
ENDBRANCH  12  13
ENDBRANCH   1  12
TORSDOF 3
ENDMDL
MODEL 5
REMARK VINA RESULT:      -2.5      9.047      9.452
REMARK  3 active torsions:
REMARK  status: ('A' for Active; 'I' for Inactive)
REMARK    1  A    between atoms: C_7  and  C_1 
REMARK    2  A    between atoms: N_5  and  C_9 
REMARK    3  A    between atoms: C_14  and  C_7 
ROOT
ATOM      1  C   UNL d   1      58.786  -9.812  32.601  0.00  0.00     0.139 A 
ATOM      2  C   UNL d   1      58.488  -9.799  31.301  0.00  0.00     0.064 A 
ATOM      3  C   UNL d   1      58.161  -9.803  32.058  0.00  0.00     0.220 A 
ATOM      4  C   UNL d   1      59.312  -9.807  31.370  0.00  0.00     0.106 A 
ATOM      5  O   UNL d   1      59.496  -9.815  32.178  0.00  0.00    -0.304 OA
ATOM      6  C   UNL d   1      59.775  -9.806  30.697  0.00  0.00     0.067 A 
ATOM      7  C   UNL d   1      58.136  -9.791  30.557  0.00  0.00     0.009 A 
ATOM      8  O   UNL d   1      57.357  -9.797  32.251  0.00  0.00    -0.284 OA
ATOM      9  C   UNL d   1      59.422  -9.797  29.951  0.00  0.00     0.198 A 
ATOM     10  C   UNL d   1      58.606  -9.789  29.883  0.00  0.00     0.042 A 
ATOM     11  O   UNL d   1      59.893  -9.796  29.274  0.00  0.00    -0.286 OA
ENDROOT
BRANCH   1  12
ATOM     12  C   UNL d   1      58.718  -9.818  33.424  0.00  0.00     0.028 C 
BRANCH  12  13
ATOM     13  C   UNL d   1      59.254  -9.395  33.895  0.00  0.00     0.002 A 
ATOM     14  C   UNL d   1      58.976  -8.789  34.374  0.00  0.00     0.002 A 
ATOM     15  C   UNL d   1      59.495  -8.363  34.846  0.00  0.00     0.024 A 
ATOM     16  C   UNL d   1      60.310  -8.547  34.837  0.00  0.00     0.127 A 
ATOM     17  C   UNL d   1      60.587  -9.159  34.352  0.00  0.00     0.024 A 
ATOM     18  C   UNL d   1      60.051  -9.581  33.881  0.00  0.00     0.002 A 
BRANCH  16  19
ATOM     19  N   UNL d   1      60.831  -8.115  35.314  0.00  0.00    -0.114 N 
ATOM     20  O   UNL d   1      61.068  -7.360  35.074  0.00  0.00    -0.532 OA
ATOM     21  O   UNL d   1      61.115  -8.423  36.019  0.00  0.00    -0.532 OA
ENDBRANCH  16  19
ENDBRANCH  12  13
ENDBRANCH   1  12
TORSDOF 3
ENDMDL
