MODEL 1
REMARK VINA RESULT:      81.2      0.000      0.000
REMARK  2 active torsions:
REMARK  status: ('A' for Active; 'I' for Inactive)
REMARK    1  A    between atoms: N_4  and  C_1 
REMARK    2  A    between atoms: C_11  and  C_3 
ROOT
ATOM      1  C   UNL d   1     -51.190  26.113  33.564  0.00  0.00     0.148 A 
ATOM      2  N   UNL d   1     -51.582  26.804  33.424  0.00  0.00    -0.228 NA
ATOM      3  C   UNL d   1     -49.987  26.871  33.768  0.00  0.00     0.004 A 
ATOM      4  C   UNL d   1     -50.381  26.147  33.739  0.00  0.00     0.037 A 
ATOM      5  C   UNL d   1     -50.415  27.565  33.621  0.00  0.00     0.018 A 
ATOM      6  C   UNL d   1     -51.224  27.531  33.446  0.00  0.00     0.083 A 
ATOM      7  C   UNL d   1     -50.021  28.284  33.651  0.00  0.00     0.002 A 
ATOM      8  C   UNL d   1     -51.616  28.218  33.307  0.00  0.00     0.019 A 
ATOM      9  C   UNL d   1     -50.448  28.983  33.503  0.00  0.00     0.000 A 
ATOM     10  C   UNL d   1     -51.258  28.949  33.329  0.00  0.00     0.002 A 
ENDROOT
BRANCH   1  11
ATOM     11  N   UNL d   1     -51.548  25.394  33.541  0.00  0.00    -0.286 N 
ATOM     12  C   UNL d   1     -51.161  24.689  33.331  0.00  0.00     0.101 A 
ATOM     13  C   UNL d   1     -51.520  23.966  33.308  0.00  0.00     0.100 A 
ATOM     14  N   UNL d   1     -52.323  23.917  33.505  0.00  0.00    -0.299 N 
ATOM     15  C   UNL d   1     -52.721  24.594  33.713  0.00  0.00     0.100 A 
ATOM     16  C   UNL d   1     -52.693  23.189  33.484  0.00  0.00     0.100 C 
ATOM     17  C   UNL d   1     -52.352  25.346  33.738  0.00  0.00     0.101 A 
ENDBRANCH   1  11
BRANCH   3  18
ATOM     18  C   UNL d   1     -49.201  26.904  33.938  0.00  0.00     0.000 A 
ATOM     19  C   UNL d   1     -48.650  26.521  33.458  0.00  0.00     0.000 A 
ATOM     20  C   UNL d   1     -47.877  26.554  33.625  0.00  0.00     0.000 A 
ATOM     21  C   UNL d   1     -47.593  26.971  34.285  0.00  0.00     0.000 A 
ATOM     22  C   UNL d   1     -48.157  27.355  34.767  0.00  0.00     0.000 A 
ATOM     23  C   UNL d   1     -48.930  27.323  34.600  0.00  0.00     0.000 A 
ENDBRANCH   3  18
TORSDOF 2
ENDMDL
MODEL 2
REMARK VINA RESULT:      83.1      3.210      4.861
REMARK  2 active torsions:
REMARK  status: ('A' for Active; 'I' for Inactive)
REMARK    1  A    between atoms: N_4  and  C_1 
REMARK    2  A    between atoms: C_11  and  C_3 
ROOT
ATOM      1  C   UNL d   1     -48.468  29.275  34.766  0.00  0.00     0.148 A 
ATOM      2  N   UNL d   1     -48.056  29.128  35.443  0.00  0.00    -0.228 NA
ATOM      3  C   UNL d   1     -47.954  30.616  34.777  0.00  0.00     0.004 A 
ATOM      4  C   UNL d   1     -48.416  30.030  34.428  0.00  0.00     0.037 A 
ATOM      5  C   UNL d   1     -47.541  30.437  35.473  0.00  0.00     0.018 A 
ATOM      6  C   UNL d   1     -47.593  29.682  35.811  0.00  0.00     0.083 A 
ATOM      7  C   UNL d   1     -47.081  31.022  35.819  0.00  0.00     0.002 A 
ATOM      8  C   UNL d   1     -47.183  29.534  36.485  0.00  0.00     0.019 A 
ATOM      9  C   UNL d   1     -46.666  30.845  36.518  0.00  0.00     0.000 A 
ATOM     10  C   UNL d   1     -46.717  30.090  36.856  0.00  0.00     0.002 A 
ENDROOT
BRANCH   1  11
ATOM     11  N   UNL d   1     -48.927  28.723  34.403  0.00  0.00    -0.286 N 
ATOM     12  C   UNL d   1     -49.524  28.903  33.853  0.00  0.00     0.101 A 
ATOM     13  C   UNL d   1     -49.985  28.350  33.488  0.00  0.00     0.100 A 
ATOM     14  N   UNL d   1     -49.860  27.550  33.670  0.00  0.00    -0.299 N 
ATOM     15  C   UNL d   1     -49.282  27.352  34.205  0.00  0.00     0.100 A 
ATOM     16  C   UNL d   1     -50.323  26.985  33.306  0.00  0.00     0.100 C 
ATOM     17  C   UNL d   1     -48.802  27.923  34.585  0.00  0.00     0.101 A 
ENDBRANCH   1  11
BRANCH   3  18
ATOM     18  C   UNL d   1     -47.903  31.349  34.449  0.00  0.00     0.000 A 
ATOM     19  C   UNL d   1     -47.208  31.600  34.084  0.00  0.00     0.000 A 
ATOM     20  C   UNL d   1     -47.158  32.321  33.761  0.00  0.00     0.000 A 
ATOM     21  C   UNL d   1     -47.800  32.848  33.778  0.00  0.00     0.000 A 
ATOM     22  C   UNL d   1     -48.501  32.587  34.149  0.00  0.00     0.000 A 
ATOM     23  C   UNL d   1     -48.551  31.866  34.472  0.00  0.00     0.000 A 
ENDBRANCH   3  18
TORSDOF 2
ENDMDL
