MODEL 1
REMARK VINA RESULT:      -3.1      0.000      0.000
REMARK  3 active torsions:
REMARK  status: ('A' for Active; 'I' for Inactive)
REMARK    1  A    between atoms: S_9  and  C_3 
REMARK    2  A    between atoms: C_15  and  S_9 
REMARK    3  A    between atoms: C_11  and  C_15 
ROOT
ATOM      1  N   UNL d   1      32.877  22.378 -20.926  0.00  0.00    -0.263 N 
ATOM      2  C   UNL d   1      32.880  22.779 -21.656  0.00  0.00     0.202 A 
ATOM      3  C   UNL d   1      32.759  22.953 -20.335  0.00  0.00     0.202 A 
ATOM      4  N   UNL d   1      32.766  23.583 -21.519  0.00  0.00    -0.121 NA
ATOM      5  S   UNL d   1      33.000  22.203 -22.255  0.00  0.00    -0.047 SA
ATOM      6  N   UNL d   1      32.691  23.689 -20.695  0.00  0.00    -0.121 NA
ATOM      7  C   UNL d   1      32.992  21.573 -21.071  0.00  0.00     0.074 A 
ATOM      8  C   UNL d   1      33.067  21.461 -21.886  0.00  0.00     0.049 A 
ATOM      9  C   UNL d   1      33.036  20.929 -20.560  0.00  0.00     0.018 A 
ATOM     10  C   UNL d   1      33.186  20.714 -22.181  0.00  0.00     0.008 A 
ATOM     11  C   UNL d   1      33.157  20.172 -20.865  0.00  0.00     0.002 A 
ATOM     12  C   UNL d   1      33.232  20.069 -21.681  0.00  0.00     0.001 A 
ENDROOT
BRANCH   3  13
ATOM     13  S   UNL d   1      32.717  22.803 -19.532  0.00  0.00    -0.047 SA
BRANCH  13  14
ATOM     14  C   UNL d   1      32.830  23.413 -18.994  0.00  0.00     0.045 C 
BRANCH  14  15
ATOM     15  C   UNL d   1      32.861  23.249 -18.185  0.00  0.00     0.036 A 
ATOM     16  S   UNL d   1      32.512  23.702 -17.586  0.00  0.00    -0.086 SA
ATOM     17  C   UNL d   1      32.682  23.337 -16.870  0.00  0.00     0.035 A 
ATOM     18  C   UNL d   1      33.133  22.663 -17.016  0.00  0.00     0.007 A 
ATOM     19  C   UNL d   1      33.240  22.615 -17.833  0.00  0.00     0.007 A 
ENDBRANCH  14  15
ENDBRANCH  13  14
ENDBRANCH   3  13
TORSDOF 3
ENDMDL
MODEL 2
REMARK VINA RESULT:      -2.9      5.326      7.169
REMARK  3 active torsions:
REMARK  status: ('A' for Active; 'I' for Inactive)
REMARK    1  A    between atoms: S_9  and  C_3 
REMARK    2  A    between atoms: C_15  and  S_9 
REMARK    3  A    between atoms: C_11  and  C_15 
ROOT
ATOM      1  N   UNL d   1      30.841  16.542 -24.265  0.00  0.00    -0.263 N 
ATOM      2  C   UNL d   1      30.850  15.716 -24.371  0.00  0.00     0.202 A 
ATOM      3  C   UNL d   1      31.634  16.783 -24.183  0.00  0.00     0.202 A 
ATOM      4  N   UNL d   1      31.629  15.453 -24.355  0.00  0.00    -0.121 NA
ATOM      5  S   UNL d   1      30.052  15.468 -24.455  0.00  0.00    -0.047 SA
ATOM      6  N   UNL d   1      32.116  16.120 -24.237  0.00  0.00    -0.121 NA
ATOM      7  C   UNL d   1      30.056  16.798 -24.283  0.00  0.00     0.074 A 
ATOM      8  C   UNL d   1      29.568  16.143 -24.399  0.00  0.00     0.049 A 
ATOM      9  C   UNL d   1      29.727  17.549 -24.207  0.00  0.00     0.018 A 
ATOM     10  C   UNL d   1      28.763  16.241 -24.438  0.00  0.00     0.008 A 
ATOM     11  C   UNL d   1      28.909  17.643 -24.248  0.00  0.00     0.002 A 
ATOM     12  C   UNL d   1      28.427  16.982 -24.364  0.00  0.00     0.001 A 
ENDROOT
BRANCH   3  13
ATOM     13  S   UNL d   1      31.883  17.553 -24.067  0.00  0.00    -0.047 SA
BRANCH  13  14
ATOM     14  C   UNL d   1      32.650  17.703 -23.815  0.00  0.00     0.045 C 
BRANCH  14  15
ATOM     15  C   UNL d   1      32.865  18.465 -23.578  0.00  0.00     0.036 A 
ATOM     16  S   UNL d   1      33.060  19.092 -24.082  0.00  0.00    -0.086 SA
ATOM     17  C   UNL d   1      33.237  19.742 -23.612  0.00  0.00     0.035 A 
ATOM     18  C   UNL d   1      33.155  19.527 -22.821  0.00  0.00     0.007 A 
ATOM     19  C   UNL d   1      32.925  18.734 -22.807  0.00  0.00     0.007 A 
ENDBRANCH  14  15
ENDBRANCH  13  14
ENDBRANCH   3  13
TORSDOF 3
ENDMDL
MODEL 3
REMARK VINA RESULT:      -2.8      2.286      4.808
REMARK  3 active torsions:
REMARK  status: ('A' for Active; 'I' for Inactive)
REMARK    1  A    between atoms: S_9  and  C_3 
REMARK    2  A    between atoms: C_15  and  S_9 
REMARK    3  A    between atoms: C_11  and  C_15 
ROOT
ATOM      1  N   UNL d   1      33.128  21.220 -21.637  0.00  0.00    -0.263 N 
ATOM      2  C   UNL d   1      33.165  21.373 -20.819  0.00  0.00     0.202 A 
ATOM      3  C   UNL d   1      33.109  20.392 -21.727  0.00  0.00     0.202 A 
ATOM      4  N   UNL d   1      33.168  20.657 -20.414  0.00  0.00    -0.121 NA
ATOM      5  S   UNL d   1      33.185  22.207 -20.723  0.00  0.00    -0.047 SA
ATOM      6  N   UNL d   1      33.133  20.047 -20.981  0.00  0.00    -0.121 NA
ATOM      7  C   UNL d   1      33.126  21.942 -22.036  0.00  0.00     0.074 A 
ATOM      8  C   UNL d   1      33.160  22.551 -21.480  0.00  0.00     0.049 A 
ATOM      9  C   UNL d   1      33.096  22.119 -22.841  0.00  0.00     0.018 A 
ATOM     10  C   UNL d   1      33.165  23.324 -21.728  0.00  0.00     0.008 A 
ATOM     11  C   UNL d   1      33.101  22.906 -23.087  0.00  0.00     0.002 A 
ATOM     12  C   UNL d   1      33.135  23.509 -22.524  0.00  0.00     0.001 A 
ENDROOT
BRANCH   3  13
ATOM     13  S   UNL d   1      33.072  19.995 -22.441  0.00  0.00    -0.047 SA
BRANCH  13  14
ATOM     14  C   UNL d   1      33.074  19.175 -22.456  0.00  0.00     0.045 C 
BRANCH  14  15
ATOM     15  C   UNL d   1      32.917  18.774 -23.162  0.00  0.00     0.036 A 
ATOM     16  S   UNL d   1      32.436  18.105 -23.241  0.00  0.00    -0.086 SA
ATOM     17  C   UNL d   1      32.437  17.893 -24.034  0.00  0.00     0.035 A 
ATOM     18  C   UNL d   1      32.912  18.422 -24.450  0.00  0.00     0.007 A 
ATOM     19  C   UNL d   1      33.207  18.966 -23.903  0.00  0.00     0.007 A 
ENDBRANCH  14  15
ENDBRANCH  13  14
ENDBRANCH   3  13
TORSDOF 3
ENDMDL
MODEL 4
REMARK VINA RESULT:      -2.2      2.063      2.946
REMARK  3 active torsions:
REMARK  status: ('A' for Active; 'I' for Inactive)
REMARK    1  A    between atoms: S_9  and  C_3 
REMARK    2  A    between atoms: C_15  and  S_9 
REMARK    3  A    between atoms: C_11  and  C_15 
ROOT
ATOM      1  N   UNL d   1      33.237  20.848 -23.355  0.00  0.00    -0.263 N 
ATOM      2  C   UNL d   1      33.240  20.894 -24.187  0.00  0.00     0.202 A 
ATOM      3  C   UNL d   1      33.237  21.630 -23.070  0.00  0.00     0.202 A 
ATOM      4  N   UNL d   1      33.241  21.686 -24.409  0.00  0.00    -0.121 NA
ATOM      5  S   UNL d   1      33.241  20.107 -24.479  0.00  0.00    -0.047 SA
ATOM      6  N   UNL d   1      33.239  22.143 -23.712  0.00  0.00    -0.121 NA
ATOM      7  C   UNL d   1      33.236  20.051 -23.139  0.00  0.00     0.074 A 
ATOM      8  C   UNL d   1      33.239  19.592 -23.826  0.00  0.00     0.049 A 
ATOM      9  C   UNL d   1      33.234  19.688 -22.400  0.00  0.00     0.018 A 
ATOM     10  C   UNL d   1      33.238  18.782 -23.770  0.00  0.00     0.008 A 
ATOM     11  C   UNL d   1      33.234  18.864 -22.349  0.00  0.00     0.002 A 
ATOM     12  C   UNL d   1      33.236  18.413 -23.041  0.00  0.00     0.001 A 
ENDROOT
BRANCH   3  13
ATOM     13  S   UNL d   1      33.234  21.845 -22.281  0.00  0.00    -0.047 SA
BRANCH  13  14
ATOM     14  C   UNL d   1      33.101  22.627 -22.068  0.00  0.00     0.045 C 
BRANCH  14  15
ATOM     15  C   UNL d   1      32.856  22.810 -21.300  0.00  0.00     0.036 A 
ATOM     16  S   UNL d   1      32.182  23.248 -21.099  0.00  0.00    -0.086 SA
ATOM     17  C   UNL d   1      32.153  23.294 -20.280  0.00  0.00     0.035 A 
ATOM     18  C   UNL d   1      32.801  22.891 -19.968  0.00  0.00     0.007 A 
ATOM     19  C   UNL d   1      33.232  22.593 -20.607  0.00  0.00     0.007 A 
ENDBRANCH  14  15
ENDBRANCH  13  14
ENDBRANCH   3  13
TORSDOF 3
ENDMDL
MODEL 5
REMARK VINA RESULT:      -1.9      1.373      4.056
REMARK  3 active torsions:
REMARK  status: ('A' for Active; 'I' for Inactive)
REMARK    1  A    between atoms: S_9  and  C_3 
REMARK    2  A    between atoms: C_15  and  S_9 
REMARK    3  A    between atoms: C_11  and  C_15 
ROOT
ATOM      1  N   UNL d   1      33.170  22.370 -21.329  0.00  0.00    -0.263 N 
ATOM      2  C   UNL d   1      33.138  23.166 -21.572  0.00  0.00     0.202 A 
ATOM      3  C   UNL d   1      33.168  21.907 -22.021  0.00  0.00     0.202 A 
ATOM      4  N   UNL d   1      33.117  23.194 -22.394  0.00  0.00    -0.121 NA
ATOM      5  S   UNL d   1      33.139  23.638 -20.877  0.00  0.00    -0.047 SA
ATOM      6  N   UNL d   1      33.136  22.408 -22.672  0.00  0.00    -0.121 NA
ATOM      7  C   UNL d   1      33.190  22.350 -20.504  0.00  0.00     0.074 A 
ATOM      8  C   UNL d   1      33.172  23.126 -20.221  0.00  0.00     0.049 A 
ATOM      9  C   UNL d   1      33.224  21.719 -19.976  0.00  0.00     0.018 A 
ATOM     10  C   UNL d   1      33.187  23.264 -19.421  0.00  0.00     0.008 A 
ATOM     11  C   UNL d   1      33.239  21.866 -19.164  0.00  0.00     0.002 A 
ATOM     12  C   UNL d   1      33.220  22.644 -18.890  0.00  0.00     0.001 A 
ENDROOT
BRANCH   3  13
ATOM     13  S   UNL d   1      33.194  21.090 -22.043  0.00  0.00    -0.047 SA
BRANCH  13  14
ATOM     14  C   UNL d   1      32.911  20.686 -22.699  0.00  0.00     0.045 C 
BRANCH  14  15
ATOM     15  C   UNL d   1      33.033  19.872 -22.768  0.00  0.00     0.036 A 
ATOM     16  S   UNL d   1      33.138  19.457 -23.477  0.00  0.00    -0.086 SA
ATOM     17  C   UNL d   1      33.241  18.665 -23.286  0.00  0.00     0.035 A 
ATOM     18  C   UNL d   1      33.200  18.581 -22.468  0.00  0.00     0.007 A 
ATOM     19  C   UNL d   1      33.071  19.334 -22.152  0.00  0.00     0.007 A 
ENDBRANCH  14  15
ENDBRANCH  13  14
ENDBRANCH   3  13
TORSDOF 3
ENDMDL
MODEL 6
REMARK VINA RESULT:      -1.7      6.599      7.696
REMARK  3 active torsions:
REMARK  status: ('A' for Active; 'I' for Inactive)
REMARK    1  A    between atoms: S_9  and  C_3 
REMARK    2  A    between atoms: C_15  and  S_9 
REMARK    3  A    between atoms: C_11  and  C_15 
ROOT
ATOM      1  N   UNL d   1      29.285  17.227 -24.228  0.00  0.00    -0.263 N 
ATOM      2  C   UNL d   1      28.560  17.621 -24.343  0.00  0.00     0.202 A 
ATOM      3  C   UNL d   1      29.850  17.618 -24.698  0.00  0.00     0.202 A 
ATOM      4  N   UNL d   1      28.675  18.241 -24.872  0.00  0.00    -0.121 NA
ATOM      5  S   UNL d   1      27.987  17.230 -23.870  0.00  0.00    -0.047 SA
ATOM      6  N   UNL d   1      29.479  18.237 -25.092  0.00  0.00    -0.121 NA
ATOM      7  C   UNL d   1      29.162  16.607 -23.696  0.00  0.00     0.074 A 
ATOM      8  C   UNL d   1      28.367  16.605 -23.474  0.00  0.00     0.049 A 
ATOM      9  C   UNL d   1      29.679  16.044 -23.388  0.00  0.00     0.018 A 
ATOM     10  C   UNL d   1      28.096  16.046 -22.950  0.00  0.00     0.008 A 
ATOM     11  C   UNL d   1      29.398  15.479 -22.857  0.00  0.00     0.002 A 
ATOM     12  C   UNL d   1      28.601  15.484 -22.639  0.00  0.00     0.001 A 
ENDROOT
BRANCH   3  13
ATOM     13  S   UNL d   1      30.640  17.415 -24.755  0.00  0.00    -0.047 SA
BRANCH  13  14
ATOM     14  C   UNL d   1      31.185  17.959 -25.039  0.00  0.00     0.045 C 
BRANCH  14  15
ATOM     15  C   UNL d   1      31.980  17.902 -24.818  0.00  0.00     0.036 A 
ATOM     16  S   UNL d   1      32.520  17.340 -25.096  0.00  0.00    -0.086 SA
ATOM     17  C   UNL d   1      33.241  17.489 -24.731  0.00  0.00     0.035 A 
ATOM     18  C   UNL d   1      33.155  18.136 -24.229  0.00  0.00     0.007 A 
ATOM     19  C   UNL d   1      32.371  18.387 -24.287  0.00  0.00     0.007 A 
ENDBRANCH  14  15
ENDBRANCH  13  14
ENDBRANCH   3  13
TORSDOF 3
ENDMDL
MODEL 7
REMARK VINA RESULT:      -0.9      1.585      4.318
REMARK  3 active torsions:
REMARK  status: ('A' for Active; 'I' for Inactive)
REMARK    1  A    between atoms: S_9  and  C_3 
REMARK    2  A    between atoms: C_15  and  S_9 
REMARK    3  A    between atoms: C_11  and  C_15 
ROOT
ATOM      1  N   UNL d   1      33.088  21.780 -20.937  0.00  0.00    -0.263 N 
ATOM      2  C   UNL d   1      32.978  21.066 -20.523  0.00  0.00     0.202 A 
ATOM      3  C   UNL d   1      33.120  21.587 -21.747  0.00  0.00     0.202 A 
ATOM      4  N   UNL d   1      32.943  20.446 -21.063  0.00  0.00    -0.121 NA
ATOM      5  S   UNL d   1      32.944  21.256 -19.706  0.00  0.00    -0.047 SA
ATOM      6  N   UNL d   1      33.032  20.773 -21.825  0.00  0.00    -0.121 NA
ATOM      7  C   UNL d   1      33.121  22.396 -20.389  0.00  0.00     0.074 A 
ATOM      8  C   UNL d   1      33.034  22.080 -19.632  0.00  0.00     0.049 A 
ATOM      9  C   UNL d   1      33.221  23.208 -20.489  0.00  0.00     0.018 A 
ATOM     10  C   UNL d   1      33.047  22.571 -18.985  0.00  0.00     0.008 A 
ATOM     11  C   UNL d   1      33.233  23.702 -19.828  0.00  0.00     0.002 A 
ATOM     12  C   UNL d   1      33.145  23.378 -19.074  0.00  0.00     0.001 A 
ENDROOT
BRANCH   3  13
ATOM     13  S   UNL d   1      33.223  22.121 -22.357  0.00  0.00    -0.047 SA
BRANCH  13  14
ATOM     14  C   UNL d   1      32.951  21.943 -23.110  0.00  0.00     0.045 C 
BRANCH  14  15
ATOM     15  C   UNL d   1      32.956  22.523 -23.700  0.00  0.00     0.036 A 
ATOM     16  S   UNL d   1      33.070  22.389 -24.509  0.00  0.00    -0.086 SA
ATOM     17  C   UNL d   1      33.032  23.117 -24.887  0.00  0.00     0.035 A 
ATOM     18  C   UNL d   1      32.897  23.702 -24.323  0.00  0.00     0.007 A 
ATOM     19  C   UNL d   1      32.850  23.327 -23.589  0.00  0.00     0.007 A 
ENDBRANCH  14  15
ENDBRANCH  13  14
ENDBRANCH   3  13
TORSDOF 3
ENDMDL
