MODEL 1
REMARK VINA RESULT:      47.3      0.000      0.000
REMARK  6 active torsions:
REMARK  status: ('A' for Active; 'I' for Inactive)
REMARK    1  A    between atoms: C_13  and  C_4 
REMARK    2  A    between atoms: C_20  and  C_7 
REMARK    3  A    between atoms: C_8  and  C_12 
REMARK       I    between atoms: N_9  and  C_8 
REMARK    4  A    between atoms: C_11  and  N_9 
REMARK       I    between atoms: C_12  and  N_19 
REMARK    5  A    between atoms: N_19  and  C_23 
REMARK    6  A    between atoms: C_23  and  C_20 
ROOT
ATOM      1  C   UNL d   1      46.585 -18.777  40.176  0.00  0.00     0.041 C 
ENDROOT
BRANCH   1   2
ATOM      2  C   UNL d   1      46.563 -19.254  40.850  0.00  0.00     0.093 A 
ATOM      3  N   UNL d   1      46.462 -18.998  41.624  0.00  0.00    -0.205 N 
ATOM      4  C   UNL d   1      46.474 -19.655  42.125  0.00  0.00     0.197 A 
ATOM      5  N   UNL d   1      46.351 -18.322  42.098  0.00  0.00    -0.144 NA
ATOM      6  N   UNL d   1      46.372 -19.390  42.901  0.00  0.00    -0.200 NA
ATOM      7  S   UNL d   1      46.584 -20.325  41.655  0.00  0.00    -0.046 SA
ATOM      8  C   UNL d   1      46.296 -18.570  42.887  0.00  0.00     0.184 A 
ATOM      9  C   UNL d   1      46.639 -20.076  40.867  0.00  0.00     0.058 A 
BRANCH   8  10
ATOM     10  C   UNL d   1      46.185 -18.084  43.543  0.00  0.00     0.038 A 
ATOM     11  C   UNL d   1      46.360 -18.363  44.295  0.00  0.00     0.003 A 
ATOM     12  C   UNL d   1      46.647 -19.127  44.392  0.00  0.00     0.000 C 
ATOM     13  C   UNL d   1      46.249 -17.874  44.955  0.00  0.00     0.000 A 
ATOM     14  C   UNL d   1      45.959 -17.105  44.847  0.00  0.00     0.000 A 
ATOM     15  C   UNL d   1      45.783 -16.825  44.095  0.00  0.00     0.000 A 
ATOM     16  C   UNL d   1      45.896 -17.315  43.436  0.00  0.00     0.003 A 
ENDBRANCH   8  10
ENDBRANCH   1   2
BRANCH   1  17
ATOM     17  C   UNL d   1      45.912 -18.364  39.940  0.00  0.00     0.104 C 
BRANCH  17  18
ATOM     18  N   UNL d   1      45.972 -17.767  39.387  0.00  0.00    -0.202 NA
ATOM     19  C   UNL d   1      45.375 -17.658  38.832  0.00  0.00     0.337 C 
ATOM     20  O   UNL d   1      44.716 -18.153  38.836  0.00  0.00    -0.260 OA
BRANCH  19  21
ATOM     21  C   UNL d   1      45.434 -17.060  38.278  0.00  0.00     0.337 C 
ATOM     22  N   UNL d   1      44.858 -16.465  38.231  0.00  0.00    -0.204 NA
ATOM     23  O   UNL d   1      46.083 -17.042  37.747  0.00  0.00    -0.260 OA
BRANCH  22  24
ATOM     24  C   UNL d   1      44.918 -15.861  37.672  0.00  0.00     0.085 A 
ATOM     25  C   UNL d   1      44.257 -15.668  37.201  0.00  0.00     0.018 A 
ATOM     26  C   UNL d   1      44.293 -15.077  36.644  0.00  0.00     0.002 A 
ATOM     27  C   UNL d   1      43.552 -16.079  37.298  0.00  0.00     0.002 C 
ATOM     28  C   UNL d   1      45.008 -14.651  36.536  0.00  0.00     0.000 A 
ATOM     29  C   UNL d   1      45.676 -14.846  37.011  0.00  0.00     0.002 A 
ATOM     30  C   UNL d   1      45.619 -15.455  37.578  0.00  0.00     0.019 A 
ATOM     31  C   UNL d   1      46.378 -14.437  36.915  0.00  0.00     0.000 C 
ENDBRANCH  22  24
ENDBRANCH  19  21
ENDBRANCH  17  18
ENDBRANCH   1  17
TORSDOF 6
ENDMDL
