MODEL 1
REMARK VINA RESULT:      26.6      0.000      0.000
REMARK  6 active torsions:
REMARK  status: ('A' for Active; 'I' for Inactive)
REMARK       I    between atoms: C_3  and  N_1 
REMARK    1  A    between atoms: C_5  and  N_1 
REMARK    2  A    between atoms: C_2  and  C_3 
REMARK    3  A    between atoms: N_9  and  C_5 
REMARK    4  A    between atoms: C_13  and  N_9 
REMARK    5  A    between atoms: C_11  and  C_13 
REMARK    6  A    between atoms: C_15  and  C_11 
ROOT
ATOM      1  C   UNL d   1      13.045  12.222  -3.880  0.00  0.00     0.224 C 
ATOM      2  S   UNL d   1      12.953  11.790  -4.582  0.00  0.00    -0.037 SA
ENDROOT
BRANCH   1   3
ATOM      3  N   UNL d   1      13.092  13.045  -3.909  0.00  0.00    -0.177 NA
ATOM      4  C   UNL d   1      13.400  13.416  -4.587  0.00  0.00     0.304 C 
ATOM      5  O   UNL d   1      13.655  12.970  -5.221  0.00  0.00    -0.263 OA
BRANCH   4   6
ATOM      6  C   UNL d   1      13.446  14.239  -4.615  0.00  0.00     0.158 A 
ATOM      7  O   UNL d   1      13.897  14.719  -4.119  0.00  0.00    -0.296 OA
ATOM      8  C   UNL d   1      13.785  15.497  -4.334  0.00  0.00     0.134 A 
ATOM      9 BR   UNL d   1      14.130  16.155  -3.986  0.00  0.00    -0.022 Br
ATOM     10  C   UNL d   1      13.261  15.508  -4.969  0.00  0.00     0.034 A 
ATOM     11  C   UNL d   1      13.049  14.723  -5.145  0.00  0.00     0.032 A 
ENDBRANCH   4   6
ENDBRANCH   1   3
BRANCH   1  12
ATOM     12  N   UNL d   1      13.089  11.824  -3.161  0.00  0.00    -0.212 NA
BRANCH  12  13
ATOM     13  C   UNL d   1      13.711  11.976  -2.655  0.00  0.00     0.143 C 
BRANCH  13  14
ATOM     14  C   UNL d   1      13.586  11.959  -1.841  0.00  0.00     0.215 C 
ATOM     15  O   UNL d   1      12.845  11.788  -1.529  0.00  0.00    -0.285 OA
BRANCH  14  16
ATOM     16  C   UNL d   1      14.211  12.115  -1.320  0.00  0.00     0.041 A 
ATOM     17  C   UNL d   1      14.084  12.612  -0.671  0.00  0.00     0.003 A 
ATOM     18  C   UNL d   1      14.701  12.773  -0.147  0.00  0.00     0.000 A 
ATOM     19  C   UNL d   1      15.449  12.435  -0.273  0.00  0.00     0.000 A 
ATOM     20  C   UNL d   1      15.576  11.938  -0.921  0.00  0.00     0.000 A 
ATOM     21  C   UNL d   1      14.953  11.779  -1.445  0.00  0.00     0.003 A 
ENDBRANCH  14  16
ENDBRANCH  13  14
ENDBRANCH  12  13
ENDBRANCH   1  12
TORSDOF 6
ENDMDL
MODEL 2
REMARK VINA RESULT:      27.6      2.553      3.704
REMARK  6 active torsions:
REMARK  status: ('A' for Active; 'I' for Inactive)
REMARK       I    between atoms: C_3  and  N_1 
REMARK    1  A    between atoms: C_5  and  N_1 
REMARK    2  A    between atoms: C_2  and  C_3 
REMARK    3  A    between atoms: N_9  and  C_5 
REMARK    4  A    between atoms: C_13  and  N_9 
REMARK    5  A    between atoms: C_11  and  C_13 
REMARK    6  A    between atoms: C_15  and  C_11 
ROOT
ATOM      1  C   UNL d   1      14.884  13.319  -0.714  0.00  0.00     0.224 C 
ATOM      2  S   UNL d   1      15.558  13.028  -0.330  0.00  0.00    -0.037 SA
ENDROOT
BRANCH   1   3
ATOM      3  N   UNL d   1      14.835  14.120  -0.907  0.00  0.00    -0.177 NA
ATOM      4  C   UNL d   1      15.358  14.661  -0.553  0.00  0.00     0.304 C 
ATOM      5  O   UNL d   1      15.917  14.402  -0.017  0.00  0.00    -0.263 OA
BRANCH   4   6
ATOM      6  C   UNL d   1      15.310  15.460  -0.746  0.00  0.00     0.158 A 
ATOM      7  O   UNL d   1      14.988  15.776  -1.437  0.00  0.00    -0.296 OA
ATOM      8  C   UNL d   1      15.050  16.589  -1.407  0.00  0.00     0.134 A 
ATOM      9 BR   UNL d   1      14.798  17.119  -1.980  0.00  0.00    -0.022 Br
ATOM     10  C   UNL d   1      15.411  16.786  -0.694  0.00  0.00     0.034 A 
ATOM     11  C   UNL d   1      15.574  16.082  -0.280  0.00  0.00     0.032 A 
ENDBRANCH   4   6
ENDBRANCH   1   3
BRANCH   1  12
ATOM     12  N   UNL d   1      14.269  12.805  -0.900  0.00  0.00    -0.212 NA
BRANCH  12  13
ATOM     13  C   UNL d   1      14.301  12.372  -1.591  0.00  0.00     0.143 C 
BRANCH  13  14
ATOM     14  C   UNL d   1      13.601  12.130  -1.951  0.00  0.00     0.215 C 
ATOM     15  O   UNL d   1      12.998  11.782  -1.516  0.00  0.00    -0.285 OA
BRANCH  14  16
ATOM     16  C   UNL d   1      13.495  12.235  -2.767  0.00  0.00     0.041 A 
ATOM     17  C   UNL d   1      12.954  12.800  -3.036  0.00  0.00     0.003 A 
ATOM     18  C   UNL d   1      12.842  12.911  -3.846  0.00  0.00     0.000 A 
ATOM     19  C   UNL d   1      13.273  12.455  -4.390  0.00  0.00     0.000 A 
ATOM     20  C   UNL d   1      13.813  11.890  -4.120  0.00  0.00     0.000 A 
ATOM     21  C   UNL d   1      13.922  11.782  -3.306  0.00  0.00     0.003 A 
ENDBRANCH  14  16
ENDBRANCH  13  14
ENDBRANCH  12  13
ENDBRANCH   1  12
TORSDOF 6
ENDMDL
