MODEL 1
REMARK VINA RESULT:      -6.7      0.000      0.000
REMARK  5 active torsions:
REMARK  status: ('A' for Active; 'I' for Inactive)
REMARK    1  A    between atoms: C_8  and  N_1 
REMARK       I    between atoms: N_2  and  C_4 
REMARK    2  A    between atoms: C_3  and  N_2 
REMARK    3  A    between atoms: N_6  and  C_3 
REMARK    4  A    between atoms: C_4  and  C_12 
REMARK    5  A    between atoms: C_7  and  N_6 
ROOT
ATOM      1  N   UNL d   1     -47.786  13.526  22.350  0.00  0.00    -0.168 NA
ATOM      2  C   UNL d   1     -47.117  13.777  22.761  0.00  0.00     0.282 C 
ATOM      3  O   UNL d   1     -47.152  14.442  23.240  0.00  0.00    -0.265 OA
ENDROOT
BRANCH   2   4
ATOM      4  C   UNL d   1     -46.409  13.356  22.689  0.00  0.00     0.058 A 
ATOM      5  C   UNL d   1     -46.337  12.617  23.061  0.00  0.00     0.006 A 
ATOM      6  C   UNL d   1     -45.638  12.196  22.992  0.00  0.00     0.024 A 
ATOM      7  C   UNL d   1     -45.007  12.507  22.554  0.00  0.00     0.127 A 
ATOM      8  C   UNL d   1     -45.086  13.243  22.187  0.00  0.00     0.024 A 
ATOM      9  C   UNL d   1     -45.793  13.663  22.259  0.00  0.00     0.006 A 
BRANCH   7  10
ATOM     10  N   UNL d   1     -44.307  12.083  22.486  0.00  0.00    -0.114 N 
ATOM     11  O   UNL d   1     -43.775  12.251  21.876  0.00  0.00    -0.532 OA
ATOM     12  O   UNL d   1     -44.137  11.491  23.027  0.00  0.00    -0.532 OA
ENDBRANCH   7  10
ENDBRANCH   2   4
BRANCH   1  13
ATOM     13  C   UNL d   1     -48.494  13.940  22.417  0.00  0.00     0.275 C 
ATOM     14  S   UNL d   1     -48.495  14.760  22.334  0.00  0.00    -0.023 SA
BRANCH  13  15
ATOM     15  N   UNL d   1     -49.199  13.543  22.566  0.00  0.00    -0.369 NA
BRANCH  15  16
ATOM     16  C   UNL d   1     -49.889  13.152  22.717  0.00  0.00     0.180 A 
ATOM     17  C   UNL d   1     -50.510  13.037  22.338  0.00  0.00     0.255 A 
ATOM     18  S   UNL d   1     -51.061  12.641  22.642  0.00  0.00    -0.043 SA
ATOM     19  O   UNL d   1     -50.588  13.310  21.663  0.00  0.00    -0.277 OA
ATOM     20  C   UNL d   1     -50.982  12.368  23.317  0.00  0.00     0.041 A 
ATOM     21  C   UNL d   1     -50.362  12.483  23.696  0.00  0.00     0.043 A 
ENDBRANCH  15  16
ENDBRANCH  13  15
ENDBRANCH   1  13
TORSDOF 5
ENDMDL
MODEL 2
REMARK VINA RESULT:      -5.4      8.274      9.675
REMARK  5 active torsions:
REMARK  status: ('A' for Active; 'I' for Inactive)
REMARK    1  A    between atoms: C_8  and  N_1 
REMARK       I    between atoms: N_2  and  C_4 
REMARK    2  A    between atoms: C_3  and  N_2 
REMARK    3  A    between atoms: N_6  and  C_3 
REMARK    4  A    between atoms: C_4  and  C_12 
REMARK    5  A    between atoms: C_7  and  N_6 
ROOT
ATOM      1  N   UNL d   1     -39.828  14.562  19.098  0.00  0.00    -0.168 NA
ATOM      2  C   UNL d   1     -40.097  14.166  18.426  0.00  0.00     0.282 C 
ATOM      3  O   UNL d   1     -40.805  13.753  18.447  0.00  0.00    -0.265 OA
ENDROOT
BRANCH   2   4
ATOM      4  C   UNL d   1     -39.650  14.188  17.730  0.00  0.00     0.058 A 
ATOM      5  C   UNL d   1     -39.079  13.600  17.597  0.00  0.00     0.006 A 
ATOM      6  C   UNL d   1     -38.634  13.617  16.910  0.00  0.00     0.024 A 
ATOM      7  C   UNL d   1     -38.755  14.217  16.352  0.00  0.00     0.127 A 
ATOM      8  C   UNL d   1     -39.325  14.798  16.491  0.00  0.00     0.024 A 
ATOM      9  C   UNL d   1     -39.771  14.777  17.186  0.00  0.00     0.006 A 
BRANCH   7  10
ATOM     10  N   UNL d   1     -38.307  14.232  15.663  0.00  0.00    -0.114 N 
ATOM     11  O   UNL d   1     -38.227  13.551  15.203  0.00  0.00    -0.532 OA
ATOM     12  O   UNL d   1     -37.941  14.929  15.433  0.00  0.00    -0.532 OA
ENDBRANCH   7  10
ENDBRANCH   2   4
BRANCH   1  13
ATOM     13  C   UNL d   1     -40.267  14.546  19.793  0.00  0.00     0.275 C 
ATOM     14  S   UNL d   1     -41.090  14.548  19.755  0.00  0.00    -0.023 SA
BRANCH  13  15
ATOM     15  N   UNL d   1     -39.891  14.526  20.525  0.00  0.00    -0.369 NA
BRANCH  15  16
ATOM     16  C   UNL d   1     -39.524  14.504  21.244  0.00  0.00     0.180 A 
ATOM     17  C   UNL d   1     -39.318  15.013  21.734  0.00  0.00     0.255 A 
ATOM     18  S   UNL d   1     -38.980  14.805  22.364  0.00  0.00    -0.043 SA
ATOM     19  O   UNL d   1     -39.442  15.723  21.605  0.00  0.00    -0.277 OA
ATOM     20  C   UNL d   1     -38.856  14.094  22.491  0.00  0.00     0.041 A 
ATOM     21  C   UNL d   1     -39.062  13.585  22.002  0.00  0.00     0.043 A 
ENDBRANCH  15  16
ENDBRANCH  13  15
ENDBRANCH   1  13
TORSDOF 5
ENDMDL
MODEL 3
REMARK VINA RESULT:      -5.4      1.916      5.061
REMARK  5 active torsions:
REMARK  status: ('A' for Active; 'I' for Inactive)
REMARK    1  A    between atoms: C_8  and  N_1 
REMARK       I    between atoms: N_2  and  C_4 
REMARK    2  A    between atoms: C_3  and  N_2 
REMARK    3  A    between atoms: N_6  and  C_3 
REMARK    4  A    between atoms: C_4  and  C_12 
REMARK    5  A    between atoms: C_7  and  N_6 
ROOT
ATOM      1  N   UNL d   1     -47.850  12.922  23.336  0.00  0.00    -0.168 NA
ATOM      2  C   UNL d   1     -48.605  12.810  23.023  0.00  0.00     0.282 C 
ATOM      3  O   UNL d   1     -48.819  12.079  22.718  0.00  0.00    -0.265 OA
ENDROOT
BRANCH   2   4
ATOM      4  C   UNL d   1     -49.145  13.436  23.018  0.00  0.00     0.058 A 
ATOM      5  C   UNL d   1     -48.913  14.169  22.704  0.00  0.00     0.006 A 
ATOM      6  C   UNL d   1     -49.444  14.792  22.697  0.00  0.00     0.024 A 
ATOM      7  C   UNL d   1     -50.208  14.690  23.001  0.00  0.00     0.127 A 
ATOM      8  C   UNL d   1     -50.431  13.958  23.312  0.00  0.00     0.024 A 
ATOM      9  C   UNL d   1     -49.891  13.332  23.317  0.00  0.00     0.006 A 
BRANCH   7  10
ATOM     10  N   UNL d   1     -50.740  15.316  22.993  0.00  0.00    -0.114 N 
ATOM     11  O   UNL d   1     -50.947  15.696  23.697  0.00  0.00    -0.532 OA
ATOM     12  O   UNL d   1     -51.064  15.563  22.282  0.00  0.00    -0.532 OA
ENDBRANCH   7  10
ENDBRANCH   2   4
BRANCH   1  13
ATOM     13  C   UNL d   1     -47.307  12.304  23.345  0.00  0.00     0.275 C 
ATOM     14  S   UNL d   1     -47.517  11.583  23.684  0.00  0.00    -0.023 SA
BRANCH  13  15
ATOM     15  N   UNL d   1     -46.558  12.400  23.017  0.00  0.00    -0.369 NA
BRANCH  15  16
ATOM     16  C   UNL d   1     -45.824  12.499  22.697  0.00  0.00     0.180 A 
ATOM     17  C   UNL d   1     -45.167  12.185  22.807  0.00  0.00     0.255 A 
ATOM     18  S   UNL d   1     -44.580  12.409  22.408  0.00  0.00    -0.043 SA
ATOM     19  O   UNL d   1     -45.088  11.656  23.306  0.00  0.00    -0.277 OA
ATOM     20  C   UNL d   1     -44.659  12.939  21.909  0.00  0.00     0.041 A 
ATOM     21  C   UNL d   1     -45.315  13.252  21.799  0.00  0.00     0.043 A 
ENDBRANCH  15  16
ENDBRANCH  13  15
ENDBRANCH   1  13
TORSDOF 5
ENDMDL
MODEL 4
REMARK VINA RESULT:      -5.2      8.169      9.943
REMARK  5 active torsions:
REMARK  status: ('A' for Active; 'I' for Inactive)
REMARK    1  A    between atoms: C_8  and  N_1 
REMARK       I    between atoms: N_2  and  C_4 
REMARK    2  A    between atoms: C_3  and  N_2 
REMARK    3  A    between atoms: N_6  and  C_3 
REMARK    4  A    between atoms: C_4  and  C_12 
REMARK    5  A    between atoms: C_7  and  N_6 
ROOT
ATOM      1  N   UNL d   1     -39.766  14.904  18.305  0.00  0.00    -0.168 NA
ATOM      2  C   UNL d   1     -40.233  14.462  18.822  0.00  0.00     0.282 C 
ATOM      3  O   UNL d   1     -40.912  14.092  18.549  0.00  0.00    -0.265 OA
ENDROOT
BRANCH   2   4
ATOM      4  C   UNL d   1     -40.014  14.392  19.617  0.00  0.00     0.058 A 
ATOM      5  C   UNL d   1     -40.562  14.590  20.208  0.00  0.00     0.006 A 
ATOM      6  C   UNL d   1     -40.350  14.524  20.995  0.00  0.00     0.024 A 
ATOM      7  C   UNL d   1     -39.592  14.259  21.200  0.00  0.00     0.127 A 
ATOM      8  C   UNL d   1     -39.051  14.064  20.607  0.00  0.00     0.024 A 
ATOM      9  C   UNL d   1     -39.271  14.134  19.813  0.00  0.00     0.006 A 
BRANCH   7  10
ATOM     10  N   UNL d   1     -39.381  14.193  21.991  0.00  0.00    -0.114 N 
ATOM     11  O   UNL d   1     -39.121  13.470  22.294  0.00  0.00    -0.532 OA
ATOM     12  O   UNL d   1     -39.430  14.849  22.481  0.00  0.00    -0.532 OA
ENDBRANCH   7  10
ENDBRANCH   2   4
BRANCH   1  13
ATOM     13  C   UNL d   1     -39.977  14.977  17.514  0.00  0.00     0.275 C 
ATOM     14  S   UNL d   1     -40.754  15.169  17.316  0.00  0.00    -0.023 SA
BRANCH  13  15
ATOM     15  N   UNL d   1     -39.420  14.860  16.920  0.00  0.00    -0.369 NA
BRANCH  15  16
ATOM     16  C   UNL d   1     -38.871  14.747  16.339  0.00  0.00     0.180 A 
ATOM     17  C   UNL d   1     -38.463  15.194  15.920  0.00  0.00     0.255 A 
ATOM     18  S   UNL d   1     -37.994  14.906  15.420  0.00  0.00    -0.043 SA
ATOM     19  O   UNL d   1     -38.518  15.921  15.993  0.00  0.00    -0.277 OA
ATOM     20  C   UNL d   1     -37.940  14.180  15.348  0.00  0.00     0.041 A 
ATOM     21  C   UNL d   1     -38.347  13.732  15.767  0.00  0.00     0.043 A 
ENDBRANCH  15  16
ENDBRANCH  13  15
ENDBRANCH   1  13
TORSDOF 5
ENDMDL
MODEL 5
REMARK VINA RESULT:      -4.8      8.181      9.225
REMARK  5 active torsions:
REMARK  status: ('A' for Active; 'I' for Inactive)
REMARK    1  A    between atoms: C_8  and  N_1 
REMARK       I    between atoms: N_2  and  C_4 
REMARK    2  A    between atoms: C_3  and  N_2 
REMARK    3  A    between atoms: N_6  and  C_3 
REMARK    4  A    between atoms: C_4  and  C_12 
REMARK    5  A    between atoms: C_7  and  N_6 
ROOT
ATOM      1  N   UNL d   1     -39.795  15.222  20.704  0.00  0.00    -0.168 NA
ATOM      2  C   UNL d   1     -40.480  15.395  20.278  0.00  0.00     0.282 C 
ATOM      3  O   UNL d   1     -41.146  15.677  20.664  0.00  0.00    -0.265 OA
ENDROOT
BRANCH   2   4
ATOM      4  C   UNL d   1     -40.494  15.281  19.458  0.00  0.00     0.058 A 
ATOM      5  C   UNL d   1     -40.360  14.521  19.152  0.00  0.00     0.006 A 
ATOM      6  C   UNL d   1     -40.372  14.404  18.342  0.00  0.00     0.024 A 
ATOM      7  C   UNL d   1     -40.517  15.041  17.832  0.00  0.00     0.127 A 
ATOM      8  C   UNL d   1     -40.650  15.794  18.144  0.00  0.00     0.024 A 
ATOM      9  C   UNL d   1     -40.636  15.907  18.963  0.00  0.00     0.006 A 
BRANCH   7  10
ATOM     10  N   UNL d   1     -40.529  14.921  17.019  0.00  0.00    -0.114 N 
ATOM     11  O   UNL d   1     -39.942  14.469  16.656  0.00  0.00    -0.532 OA
ATOM     12  O   UNL d   1     -41.129  15.253  16.569  0.00  0.00    -0.532 OA
ENDBRANCH   7  10
ENDBRANCH   2   4
BRANCH   1  13
ATOM     13  C   UNL d   1     -39.774  15.333  21.518  0.00  0.00     0.275 C 
ATOM     14  S   UNL d   1     -40.237  15.922  21.862  0.00  0.00    -0.023 SA
BRANCH  13  15
ATOM     15  N   UNL d   1     -39.295  14.860  21.993  0.00  0.00    -0.369 NA
BRANCH  15  16
ATOM     16  C   UNL d   1     -38.822  14.399  22.456  0.00  0.00     0.180 A 
ATOM     17  C   UNL d   1     -38.273  14.534  22.928  0.00  0.00     0.255 A 
ATOM     18  S   UNL d   1     -37.940  13.968  23.278  0.00  0.00    -0.043 SA
ATOM     19  O   UNL d   1     -38.054  15.220  23.055  0.00  0.00    -0.277 OA
ATOM     20  C   UNL d   1     -38.159  13.281  23.150  0.00  0.00     0.041 A 
ATOM     21  C   UNL d   1     -38.707  13.146  22.678  0.00  0.00     0.043 A 
ENDBRANCH  15  16
ENDBRANCH  13  15
ENDBRANCH   1  13
TORSDOF 5
ENDMDL
MODEL 6
REMARK VINA RESULT:      -4.1      8.732      9.908
REMARK  5 active torsions:
REMARK  status: ('A' for Active; 'I' for Inactive)
REMARK    1  A    between atoms: C_8  and  N_1 
REMARK       I    between atoms: N_2  and  C_4 
REMARK    2  A    between atoms: C_3  and  N_2 
REMARK    3  A    between atoms: N_6  and  C_3 
REMARK    4  A    between atoms: C_4  and  C_12 
REMARK    5  A    between atoms: C_7  and  N_6 
ROOT
ATOM      1  N   UNL d   1     -39.310  15.604  18.816  0.00  0.00    -0.168 NA
ATOM      2  C   UNL d   1     -39.302  15.386  18.020  0.00  0.00     0.282 C 
ATOM      3  O   UNL d   1     -38.618  15.085  17.682  0.00  0.00    -0.265 OA
ENDROOT
BRANCH   2   4
ATOM      4  C   UNL d   1     -39.986  15.473  17.563  0.00  0.00     0.058 A 
ATOM      5  C   UNL d   1     -40.708  15.185  17.856  0.00  0.00     0.006 A 
ATOM      6  C   UNL d   1     -41.388  15.269  17.408  0.00  0.00     0.024 A 
ATOM      7  C   UNL d   1     -41.354  15.638  16.667  0.00  0.00     0.127 A 
ATOM      8  C   UNL d   1     -40.633  15.922  16.382  0.00  0.00     0.024 A 
ATOM      9  C   UNL d   1     -39.949  15.835  16.839  0.00  0.00     0.006 A 
BRANCH   7  10
ATOM     10  N   UNL d   1     -42.038  15.721  16.218  0.00  0.00    -0.114 N 
ATOM     11  O   UNL d   1     -42.754  15.916  16.582  0.00  0.00    -0.532 OA
ATOM     12  O   UNL d   1     -42.007  15.610  15.407  0.00  0.00    -0.532 OA
ENDBRANCH   7  10
ENDBRANCH   2   4
BRANCH   1  13
ATOM     13  C   UNL d   1     -38.634  15.520  19.276  0.00  0.00     0.275 C 
ATOM     14  S   UNL d   1     -37.940  15.904  19.053  0.00  0.00    -0.023 SA
BRANCH  13  15
ATOM     15  N   UNL d   1     -38.645  15.057  19.956  0.00  0.00    -0.369 NA
BRANCH  15  16
ATOM     16  C   UNL d   1     -38.658  14.606  20.625  0.00  0.00     0.180 A 
ATOM     17  C   UNL d   1     -39.034  14.633  21.258  0.00  0.00     0.255 A 
ATOM     18  S   UNL d   1     -38.914  14.118  21.781  0.00  0.00    -0.043 SA
ATOM     19  O   UNL d   1     -39.524  15.164  21.376  0.00  0.00    -0.277 OA
ATOM     20  C   UNL d   1     -38.423  13.587  21.663  0.00  0.00     0.041 A 
ATOM     21  C   UNL d   1     -38.048  13.560  21.031  0.00  0.00     0.043 A 
ENDBRANCH  15  16
ENDBRANCH  13  15
ENDBRANCH   1  13
TORSDOF 5
ENDMDL
