MODEL 1
REMARK VINA RESULT:      -8.6      0.000      0.000
REMARK  7 active torsions:
REMARK  status: ('A' for Active; 'I' for Inactive)
REMARK    1  A    between atoms: N_5  and  S_1 
REMARK    2  A    between atoms: C_8  and  S_1 
REMARK    3  A    between atoms: C_2  and  C_11 
REMARK    4  A    between atoms: C_9  and  N_5 
REMARK    5  A    between atoms: C_10  and  C_9 
REMARK       I    between atoms: N_14  and  C_10 
REMARK    6  A    between atoms: C_24  and  N_14 
REMARK    7  A    between atoms: C_15  and  C_16 
ROOT
ATOM      1  C   UNL d   1      50.257  34.046  52.350  0.00  0.00     0.299 C 
ATOM      2  N   UNL d   1      50.045  34.636  51.833  0.00  0.00    -0.207 NA
ATOM      3  O   UNL d   1      49.683  33.677  52.823  0.00  0.00    -0.263 OA
ENDROOT
BRANCH   1   4
ATOM      4  C   UNL d   1      51.051  33.802  52.413  0.00  0.00     0.174 C 
BRANCH   4   5
ATOM      5  N   UNL d   1      51.255  33.266  52.996  0.00  0.00    -0.152 NA
BRANCH   5   6
ATOM      6  S   UNL d   1      51.997  33.331  53.371  0.00  0.00     0.285 S 
ATOM      7  O   UNL d   1      51.618  33.506  54.083  0.00  0.00    -0.198 OA
ATOM      8  O   UNL d   1      52.372  33.156  52.657  0.00  0.00    -0.198 OA
BRANCH   6   9
ATOM      9  C   UNL d   1      52.733  33.394  53.738  0.00  0.00     0.105 A 
ATOM     10  C   UNL d   1      52.926  34.066  54.164  0.00  0.00     0.013 A 
ATOM     11  C   UNL d   1      53.662  34.130  54.532  0.00  0.00    -0.004 A 
ATOM     12  C   UNL d   1      54.208  33.510  54.469  0.00  0.00    -0.023 A 
ATOM     13  C   UNL d   1      54.009  32.830  54.036  0.00  0.00    -0.004 A 
ATOM     14  C   UNL d   1      53.278  32.775  53.675  0.00  0.00     0.013 A 
BRANCH  12  15
ATOM     15  C   UNL d   1      54.946  33.566  54.833  0.00  0.00     0.019 C 
ATOM     16  C   UNL d   1      55.299  33.651  54.097  0.00  0.00     0.004 C 
ATOM     17  C   UNL d   1      54.586  33.480  55.575  0.00  0.00     0.004 C 
ATOM     18  C   UNL d   1      55.686  33.622  55.193  0.00  0.00     0.004 C 
ENDBRANCH  12  15
ENDBRANCH   6   9
ENDBRANCH   5   6
ENDBRANCH   4   5
ENDBRANCH   1   4
BRANCH   2  19
ATOM     19  C   UNL d   1      49.256  34.872  51.776  0.00  0.00     0.085 A 
ATOM     20  C   UNL d   1      48.942  35.365  52.354  0.00  0.00     0.019 A 
ATOM     21  C   UNL d   1      48.147  35.612  52.310  0.00  0.00     0.004 A 
ATOM     22  C   UNL d   1      47.674  35.361  51.685  0.00  0.00     0.024 A 
ATOM     23  C   UNL d   1      47.989  34.866  51.105  0.00  0.00     0.004 A 
ATOM     24  C   UNL d   1      48.776  34.619  51.145  0.00  0.00     0.019 A 
BRANCH  22  25
ATOM     25  C   UNL d   1      46.883  35.613  51.653  0.00  0.00     0.111 A 
ATOM     26  N   UNL d   1      46.423  35.551  50.977  0.00  0.00    -0.239 NA
ATOM     27  C   UNL d   1      45.673  35.853  51.143  0.00  0.00     0.088 A 
ATOM     28  C   UNL d   1      44.993  35.933  50.684  0.00  0.00     0.020 A 
ATOM     29  C   UNL d   1      45.672  36.104  51.928  0.00  0.00     0.049 A 
ATOM     30  C   UNL d   1      44.314  36.263  51.011  0.00  0.00     0.002 A 
ATOM     31  C   UNL d   1      44.314  36.514  51.796  0.00  0.00     0.001 A 
ATOM     32  C   UNL d   1      44.993  36.435  52.255  0.00  0.00     0.008 A 
ATOM     33  S   UNL d   1      46.423  35.955  52.243  0.00  0.00    -0.066 SA
ENDBRANCH  22  25
ENDBRANCH   2  19
TORSDOF 7
ENDMDL
MODEL 2
REMARK VINA RESULT:      -7.5      1.154      1.737
REMARK  7 active torsions:
REMARK  status: ('A' for Active; 'I' for Inactive)
REMARK    1  A    between atoms: N_5  and  S_1 
REMARK    2  A    between atoms: C_8  and  S_1 
REMARK    3  A    between atoms: C_2  and  C_11 
REMARK    4  A    between atoms: C_9  and  N_5 
REMARK    5  A    between atoms: C_10  and  C_9 
REMARK       I    between atoms: N_14  and  C_10 
REMARK    6  A    between atoms: C_24  and  N_14 
REMARK    7  A    between atoms: C_15  and  C_16 
ROOT
ATOM      1  C   UNL d   1      50.551  34.419  52.311  0.00  0.00     0.299 C 
ATOM      2  N   UNL d   1      50.096  34.398  51.638  0.00  0.00    -0.207 NA
ATOM      3  O   UNL d   1      50.249  34.746  53.012  0.00  0.00    -0.263 OA
ENDROOT
BRANCH   1   4
ATOM      4  C   UNL d   1      51.327  34.114  52.308  0.00  0.00     0.174 C 
BRANCH   4   5
ATOM      5  N   UNL d   1      51.693  33.959  53.023  0.00  0.00    -0.152 NA
BRANCH   5   6
ATOM      6  S   UNL d   1      52.101  33.239  53.126  0.00  0.00     0.285 S 
ATOM      7  O   UNL d   1      51.957  33.279  53.938  0.00  0.00    -0.198 OA
ATOM      8  O   UNL d   1      52.242  33.203  52.314  0.00  0.00    -0.198 OA
BRANCH   6   9
ATOM      9  C   UNL d   1      52.505  32.527  53.225  0.00  0.00     0.105 A 
ATOM     10  C   UNL d   1      53.189  32.499  53.674  0.00  0.00     0.013 A 
ATOM     11  C   UNL d   1      53.594  31.787  53.773  0.00  0.00    -0.004 A 
ATOM     12  C   UNL d   1      53.306  31.097  53.416  0.00  0.00    -0.023 A 
ATOM     13  C   UNL d   1      52.613  31.129  52.961  0.00  0.00    -0.004 A 
ATOM     14  C   UNL d   1      52.218  31.839  52.868  0.00  0.00     0.013 A 
BRANCH  12  15
ATOM     15  C   UNL d   1      53.705  30.381  53.510  0.00  0.00     0.019 C 
ATOM     16  C   UNL d   1      54.359  30.700  53.129  0.00  0.00     0.004 C 
ATOM     17  C   UNL d   1      53.043  30.063  53.895  0.00  0.00     0.004 C 
ATOM     18  C   UNL d   1      54.108  29.667  53.602  0.00  0.00     0.004 C 
ENDBRANCH  12  15
ENDBRANCH   6   9
ENDBRANCH   5   6
ENDBRANCH   4   5
ENDBRANCH   1   4
BRANCH   2  19
ATOM     19  C   UNL d   1      49.329  34.701  51.648  0.00  0.00     0.085 A 
ATOM     20  C   UNL d   1      48.808  34.499  51.045  0.00  0.00     0.019 A 
ATOM     21  C   UNL d   1      48.030  34.799  51.042  0.00  0.00     0.004 A 
ATOM     22  C   UNL d   1      47.781  35.299  51.646  0.00  0.00     0.024 A 
ATOM     23  C   UNL d   1      48.303  35.502  52.252  0.00  0.00     0.004 A 
ATOM     24  C   UNL d   1      49.075  35.208  52.259  0.00  0.00     0.019 A 
BRANCH  22  25
ATOM     25  C   UNL d   1      47.004  35.590  51.632  0.00  0.00     0.111 A 
ATOM     26  N   UNL d   1      46.472  35.412  51.035  0.00  0.00    -0.239 NA
ATOM     27  C   UNL d   1      45.757  35.793  51.198  0.00  0.00     0.088 A 
ATOM     28  C   UNL d   1      45.037  35.814  50.799  0.00  0.00     0.020 A 
ATOM     29  C   UNL d   1      45.852  36.210  51.902  0.00  0.00     0.049 A 
ATOM     30  C   UNL d   1      44.412  36.254  51.106  0.00  0.00     0.002 A 
ATOM     31  C   UNL d   1      44.507  36.671  51.811  0.00  0.00     0.001 A 
ATOM     32  C   UNL d   1      45.227  36.649  52.209  0.00  0.00     0.008 A 
ATOM     33  S   UNL d   1      46.625  36.084  52.171  0.00  0.00    -0.066 SA
ENDBRANCH  22  25
ENDBRANCH   2  19
TORSDOF 7
ENDMDL
MODEL 3
REMARK VINA RESULT:      -6.9     10.928     11.777
REMARK  7 active torsions:
REMARK  status: ('A' for Active; 'I' for Inactive)
REMARK    1  A    between atoms: N_5  and  S_1 
REMARK    2  A    between atoms: C_8  and  S_1 
REMARK    3  A    between atoms: C_2  and  C_11 
REMARK    4  A    between atoms: C_9  and  N_5 
REMARK    5  A    between atoms: C_10  and  C_9 
REMARK       I    between atoms: N_14  and  C_10 
REMARK    6  A    between atoms: C_24  and  N_14 
REMARK    7  A    between atoms: C_15  and  C_16 
ROOT
ATOM      1  C   UNL d   1      44.848  26.400  56.849  0.00  0.00     0.299 C 
ATOM      2  N   UNL d   1      45.228  27.117  56.801  0.00  0.00    -0.207 NA
ATOM      3  O   UNL d   1      44.333  26.239  57.479  0.00  0.00    -0.263 OA
ENDROOT
BRANCH   1   4
ATOM      4  C   UNL d   1      44.971  25.816  56.267  0.00  0.00     0.174 C 
BRANCH   4   5
ATOM      5  N   UNL d   1      44.388  25.257  56.140  0.00  0.00    -0.152 NA
BRANCH   5   6
ATOM      6  S   UNL d   1      44.500  24.673  55.555  0.00  0.00     0.285 S 
ATOM      7  O   UNL d   1      44.366  25.240  54.970  0.00  0.00    -0.198 OA
ATOM      8  O   UNL d   1      44.633  24.110  56.143  0.00  0.00    -0.198 OA
BRANCH   6   9
ATOM      9  C   UNL d   1      44.612  24.094  54.978  0.00  0.00     0.105 A 
ATOM     10  C   UNL d   1      44.462  24.260  54.191  0.00  0.00     0.013 A 
ATOM     11  C   UNL d   1      44.574  23.681  53.614  0.00  0.00    -0.004 A 
ATOM     12  C   UNL d   1      44.839  22.927  53.834  0.00  0.00    -0.023 A 
ATOM     13  C   UNL d   1      44.989  22.762  54.633  0.00  0.00    -0.004 A 
ATOM     14  C   UNL d   1      44.876  23.342  55.198  0.00  0.00     0.013 A 
BRANCH  12  15
ATOM     15  C   UNL d   1      44.953  22.342  53.263  0.00  0.00     0.019 C 
ATOM     16  C   UNL d   1      45.490  22.829  52.878  0.00  0.00     0.004 C 
ATOM     17  C   UNL d   1      44.410  21.854  53.655  0.00  0.00     0.004 C 
ATOM     18  C   UNL d   1      45.070  21.760  52.690  0.00  0.00     0.004 C 
ENDBRANCH  12  15
ENDBRANCH   6   9
ENDBRANCH   5   6
ENDBRANCH   4   5
ENDBRANCH   1   4
BRANCH   2  19
ATOM     19  C   UNL d   1      45.102  27.691  57.381  0.00  0.00     0.085 A 
ATOM     20  C   UNL d   1      45.321  27.532  58.157  0.00  0.00     0.019 A 
ATOM     21  C   UNL d   1      45.200  28.102  58.753  0.00  0.00     0.004 A 
ATOM     22  C   UNL d   1      44.859  28.826  58.565  0.00  0.00     0.024 A 
ATOM     23  C   UNL d   1      44.638  28.986  57.786  0.00  0.00     0.004 A 
ATOM     24  C   UNL d   1      44.756  28.425  57.192  0.00  0.00     0.019 A 
BRANCH  22  25
ATOM     25  C   UNL d   1      44.743  29.385  59.168  0.00  0.00     0.111 A 
ATOM     26  N   UNL d   1      44.798  29.200  59.965  0.00  0.00    -0.239 NA
ATOM     27  C   UNL d   1      44.652  29.883  60.404  0.00  0.00     0.088 A 
ATOM     28  C   UNL d   1      44.633  30.028  61.215  0.00  0.00     0.020 A 
ATOM     29  C   UNL d   1      44.506  30.495  59.871  0.00  0.00     0.049 A 
ATOM     30  C   UNL d   1      44.468  30.785  61.491  0.00  0.00     0.002 A 
ATOM     31  C   UNL d   1      44.322  31.397  60.959  0.00  0.00     0.001 A 
ATOM     32  C   UNL d   1      44.341  31.253  60.149  0.00  0.00     0.008 A 
ATOM     33  S   UNL d   1      44.563  30.186  59.106  0.00  0.00    -0.066 SA
ENDBRANCH  22  25
ENDBRANCH   2  19
TORSDOF 7
ENDMDL
MODEL 4
REMARK VINA RESULT:      -6.6      1.707      7.414
REMARK  7 active torsions:
REMARK  status: ('A' for Active; 'I' for Inactive)
REMARK    1  A    between atoms: N_5  and  S_1 
REMARK    2  A    between atoms: C_8  and  S_1 
REMARK    3  A    between atoms: C_2  and  C_11 
REMARK    4  A    between atoms: C_9  and  N_5 
REMARK    5  A    between atoms: C_10  and  C_9 
REMARK       I    between atoms: N_14  and  C_10 
REMARK    6  A    between atoms: C_24  and  N_14 
REMARK    7  A    between atoms: C_15  and  C_16 
ROOT
ATOM      1  C   UNL d   1      49.302  34.969  52.369  0.00  0.00     0.299 C 
ATOM      2  N   UNL d   1      49.602  34.213  52.353  0.00  0.00    -0.207 NA
ATOM      3  O   UNL d   1      49.761  35.596  52.661  0.00  0.00    -0.263 OA
ENDROOT
BRANCH   1   4
ATOM      4  C   UNL d   1      48.532  35.125  52.092  0.00  0.00     0.174 C 
BRANCH   4   5
ATOM      5  N   UNL d   1      48.210  35.866  52.218  0.00  0.00    -0.152 NA
BRANCH   5   6
ATOM      6  S   UNL d   1      47.550  35.946  52.721  0.00  0.00     0.285 S 
ATOM      7  O   UNL d   1      47.174  35.331  52.319  0.00  0.00    -0.198 OA
ATOM      8  O   UNL d   1      47.930  36.560  53.120  0.00  0.00    -0.198 OA
BRANCH   6   9
ATOM      9  C   UNL d   1      46.899  36.028  53.221  0.00  0.00     0.105 A 
ATOM     10  C   UNL d   1      46.141  36.043  52.913  0.00  0.00     0.013 A 
ATOM     11  C   UNL d   1      45.489  36.125  53.412  0.00  0.00    -0.004 A 
ATOM     12  C   UNL d   1      45.604  36.193  54.230  0.00  0.00    -0.023 A 
ATOM     13  C   UNL d   1      46.374  36.178  54.539  0.00  0.00    -0.004 A 
ATOM     14  C   UNL d   1      47.014  36.096  54.037  0.00  0.00     0.013 A 
BRANCH  12  15
ATOM     15  C   UNL d   1      44.958  36.275  54.736  0.00  0.00     0.019 C 
ATOM     16  C   UNL d   1      45.432  36.684  55.268  0.00  0.00     0.004 C 
ATOM     17  C   UNL d   1      44.482  35.863  54.197  0.00  0.00     0.004 C 
ATOM     18  C   UNL d   1      44.314  36.360  55.246  0.00  0.00     0.004 C 
ENDBRANCH  12  15
ENDBRANCH   6   9
ENDBRANCH   5   6
ENDBRANCH   4   5
ENDBRANCH   1   4
BRANCH   2  19
ATOM     19  C   UNL d   1      50.366  34.066  52.629  0.00  0.00     0.085 A 
ATOM     20  C   UNL d   1      50.467  33.744  53.378  0.00  0.00     0.019 A 
ATOM     21  C   UNL d   1      51.233  33.590  53.670  0.00  0.00     0.004 A 
ATOM     22  C   UNL d   1      51.891  33.761  53.207  0.00  0.00     0.024 A 
ATOM     23  C   UNL d   1      51.789  34.085  52.454  0.00  0.00     0.004 A 
ATOM     24  C   UNL d   1      51.033  34.239  52.161  0.00  0.00     0.019 A 
BRANCH  22  25
ATOM     25  C   UNL d   1      52.648  33.603  53.509  0.00  0.00     0.111 A 
ATOM     26  N   UNL d   1      52.888  33.840  54.255  0.00  0.00    -0.239 NA
ATOM     27  C   UNL d   1      53.667  33.592  54.371  0.00  0.00     0.088 A 
ATOM     28  C   UNL d   1      54.186  33.672  55.006  0.00  0.00     0.020 A 
ATOM     29  C   UNL d   1      53.907  33.198  53.688  0.00  0.00     0.049 A 
ATOM     30  C   UNL d   1      54.946  33.358  54.955  0.00  0.00     0.002 A 
ATOM     31  C   UNL d   1      55.186  32.964  54.272  0.00  0.00     0.001 A 
ATOM     32  C   UNL d   1      54.667  32.884  53.638  0.00  0.00     0.008 A 
ATOM     33  S   UNL d   1      53.276  33.205  53.154  0.00  0.00    -0.066 SA
ENDBRANCH  22  25
ENDBRANCH   2  19
TORSDOF 7
ENDMDL
MODEL 5
REMARK VINA RESULT:      -6.1     11.027     11.926
REMARK  7 active torsions:
REMARK  status: ('A' for Active; 'I' for Inactive)
REMARK    1  A    between atoms: N_5  and  S_1 
REMARK    2  A    between atoms: C_8  and  S_1 
REMARK    3  A    between atoms: C_2  and  C_11 
REMARK    4  A    between atoms: C_9  and  N_5 
REMARK    5  A    between atoms: C_10  and  C_9 
REMARK       I    between atoms: N_14  and  C_10 
REMARK    6  A    between atoms: C_24  and  N_14 
REMARK    7  A    between atoms: C_15  and  C_16 
ROOT
ATOM      1  C   UNL d   1      44.936  26.779  58.101  0.00  0.00     0.299 C 
ATOM      2  N   UNL d   1      44.319  26.519  57.639  0.00  0.00    -0.207 NA
ATOM      3  O   UNL d   1      45.695  26.457  58.007  0.00  0.00    -0.263 OA
ENDROOT
BRANCH   1   4
ATOM      4  C   UNL d   1      44.815  27.371  58.675  0.00  0.00     0.174 C 
BRANCH   4   5
ATOM      5  N   UNL d   1      45.086  28.128  58.524  0.00  0.00    -0.152 NA
BRANCH   5   6
ATOM      6  S   UNL d   1      44.955  28.729  59.087  0.00  0.00     0.285 S 
ATOM      7  O   UNL d   1      44.847  28.155  59.670  0.00  0.00    -0.198 OA
ATOM      8  O   UNL d   1      45.063  29.300  58.501  0.00  0.00    -0.198 OA
BRANCH   6   9
ATOM      9  C   UNL d   1      44.826  29.327  59.641  0.00  0.00     0.105 A 
ATOM     10  C   UNL d   1      44.629  30.082  59.395  0.00  0.00     0.013 A 
ATOM     11  C   UNL d   1      44.500  30.681  59.948  0.00  0.00    -0.004 A 
ATOM     12  C   UNL d   1      44.570  30.515  60.756  0.00  0.00    -0.023 A 
ATOM     13  C   UNL d   1      44.769  29.747  61.002  0.00  0.00    -0.004 A 
ATOM     14  C   UNL d   1      44.896  29.161  60.448  0.00  0.00     0.013 A 
BRANCH  12  15
ATOM     15  C   UNL d   1      44.442  31.107  61.316  0.00  0.00     0.019 C 
ATOM     16  C   UNL d   1      44.389  31.661  60.713  0.00  0.00     0.004 C 
ATOM     17  C   UNL d   1      44.497  30.545  61.924  0.00  0.00     0.004 C 
ATOM     18  C   UNL d   1      44.314  31.703  61.873  0.00  0.00     0.004 C 
ENDBRANCH  12  15
ENDBRANCH   6   9
ENDBRANCH   5   6
ENDBRANCH   4   5
ENDBRANCH   1   4
BRANCH   2  19
ATOM     19  C   UNL d   1      44.446  25.933  57.073  0.00  0.00     0.085 A 
ATOM     20  C   UNL d   1      44.565  25.157  57.317  0.00  0.00     0.019 A 
ATOM     21  C   UNL d   1      44.695  24.554  56.757  0.00  0.00     0.004 A 
ATOM     22  C   UNL d   1      44.703  24.735  55.954  0.00  0.00     0.024 A 
ATOM     23  C   UNL d   1      44.583  25.513  55.708  0.00  0.00     0.004 A 
ATOM     24  C   UNL d   1      44.455  26.114  56.260  0.00  0.00     0.019 A 
BRANCH  22  25
ATOM     25  C   UNL d   1      44.833  24.125  55.406  0.00  0.00     0.111 A 
ATOM     26  N   UNL d   1      44.728  24.222  54.599  0.00  0.00    -0.239 NA
ATOM     27  C   UNL d   1      44.905  23.508  54.224  0.00  0.00     0.088 A 
ATOM     28  C   UNL d   1      44.898  23.280  53.432  0.00  0.00     0.020 A 
ATOM     29  C   UNL d   1      45.122  22.967  54.807  0.00  0.00     0.049 A 
ATOM     30  C   UNL d   1      45.108  22.512  53.225  0.00  0.00     0.002 A 
ATOM     31  C   UNL d   1      45.324  21.971  53.808  0.00  0.00     0.001 A 
ATOM     32  C   UNL d   1      45.331  22.197  54.600  0.00  0.00     0.008 A 
ATOM     33  S   UNL d   1      45.077  23.350  55.539  0.00  0.00    -0.066 SA
ENDBRANCH  22  25
ENDBRANCH   2  19
TORSDOF 7
ENDMDL
