MODEL 1
REMARK VINA RESULT:     118.6      0.000      0.000
REMARK  3 active torsions:
REMARK  status: ('A' for Active; 'I' for Inactive)
REMARK    1  A    between atoms: C_5  and  N_1 
REMARK    2  A    between atoms: C_13  and  C_6 
REMARK    3  A    between atoms: O_24  and  C_19 
ROOT
ATOM      1  N   UNL d   1      59.276  49.283  51.436  0.00  0.00    -0.256 N 
ATOM      2  C   UNL d   1      58.267  49.335  52.320  0.00  0.00     0.083 A 
ATOM      3  C   UNL d   1      58.972  49.452  52.728  0.00  0.00     0.161 A 
ATOM      4  C   UNL d   1      59.600  49.421  52.186  0.00  0.00     0.289 A 
ATOM      5  C   UNL d   1      58.451  49.230  51.520  0.00  0.00     0.075 A 
ATOM      6  C   UNL d   1      57.547  49.339  52.721  0.00  0.00     0.201 A 
ATOM      7  O   UNL d   1      58.957  49.575  53.551  0.00  0.00    -0.302 OA
ATOM      8  C   UNL d   1      57.536  49.460  53.536  0.00  0.00     0.063 A 
ATOM      9  C   UNL d   1      58.239  49.577  53.948  0.00  0.00     0.103 A 
ATOM     10  O   UNL d   1      60.395  49.509  52.358  0.00  0.00    -0.264 OA
ATOM     11  O   UNL d   1      56.842  49.222  52.314  0.00  0.00    -0.286 OA
ATOM     12  C   UNL d   1      56.813  49.464  53.941  0.00  0.00     0.017 A 
ATOM     13  C   UNL d   1      58.219  49.699  54.773  0.00  0.00     0.026 A 
ATOM     14  C   UNL d   1      56.796  49.584  54.752  0.00  0.00     0.058 A 
ATOM     15  C   UNL d   1      57.500  49.702  55.169  0.00  0.00     0.013 A 
ATOM     16 CL   UNL d   1      56.081  49.587  55.153  0.00  0.00    -0.082 Cl
ENDROOT
BRANCH   5  17
ATOM     17  C   UNL d   1      57.748  49.113  51.109  0.00  0.00     0.039 A 
ATOM     18  C   UNL d   1      57.613  48.407  50.700  0.00  0.00     0.096 A 
ATOM     19  C   UNL d   1      56.909  48.293  50.290  0.00  0.00     0.024 A 
ATOM     20  C   UNL d   1      56.329  48.889  50.284  0.00  0.00     0.002 A 
ATOM     21  C   UNL d   1      56.463  49.595  50.693  0.00  0.00     0.000 A 
ATOM     22  C   UNL d   1      57.176  49.706  51.105  0.00  0.00     0.003 A 
BRANCH  18  23
ATOM     23  O   UNL d   1      58.192  47.820  50.709  0.00  0.00    -0.328 OA
ATOM     24  C   UNL d   1      57.970  47.027  50.673  0.00  0.00     0.181 C 
ENDBRANCH  18  23
ENDBRANCH   5  17
BRANCH   1  25
ATOM     25  C   UNL d   1      59.696  49.210  50.732  0.00  0.00     0.179 A 
ATOM     26  N   UNL d   1      59.464  48.784  50.073  0.00  0.00    -0.108 NA
ATOM     27  O   UNL d   1      60.047  48.862  49.496  0.00  0.00    -0.210 OA
ATOM     28  C   UNL d   1      60.642  49.341  49.803  0.00  0.00     0.128 A 
ATOM     29  C   UNL d   1      60.429  49.559  50.568  0.00  0.00     0.067 A 
ATOM     30  C   UNL d   1      61.334  49.566  49.414  0.00  0.00     0.029 C 
ENDBRANCH   1  25
TORSDOF 3
ENDMDL
