MODEL 1
REMARK VINA RESULT:     -10.7      0.000      0.000
REMARK  4 active torsions:
REMARK  status: ('A' for Active; 'I' for Inactive)
REMARK    1  A    between atoms: N_8  and  C_1 
REMARK    2  A    between atoms: O_11  and  C_2 
REMARK       I    between atoms: C_12  and  N_8 
REMARK    3  A    between atoms: C_16  and  O_11 
REMARK    4  A    between atoms: O_22  and  C_17 
ROOT
ATOM      1  C   UNL d   1      53.543  32.300  53.604  0.00  0.00     0.272 A 
ATOM      2  C   UNL d   1      53.677  33.062  53.618  0.00  0.00     0.284 A 
ATOM      3  C   UNL d   1      53.316  30.710  53.665  0.00  0.00     0.207 A 
ATOM      4  C   UNL d   1      53.746  31.371  54.223  0.00  0.00     0.220 A 
ATOM      5  O   UNL d   1      53.244  32.400  53.055  0.00  0.00    -0.325 OA
ATOM      6  C   UNL d   1      53.447  31.524  53.660  0.00  0.00     0.182 A 
ATOM      7  O   UNL d   1      53.466  30.069  54.110  0.00  0.00    -0.327 OA
ATOM      8  C   UNL d   1      53.168  29.619  53.720  0.00  0.00     0.188 A 
ATOM      9  O   UNL d   1      53.068  30.249  53.367  0.00  0.00    -0.332 OA
ATOM     10  C   UNL d   1      53.160  31.069  53.292  0.00  0.00     0.177 A 
ATOM     11  O   UNL d   1      53.621  30.736  54.188  0.00  0.00    -0.290 OA
ATOM     12  C   UNL d   1      53.356  29.099  54.197  0.00  0.00     0.061 C 
ATOM     13  C   UNL d   1      52.846  29.109  53.307  0.00  0.00     0.061 C 
ENDROOT
BRANCH   2  14
ATOM     14  O   UNL d   1      53.527  33.706  53.172  0.00  0.00    -0.303 OA
BRANCH  14  15
ATOM     15  C   UNL d   1      52.745  33.996  53.116  0.00  0.00     0.097 A 
ATOM     16  C   UNL d   1      52.309  33.848  52.434  0.00  0.00     0.026 A 
ATOM     17  C   UNL d   1      51.530  34.135  52.372  0.00  0.00     0.026 A 
ATOM     18  C   UNL d   1      51.199  34.568  53.001  0.00  0.00     0.094 A 
ATOM     19  C   UNL d   1      51.646  34.713  53.686  0.00  0.00     0.026 A 
ATOM     20  C   UNL d   1      52.425  34.426  53.745  0.00  0.00     0.026 A 
BRANCH  18  21
ATOM     21  O   UNL d   1      50.420  34.854  52.939  0.00  0.00    -0.328 OA
ATOM     22  C   UNL d   1      49.842  34.405  52.556  0.00  0.00     0.181 C 
ENDBRANCH  18  21
ENDBRANCH  14  15
ENDBRANCH   2  14
BRANCH   1  23
ATOM     23  N   UNL d   1      53.832  32.755  53.975  0.00  0.00    -0.380 NA
ATOM     24  C   UNL d   1      54.120  33.209  54.343  0.00  0.00     0.324 C 
ATOM     25  O   UNL d   1      53.831  33.417  54.891  0.00  0.00    -0.251 OA
ATOM     26  C   UNL d   1      54.702  33.459  54.168  0.00  0.00     0.082 C 
ENDBRANCH   1  23
TORSDOF 4
ENDMDL
MODEL 2
REMARK VINA RESULT:     -10.4      0.829      4.006
REMARK  4 active torsions:
REMARK  status: ('A' for Active; 'I' for Inactive)
REMARK    1  A    between atoms: N_8  and  C_1 
REMARK    2  A    between atoms: O_11  and  C_2 
REMARK       I    between atoms: C_12  and  N_8 
REMARK    3  A    between atoms: C_16  and  O_11 
REMARK    4  A    between atoms: O_22  and  C_17 
ROOT
ATOM      1  C   UNL d   1      52.642  33.025  53.242  0.00  0.00     0.272 A 
ATOM      2  C   UNL d   1      53.314  32.688  53.425  0.00  0.00     0.284 A 
ATOM      3  C   UNL d   1      51.263  33.794  52.937  0.00  0.00     0.207 A 
ATOM      4  C   UNL d   1      51.994  33.901  53.561  0.00  0.00     0.220 A 
ATOM      5  O   UNL d   1      52.581  32.578  52.798  0.00  0.00    -0.325 OA
ATOM      6  C   UNL d   1      51.976  33.419  53.116  0.00  0.00     0.182 A 
ATOM      7  O   UNL d   1      50.821  34.411  53.173  0.00  0.00    -0.327 OA
ATOM      8  C   UNL d   1      50.322  34.331  52.741  0.00  0.00     0.188 A 
ATOM      9  O   UNL d   1      50.779  33.786  52.581  0.00  0.00    -0.332 OA
ATOM     10  C   UNL d   1      51.477  33.357  52.701  0.00  0.00     0.177 A 
ATOM     11  O   UNL d   1      51.428  34.165  53.389  0.00  0.00    -0.290 OA
ATOM     12  C   UNL d   1      49.994  34.916  53.029  0.00  0.00     0.061 C 
ATOM     13  C   UNL d   1      49.762  34.261  52.275  0.00  0.00     0.061 C 
ENDROOT
BRANCH   2  14
ATOM     14  O   UNL d   1      53.758  32.068  53.189  0.00  0.00    -0.303 OA
BRANCH  14  15
ATOM     15  C   UNL d   1      53.547  31.296  53.426  0.00  0.00     0.097 A 
ATOM     16  C   UNL d   1      53.210  30.785  52.875  0.00  0.00     0.026 A 
ATOM     17  C   UNL d   1      52.997  30.013  53.103  0.00  0.00     0.026 A 
ATOM     18  C   UNL d   1      53.126  29.766  53.887  0.00  0.00     0.094 A 
ATOM     19  C   UNL d   1      53.466  30.287  54.437  0.00  0.00     0.026 A 
ATOM     20  C   UNL d   1      53.679  31.058  54.206  0.00  0.00     0.026 A 
BRANCH  18  21
ATOM     21  O   UNL d   1      52.913  28.994  54.116  0.00  0.00    -0.328 OA
ATOM     22  C   UNL d   1      53.359  28.590  54.681  0.00  0.00     0.181 C 
ENDBRANCH  18  21
ENDBRANCH  14  15
ENDBRANCH   2  14
BRANCH   1  23
ATOM     23  N   UNL d   1      53.142  33.088  53.659  0.00  0.00    -0.380 NA
ATOM     24  C   UNL d   1      53.641  33.152  54.074  0.00  0.00     0.324 C 
ATOM     25  O   UNL d   1      53.554  33.030  54.710  0.00  0.00    -0.251 OA
ATOM     26  C   UNL d   1      54.232  33.340  53.857  0.00  0.00     0.082 C 
ENDBRANCH   1  23
TORSDOF 4
ENDMDL
MODEL 3
REMARK VINA RESULT:      -9.5      1.317      3.975
REMARK  4 active torsions:
REMARK  status: ('A' for Active; 'I' for Inactive)
REMARK    1  A    between atoms: N_8  and  C_1 
REMARK    2  A    between atoms: O_11  and  C_2 
REMARK       I    between atoms: C_12  and  N_8 
REMARK    3  A    between atoms: C_16  and  O_11 
REMARK    4  A    between atoms: O_22  and  C_17 
ROOT
ATOM      1  C   UNL d   1      53.334  32.644  53.437  0.00  0.00     0.272 A 
ATOM      2  C   UNL d   1      52.840  32.287  52.960  0.00  0.00     0.284 A 
ATOM      3  C   UNL d   1      54.292  33.464  54.435  0.00  0.00     0.207 A 
ATOM      4  C   UNL d   1      53.420  33.602  54.040  0.00  0.00     0.220 A 
ATOM      5  O   UNL d   1      53.715  32.146  53.355  0.00  0.00    -0.325 OA
ATOM      6  C   UNL d   1      53.780  33.066  53.925  0.00  0.00     0.182 A 
ATOM      7  O   UNL d   1      54.336  34.139  54.852  0.00  0.00    -0.327 OA
ATOM      8  C   UNL d   1      54.937  34.037  55.120  0.00  0.00     0.188 A 
ATOM      9  O   UNL d   1      54.825  33.442  54.713  0.00  0.00    -0.332 OA
ATOM     10  C   UNL d   1      54.366  32.984  54.197  0.00  0.00     0.177 A 
ATOM     11  O   UNL d   1      53.850  33.881  54.436  0.00  0.00    -0.290 OA
ATOM     12  C   UNL d   1      54.880  34.680  55.462  0.00  0.00     0.061 C 
ATOM     13  C   UNL d   1      55.595  33.945  55.425  0.00  0.00     0.061 C 
ENDROOT
BRANCH   2  14
ATOM     14  O   UNL d   1      52.794  31.610  52.542  0.00  0.00    -0.303 OA
BRANCH  14  15
ATOM     15  C   UNL d   1      52.838  30.876  52.938  0.00  0.00     0.097 A 
ATOM     16  C   UNL d   1      53.544  30.453  52.924  0.00  0.00     0.026 A 
ATOM     17  C   UNL d   1      53.596  29.721  53.317  0.00  0.00     0.026 A 
ATOM     18  C   UNL d   1      52.932  29.423  53.721  0.00  0.00     0.094 A 
ATOM     19  C   UNL d   1      52.223  29.856  53.730  0.00  0.00     0.026 A 
ATOM     20  C   UNL d   1      52.174  30.587  53.336  0.00  0.00     0.026 A 
BRANCH  18  21
ATOM     21  O   UNL d   1      52.984  28.691  54.114  0.00  0.00    -0.328 OA
ATOM     22  C   UNL d   1      53.378  28.635  54.838  0.00  0.00     0.181 C 
ENDBRANCH  18  21
ENDBRANCH  14  15
ENDBRANCH   2  14
BRANCH   1  23
ATOM     23  N   UNL d   1      52.745  32.728  53.164  0.00  0.00    -0.380 NA
ATOM     24  C   UNL d   1      52.157  32.812  52.895  0.00  0.00     0.324 C 
ATOM     25  O   UNL d   1      52.100  32.852  52.245  0.00  0.00    -0.251 OA
ATOM     26  C   UNL d   1      51.621  32.856  53.272  0.00  0.00     0.082 C 
ENDBRANCH   1  23
TORSDOF 4
ENDMDL
MODEL 4
REMARK VINA RESULT:      -9.2      1.281      2.677
REMARK  4 active torsions:
REMARK  status: ('A' for Active; 'I' for Inactive)
REMARK    1  A    between atoms: N_8  and  C_1 
REMARK    2  A    between atoms: O_11  and  C_2 
REMARK       I    between atoms: C_12  and  N_8 
REMARK    3  A    between atoms: C_16  and  O_11 
REMARK    4  A    between atoms: O_22  and  C_17 
ROOT
ATOM      1  C   UNL d   1      53.195  32.758  53.451  0.00  0.00     0.272 A 
ATOM      2  C   UNL d   1      52.687  32.433  52.966  0.00  0.00     0.284 A 
ATOM      3  C   UNL d   1      54.263  33.341  54.502  0.00  0.00     0.207 A 
ATOM      4  C   UNL d   1      53.876  32.475  54.314  0.00  0.00     0.220 A 
ATOM      5  O   UNL d   1      53.075  33.303  53.153  0.00  0.00    -0.325 OA
ATOM      6  C   UNL d   1      53.719  33.014  53.975  0.00  0.00     0.182 A 
ATOM      7  O   UNL d   1      54.735  33.126  55.105  0.00  0.00    -0.327 OA
ATOM      8  C   UNL d   1      54.997  33.725  55.228  0.00  0.00     0.188 A 
ATOM      9  O   UNL d   1      54.542  33.846  54.672  0.00  0.00    -0.332 OA
ATOM     10  C   UNL d   1      53.987  33.593  54.111  0.00  0.00     0.177 A 
ATOM     11  O   UNL d   1      54.296  32.771  54.708  0.00  0.00    -0.290 OA
ATOM     12  C   UNL d   1      55.391  33.428  55.767  0.00  0.00     0.061 C 
ATOM     13  C   UNL d   1      55.298  34.374  55.381  0.00  0.00     0.061 C 
ENDROOT
BRANCH   2  14
ATOM     14  O   UNL d   1      52.213  32.648  52.361  0.00  0.00    -0.303 OA
BRANCH  14  15
ATOM     15  C   UNL d   1      51.592  33.190  52.495  0.00  0.00     0.097 A 
ATOM     16  C   UNL d   1      51.612  33.923  52.123  0.00  0.00     0.026 A 
ATOM     17  C   UNL d   1      50.996  34.469  52.252  0.00  0.00     0.026 A 
ATOM     18  C   UNL d   1      50.366  34.266  52.757  0.00  0.00     0.094 A 
ATOM     19  C   UNL d   1      50.354  33.524  53.128  0.00  0.00     0.026 A 
ATOM     20  C   UNL d   1      50.971  32.981  52.997  0.00  0.00     0.026 A 
BRANCH  18  21
ATOM     21  O   UNL d   1      49.750  34.812  52.886  0.00  0.00    -0.328 OA
ATOM     22  C   UNL d   1      49.134  34.879  52.340  0.00  0.00     0.181 C 
ENDBRANCH  18  21
ENDBRANCH  14  15
ENDBRANCH   2  14
BRANCH   1  23
ATOM     23  N   UNL d   1      52.926  32.177  53.316  0.00  0.00    -0.380 NA
ATOM     24  C   UNL d   1      52.660  31.598  53.180  0.00  0.00     0.324 C 
ATOM     25  O   UNL d   1      52.166  31.373  53.543  0.00  0.00    -0.251 OA
ATOM     26  C   UNL d   1      52.885  31.238  52.679  0.00  0.00     0.082 C 
ENDBRANCH   1  23
TORSDOF 4
ENDMDL
MODEL 5
REMARK VINA RESULT:      -9.2      1.358      4.033
REMARK  4 active torsions:
REMARK  status: ('A' for Active; 'I' for Inactive)
REMARK    1  A    between atoms: N_8  and  C_1 
REMARK    2  A    between atoms: O_11  and  C_2 
REMARK       I    between atoms: C_12  and  N_8 
REMARK    3  A    between atoms: C_16  and  O_11 
REMARK    4  A    between atoms: O_22  and  C_17 
ROOT
ATOM      1  C   UNL d   1      52.099  32.663  53.338  0.00  0.00     0.272 A 
ATOM      2  C   UNL d   1      52.651  32.132  53.454  0.00  0.00     0.284 A 
ATOM      3  C   UNL d   1      50.940  33.725  53.003  0.00  0.00     0.207 A 
ATOM      4  C   UNL d   1      51.369  32.996  52.535  0.00  0.00     0.220 A 
ATOM      5  O   UNL d   1      52.220  32.864  53.926  0.00  0.00    -0.325 OA
ATOM      6  C   UNL d   1      51.530  33.168  53.147  0.00  0.00     0.182 A 
ATOM      7  O   UNL d   1      50.435  33.946  52.429  0.00  0.00    -0.327 OA
ATOM      8  C   UNL d   1      50.143  34.446  52.757  0.00  0.00     0.188 A 
ATOM      9  O   UNL d   1      50.632  34.187  53.233  0.00  0.00    -0.332 OA
ATOM     10  C   UNL d   1      51.233  33.661  53.452  0.00  0.00     0.177 A 
ATOM     11  O   UNL d   1      50.912  33.449  52.462  0.00  0.00    -0.290 OA
ATOM     12  C   UNL d   1      49.723  34.569  52.173  0.00  0.00     0.061 C 
ATOM     13  C   UNL d   1      49.810  34.999  53.100  0.00  0.00     0.061 C 
ENDROOT
BRANCH   2  14
ATOM     14  O   UNL d   1      53.158  31.910  54.028  0.00  0.00    -0.303 OA
BRANCH  14  15
ATOM     15  C   UNL d   1      53.781  32.420  54.249  0.00  0.00     0.097 A 
ATOM     16  C   UNL d   1      53.791  32.737  55.008  0.00  0.00     0.026 A 
ATOM     17  C   UNL d   1      54.410  33.247  55.235  0.00  0.00     0.026 A 
ATOM     18  C   UNL d   1      55.012  33.430  54.691  0.00  0.00     0.094 A 
ATOM     19  C   UNL d   1      54.995  33.105  53.926  0.00  0.00     0.026 A 
ATOM     20  C   UNL d   1      54.375  32.596  53.703  0.00  0.00     0.026 A 
BRANCH  18  21
ATOM     21  O   UNL d   1      55.631  33.939  54.917  0.00  0.00    -0.328 OA
ATOM     22  C   UNL d   1      55.576  34.373  55.618  0.00  0.00     0.181 C 
ENDBRANCH  18  21
ENDBRANCH  14  15
ENDBRANCH   2  14
BRANCH   1  23
ATOM     23  N   UNL d   1      52.396  32.167  53.031  0.00  0.00    -0.380 NA
ATOM     24  C   UNL d   1      52.692  31.673  52.725  0.00  0.00     0.324 C 
ATOM     25  O   UNL d   1      53.108  31.794  52.236  0.00  0.00    -0.251 OA
ATOM     26  C   UNL d   1      52.575  31.053  52.906  0.00  0.00     0.082 C 
ENDBRANCH   1  23
TORSDOF 4
ENDMDL
MODEL 6
REMARK VINA RESULT:      -8.8      1.308      2.084
REMARK  4 active torsions:
REMARK  status: ('A' for Active; 'I' for Inactive)
REMARK    1  A    between atoms: N_8  and  C_1 
REMARK    2  A    between atoms: O_11  and  C_2 
REMARK       I    between atoms: C_12  and  N_8 
REMARK    3  A    between atoms: C_16  and  O_11 
REMARK    4  A    between atoms: O_22  and  C_17 
ROOT
ATOM      1  C   UNL d   1      53.232  31.387  53.377  0.00  0.00     0.272 A 
ATOM      2  C   UNL d   1      53.154  32.086  53.054  0.00  0.00     0.284 A 
ATOM      3  C   UNL d   1      53.296  29.912  54.014  0.00  0.00     0.207 A 
ATOM      4  C   UNL d   1      52.651  30.420  53.504  0.00  0.00     0.220 A 
ATOM      5  O   UNL d   1      53.805  31.578  53.566  0.00  0.00    -0.325 OA
ATOM      6  C   UNL d   1      53.235  30.662  53.677  0.00  0.00     0.182 A 
ATOM      7  O   UNL d   1      52.877  29.242  54.094  0.00  0.00    -0.327 OA
ATOM      8  C   UNL d   1      53.326  28.898  54.444  0.00  0.00     0.188 A 
ATOM      9  O   UNL d   1      53.649  29.542  54.331  0.00  0.00    -0.332 OA
ATOM     10  C   UNL d   1      53.662  30.310  54.021  0.00  0.00     0.177 A 
ATOM     11  O   UNL d   1      52.739  29.842  53.783  0.00  0.00    -0.290 OA
ATOM     12  C   UNL d   1      52.864  28.333  54.461  0.00  0.00     0.061 C 
ATOM     13  C   UNL d   1      53.805  28.503  54.830  0.00  0.00     0.061 C 
ENDROOT
BRANCH   2  14
ATOM     14  O   UNL d   1      53.575  32.759  52.973  0.00  0.00    -0.303 OA
BRANCH  14  15
ATOM     15  C   UNL d   1      53.526  33.349  53.562  0.00  0.00     0.097 A 
ATOM     16  C   UNL d   1      52.945  33.929  53.503  0.00  0.00     0.026 A 
ATOM     17  C   UNL d   1      52.891  34.521  54.086  0.00  0.00     0.026 A 
ATOM     18  C   UNL d   1      53.424  34.520  54.725  0.00  0.00     0.094 A 
ATOM     19  C   UNL d   1      54.007  33.931  54.777  0.00  0.00     0.026 A 
ATOM     20  C   UNL d   1      54.060  33.341  54.193  0.00  0.00     0.026 A 
BRANCH  18  21
ATOM     21  O   UNL d   1      53.370  35.111  55.308  0.00  0.00    -0.328 OA
ATOM     22  C   UNL d   1      53.015  35.837  55.132  0.00  0.00     0.181 C 
ENDBRANCH  18  21
ENDBRANCH  14  15
ENDBRANCH   2  14
BRANCH   1  23
ATOM     23  N   UNL d   1      52.802  31.739  53.032  0.00  0.00    -0.380 NA
ATOM     24  C   UNL d   1      52.373  32.090  52.689  0.00  0.00     0.324 C 
ATOM     25  O   UNL d   1      52.539  32.328  52.104  0.00  0.00    -0.251 OA
ATOM     26  C   UNL d   1      51.772  32.207  52.928  0.00  0.00     0.082 C 
ENDBRANCH   1  23
TORSDOF 4
ENDMDL
