MODEL 1
REMARK VINA RESULT:      60.3      0.000      0.000
REMARK  3 active torsions:
REMARK  status: ('A' for Active; 'I' for Inactive)
REMARK    1  A    between atoms: N_6  and  S_1 
REMARK    2  A    between atoms: C_7  and  S_1 
REMARK    3  A    between atoms: C_10  and  N_6 
ROOT
ATOM      1  S   UNL d   1     -48.820  28.280  34.687  0.00  0.00     0.327 S 
ATOM      2  O   UNL d   1     -48.893  28.230  33.871  0.00  0.00    -0.186 OA
ATOM      3  O   UNL d   1     -49.222  27.748  35.170  0.00  0.00    -0.186 OA
ENDROOT
BRANCH   1   4
ATOM      4  N   UNL d   1     -49.292  27.702  34.345  0.00  0.00    -0.317 NA
BRANCH   4   5
ATOM      5  C   UNL d   1     -49.776  27.112  33.994  0.00  0.00     0.145 A 
ATOM      6  C   UNL d   1     -49.450  26.366  33.825  0.00  0.00     0.033 A 
ATOM      7  C   UNL d   1     -49.928  25.785  33.480  0.00  0.00     0.003 A 
ATOM      8  C   UNL d   1     -49.617  25.043  33.308  0.00  0.00     0.000 C 
ATOM      9  C   UNL d   1     -50.721  25.952  33.307  0.00  0.00     0.000 A 
ATOM     10  C   UNL d   1     -51.033  26.694  33.478  0.00  0.00     0.003 A 
ATOM     11  C   UNL d   1     -50.557  27.273  33.823  0.00  0.00     0.033 A 
ATOM     12  C   UNL d   1     -51.818  26.862  33.308  0.00  0.00     0.000 C 
ENDBRANCH   4   5
ENDBRANCH   1   4
BRANCH   1  13
ATOM     13  C   UNL d   1     -48.345  28.860  35.021  0.00  0.00     0.118 A 
ATOM     14  C   UNL d   1     -48.406  29.637  34.763  0.00  0.00     0.035 A 
ATOM     15  C   UNL d   1     -47.929  30.227  35.097  0.00  0.00     0.105 A 
ATOM     16  N   UNL d   1     -47.865  31.037  34.956  0.00  0.00    -0.189 NA
ATOM     17  C   UNL d   1     -47.386  30.028  35.695  0.00  0.00     0.104 A 
ATOM     18  C   UNL d   1     -47.284  31.345  35.467  0.00  0.00     0.369 A 
ATOM     19  O   UNL d   1     -47.044  32.131  35.511  0.00  0.00    -0.242 OA
ATOM     20  N   UNL d   1     -46.993  30.718  35.919  0.00  0.00    -0.189 NA
ATOM     21  C   UNL d   1     -47.328  29.242  35.953  0.00  0.00     0.022 A 
ATOM     22  C   UNL d   1     -47.808  28.663  35.613  0.00  0.00     0.016 A 
ENDBRANCH   1  13
TORSDOF 3
ENDMDL
MODEL 2
REMARK VINA RESULT:      60.7      2.605      5.648
REMARK  3 active torsions:
REMARK  status: ('A' for Active; 'I' for Inactive)
REMARK    1  A    between atoms: N_6  and  S_1 
REMARK    2  A    between atoms: C_7  and  S_1 
REMARK    3  A    between atoms: C_10  and  N_6 
ROOT
ATOM      1  S   UNL d   1     -50.562  26.154  33.912  0.00  0.00     0.327 S 
ATOM      2  O   UNL d   1     -50.605  26.494  34.658  0.00  0.00    -0.186 OA
ATOM      3  O   UNL d   1     -50.131  26.523  33.316  0.00  0.00    -0.186 OA
ENDROOT
BRANCH   1   4
ATOM      4  N   UNL d   1     -50.178  26.862  34.071  0.00  0.00    -0.317 NA
BRANCH   4   5
ATOM      5  C   UNL d   1     -49.784  27.586  34.234  0.00  0.00     0.145 A 
ATOM      6  C   UNL d   1     -49.141  27.591  34.760  0.00  0.00     0.033 A 
ATOM      7  C   UNL d   1     -48.755  28.306  34.919  0.00  0.00     0.003 A 
ATOM      8  C   UNL d   1     -48.116  28.324  35.437  0.00  0.00     0.000 C 
ATOM      9  C   UNL d   1     -49.012  29.004  34.555  0.00  0.00     0.000 A 
ATOM     10  C   UNL d   1     -49.651  28.988  34.036  0.00  0.00     0.003 A 
ATOM     11  C   UNL d   1     -50.036  28.275  33.877  0.00  0.00     0.033 A 
ATOM     12  C   UNL d   1     -49.908  29.677  33.675  0.00  0.00     0.000 C 
ENDBRANCH   4   5
ENDBRANCH   1   4
BRANCH   1  13
ATOM     13  C   UNL d   1     -50.950  25.447  33.761  0.00  0.00     0.118 A 
ATOM     14  C   UNL d   1     -51.770  25.415  33.791  0.00  0.00     0.035 A 
ATOM     15  C   UNL d   1     -52.166  24.702  33.640  0.00  0.00     0.105 A 
ATOM     16  N   UNL d   1     -52.966  24.502  33.629  0.00  0.00    -0.189 NA
ATOM     17  C   UNL d   1     -51.729  24.018  33.457  0.00  0.00     0.104 A 
ATOM     18  C   UNL d   1     -53.029  23.693  33.439  0.00  0.00     0.369 A 
ATOM     19  O   UNL d   1     -53.729  23.265  33.370  0.00  0.00    -0.242 OA
ATOM     20  N   UNL d   1     -52.263  23.402  33.335  0.00  0.00    -0.189 NA
ATOM     21  C   UNL d   1     -50.901  24.055  33.428  0.00  0.00     0.022 A 
ATOM     22  C   UNL d   1     -50.517  24.770  33.580  0.00  0.00     0.016 A 
ENDBRANCH   1  13
TORSDOF 3
ENDMDL
