MODEL 1
REMARK VINA RESULT:      13.1      0.000      0.000
REMARK  3 active torsions:
REMARK  status: ('A' for Active; 'I' for Inactive)
REMARK    1  A    between atoms: C_7  and  C_3 
REMARK       I    between atoms: N_10  and  C_7 
REMARK    2  A    between atoms: C_19  and  C_9 
REMARK    3  A    between atoms: C_12  and  N_10 
ROOT
ATOM      1  C   UNL d   1      46.331 -18.324  43.582  0.00  0.00     0.059 A 
ATOM      2  C   UNL d   1      46.227 -18.696  44.312  0.00  0.00     0.013 A 
ATOM      3  C   UNL d   1      46.156 -17.054  44.205  0.00  0.00     0.088 A 
ATOM      4  S   UNL d   1      46.296 -17.505  43.528  0.00  0.00    -0.075 SA
ATOM      5  S   UNL d   1      46.471 -18.772  42.902  0.00  0.00    -0.080 SA
ATOM      6  C   UNL d   1      46.052 -17.426  44.934  0.00  0.00     0.012 A 
ATOM      7  C   UNL d   1      46.401 -19.961  43.691  0.00  0.00     0.007 A 
ATOM      8  C   UNL d   1      46.505 -19.589  42.962  0.00  0.00     0.030 A 
ENDROOT
BRANCH   3   9
ATOM      9  C   UNL d   1      46.121 -16.235  44.151  0.00  0.00     0.285 C 
ATOM     10  N   UNL d   1      45.602 -15.810  44.638  0.00  0.00    -0.208 NA
ATOM     11  O   UNL d   1      46.595 -15.839  43.618  0.00  0.00    -0.265 OA
BRANCH  10  12
ATOM     12  C   UNL d   1      45.565 -14.988  44.584  0.00  0.00     0.085 A 
ATOM     13  C   UNL d   1      44.940 -14.639  44.192  0.00  0.00     0.021 A 
ATOM     14  C   UNL d   1      44.893 -13.821  44.132  0.00  0.00     0.031 A 
ATOM     15  C   UNL d   1      45.484 -13.353  44.473  0.00  0.00     0.140 A 
ATOM     16  C   UNL d   1      46.112 -13.714  44.868  0.00  0.00     0.031 A 
ATOM     17  F   UNL d   1      45.448 -12.530  44.420  0.00  0.00    -0.204 F 
ATOM     18  C   UNL d   1      46.154 -14.534  44.925  0.00  0.00     0.021 A 
ENDBRANCH  10  12
ENDBRANCH   3   9
BRANCH   8  19
ATOM     19  C   UNL d   1      46.644 -20.047  42.291  0.00  0.00     0.006 C 
ATOM     20  C   UNL d   1      46.594 -19.713  41.541  0.00  0.00     0.001 C 
ENDBRANCH   8  19
TORSDOF 3
ENDMDL
MODEL 2
REMARK VINA RESULT:      14.5      2.220      4.976
REMARK  3 active torsions:
REMARK  status: ('A' for Active; 'I' for Inactive)
REMARK    1  A    between atoms: C_7  and  C_3 
REMARK       I    between atoms: N_10  and  C_7 
REMARK    2  A    between atoms: C_19  and  C_9 
REMARK    3  A    between atoms: C_12  and  N_10 
ROOT
ATOM      1  C   UNL d   1      45.611 -14.885  44.257  0.00  0.00     0.059 A 
ATOM      2  C   UNL d   1      45.107 -14.884  44.910  0.00  0.00     0.013 A 
ATOM      3  C   UNL d   1      45.664 -16.309  44.301  0.00  0.00     0.088 A 
ATOM      4  S   UNL d   1      45.889 -15.595  43.952  0.00  0.00    -0.075 SA
ATOM      5  S   UNL d   1      45.839 -14.173  43.904  0.00  0.00    -0.080 SA
ATOM      6  C   UNL d   1      45.160 -16.307  44.955  0.00  0.00     0.012 A 
ATOM      7  C   UNL d   1      45.054 -13.465  44.866  0.00  0.00     0.007 A 
ATOM      8  C   UNL d   1      45.558 -13.467  44.212  0.00  0.00     0.030 A 
ENDROOT
BRANCH   3   9
ATOM      9  C   UNL d   1      45.942 -17.019  43.996  0.00  0.00     0.285 C 
ATOM     10  N   UNL d   1      45.540 -17.387  43.372  0.00  0.00    -0.208 NA
ATOM     11  O   UNL d   1      46.614 -17.363  44.307  0.00  0.00    -0.265 OA
BRANCH  10  12
ATOM     12  C   UNL d   1      45.818 -18.100  43.064  0.00  0.00     0.085 A 
ATOM     13  C   UNL d   1      45.712 -18.788  43.489  0.00  0.00     0.021 A 
ATOM     14  C   UNL d   1      45.985 -19.505  43.193  0.00  0.00     0.031 A 
ATOM     15  C   UNL d   1      46.368 -19.522  42.460  0.00  0.00     0.140 A 
ATOM     16  C   UNL d   1      46.472 -18.821  42.037  0.00  0.00     0.031 A 
ATOM     17  F   UNL d   1      46.647 -20.236  42.152  0.00  0.00    -0.204 F 
ATOM     18  C   UNL d   1      46.196 -18.107  42.340  0.00  0.00     0.021 A 
ENDBRANCH  10  12
ENDBRANCH   3   9
BRANCH   8  19
ATOM     19  C   UNL d   1      45.778 -12.751  43.870  0.00  0.00     0.006 C 
ATOM     20  C   UNL d   1      45.235 -12.311  43.438  0.00  0.00     0.001 C 
ENDBRANCH   8  19
TORSDOF 3
ENDMDL
