MODEL 1
REMARK VINA RESULT:      76.8      0.000      0.000
REMARK  3 active torsions:
REMARK  status: ('A' for Active; 'I' for Inactive)
REMARK    1  A    between atoms: C_4  and  N_1 
REMARK    2  A    between atoms: S_5  and  C_6 
REMARK    3  A    between atoms: C_9  and  S_5 
ROOT
ATOM      1  C   UNL d   1      60.021  48.348  50.349  0.00  0.00     0.078 A 
ATOM      2  C   UNL d   1      60.535  48.648  50.935  0.00  0.00     0.080 A 
ATOM      3  C   UNL d   1      60.309  47.827  49.779  0.00  0.00     0.018 A 
ATOM      4  C   UNL d   1      61.329  48.417  50.939  0.00  0.00     0.010 A 
ATOM      5  C   UNL d   1      61.101  47.599  49.785  0.00  0.00     0.002 A 
ATOM      6  C   UNL d   1      61.614  47.895  50.368  0.00  0.00     0.001 A 
ENDROOT
BRANCH   1   7
ATOM      7  N   UNL d   1      59.231  48.575  50.341  0.00  0.00    -0.241 N 
ATOM      8  C   UNL d   1      58.903  49.180  49.887  0.00  0.00     0.267 A 
ATOM      9  C   UNL d   1      58.098  49.213  50.055  0.00  0.00     0.061 A 
ATOM     10  O   UNL d   1      59.310  49.667  49.358  0.00  0.00    -0.267 OA
ATOM     11  C   UNL d   1      57.502  49.699  49.771  0.00  0.00     0.005 A 
ATOM     12  C   UNL d   1      57.925  48.633  50.609  0.00  0.00     0.061 A 
ATOM     13  C   UNL d   1      56.727  49.606  50.042  0.00  0.00     0.000 A 
ATOM     14  C   UNL d   1      56.560  49.017  50.603  0.00  0.00     0.000 A 
ATOM     15  C   UNL d   1      57.159  48.534  50.883  0.00  0.00     0.005 A 
ATOM     16  C   UNL d   1      58.625  48.235  50.790  0.00  0.00     0.267 A 
ATOM     17  O   UNL d   1      58.708  47.608  51.323  0.00  0.00    -0.267 OA
ENDBRANCH   1   7
BRANCH   2  18
ATOM     18  S   UNL d   1      60.249  49.170  51.506  0.00  0.00     0.160 S 
ATOM     19  O   UNL d   1      59.796  49.667  51.846  0.00  0.00    -0.244 OA
BRANCH  18  20
ATOM     20  C   UNL d   1      60.677  49.293  52.200  0.00  0.00     0.477 C 
ATOM     21  F   UNL d   1      61.432  49.702  52.314  0.00  0.00    -0.158 F 
ATOM     22  F   UNL d   1      60.490  49.048  53.009  0.00  0.00    -0.158 F 
ATOM     23  F   UNL d   1      61.067  49.406  52.831  0.00  0.00    -0.158 F 
ENDBRANCH  18  20
ENDBRANCH   2  18
TORSDOF 3
ENDMDL
MODEL 2
REMARK VINA RESULT:      77.6      1.887      3.614
REMARK  3 active torsions:
REMARK  status: ('A' for Active; 'I' for Inactive)
REMARK    1  A    between atoms: C_4  and  N_1 
REMARK    2  A    between atoms: S_5  and  C_6 
REMARK    3  A    between atoms: C_9  and  S_5 
ROOT
ATOM      1  C   UNL d   1      61.129  48.423  51.436  0.00  0.00     0.078 A 
ATOM      2  C   UNL d   1      60.661  49.069  51.191  0.00  0.00     0.080 A 
ATOM      3  C   UNL d   1      61.472  48.425  52.186  0.00  0.00     0.018 A 
ATOM      4  C   UNL d   1      60.546  49.708  51.704  0.00  0.00     0.010 A 
ATOM      5  C   UNL d   1      61.355  49.063  52.695  0.00  0.00     0.002 A 
ATOM      6  C   UNL d   1      60.890  49.707  52.453  0.00  0.00     0.001 A 
ENDROOT
BRANCH   1   7
ATOM      7  N   UNL d   1      61.247  47.786  50.930  0.00  0.00    -0.241 N 
ATOM      8  C   UNL d   1      60.897  47.042  50.994  0.00  0.00     0.267 A 
ATOM      9  C   UNL d   1      61.171  46.580  50.372  0.00  0.00     0.061 A 
ATOM     10  O   UNL d   1      60.365  46.804  51.580  0.00  0.00    -0.267 OA
ATOM     11  C   UNL d   1      61.013  45.804  50.159  0.00  0.00     0.005 A 
ATOM     12  C   UNL d   1      61.688  47.031  49.922  0.00  0.00     0.061 A 
ATOM     13  C   UNL d   1      61.374  45.475  49.493  0.00  0.00     0.000 A 
ATOM     14  C   UNL d   1      61.896  45.938  49.043  0.00  0.00     0.000 A 
ATOM     15  C   UNL d   1      62.050  46.713  49.259  0.00  0.00     0.005 A 
ATOM     16  C   UNL d   1      61.738  47.780  50.264  0.00  0.00     0.267 A 
ATOM     17  O   UNL d   1      62.196  48.413  49.993  0.00  0.00    -0.267 OA
ENDBRANCH   1   7
BRANCH   2  18
ATOM     18  S   UNL d   1      60.318  49.068  50.441  0.00  0.00     0.160 S 
ATOM     19  O   UNL d   1      60.234  48.949  49.702  0.00  0.00    -0.244 OA
BRANCH  18  20
ATOM     20  C   UNL d   1      59.567  49.392  50.334  0.00  0.00     0.477 C 
ATOM     21  F   UNL d   1      59.013  49.701  50.923  0.00  0.00    -0.158 F 
ATOM     22  F   UNL d   1      59.123  49.512  49.601  0.00  0.00    -0.158 F 
ATOM     23  F   UNL d   1      58.884  49.686  50.237  0.00  0.00    -0.158 F 
ENDBRANCH  18  20
ENDBRANCH   2  18
TORSDOF 3
ENDMDL
