MODEL 1
REMARK VINA RESULT:      59.2      0.000      0.000
REMARK  6 active torsions:
REMARK  status: ('A' for Active; 'I' for Inactive)
REMARK    1  A    between atoms: C_2  and  S_1 
REMARK    2  A    between atoms: N_7  and  S_1 
REMARK    3  A    between atoms: C_15  and  N_7 
REMARK    4  A    between atoms: C_14  and  O_21 
REMARK    5  A    between atoms: C_24  and  C_15 
REMARK    6  A    between atoms: O_21  and  C_24 
ROOT
ATOM      1  S   UNL d   1      61.092  48.142  50.798  0.00  0.00     0.285 S 
ATOM      2  O   UNL d   1      61.391  48.554  50.139  0.00  0.00    -0.198 OA
ATOM      3  O   UNL d   1      60.797  47.732  51.450  0.00  0.00    -0.198 OA
ENDROOT
BRANCH   1   4
ATOM      4  C   UNL d   1      61.327  47.421  50.442  0.00  0.00     0.107 A 
ATOM      5  C   UNL d   1      60.916  46.732  50.598  0.00  0.00     0.040 A 
ATOM      6  C   UNL d   1      61.153  46.034  50.246  0.00  0.00     0.123 A 
ATOM      7  O   UNL d   1      60.741  45.336  50.401  0.00  0.00    -0.301 OA
ATOM      8  C   UNL d   1      61.803  46.024  49.737  0.00  0.00     0.123 A 
ATOM      9  C   UNL d   1      60.977  44.628  50.047  0.00  0.00     0.149 A 
ATOM     10  C   UNL d   1      61.627  44.619  49.538  0.00  0.00     0.149 A 
ATOM     11  O   UNL d   1      62.039  45.317  49.383  0.00  0.00    -0.301 OA
ATOM     12  C   UNL d   1      62.214  46.713  49.581  0.00  0.00     0.028 A 
ATOM     13  C   UNL d   1      61.977  47.412  49.933  0.00  0.00     0.015 A 
ENDBRANCH   1   4
BRANCH   1  14
ATOM     14  N   UNL d   1      60.864  48.860  51.140  0.00  0.00    -0.155 NA
BRANCH  14  15
ATOM     15  C   UNL d   1      60.118  48.937  51.480  0.00  0.00     0.139 C 
BRANCH  15  16
ATOM     16  C   UNL d   1      59.647  49.590  51.311  0.00  0.00     0.144 C 
BRANCH  16  17
ATOM     17  O   UNL d   1      59.350  49.708  50.553  0.00  0.00    -0.303 OA
BRANCH  17  18
ATOM     18  C   UNL d   1      58.539  49.696  50.413  0.00  0.00     0.100 A 
ATOM     19  C   UNL d   1      58.257  49.707  49.638  0.00  0.00     0.027 A 
ATOM     20  C   UNL d   1      57.444  49.695  49.494  0.00  0.00     0.032 A 
ATOM     21  C   UNL d   1      56.913  49.673  50.127  0.00  0.00     0.140 A 
ATOM     22  C   UNL d   1      57.195  49.662  50.902  0.00  0.00     0.032 A 
ATOM     23  F   UNL d   1      56.087  49.660  49.988  0.00  0.00    -0.204 F 
ATOM     24  C   UNL d   1      58.007  49.674  51.041  0.00  0.00     0.027 A 
ENDBRANCH  17  18
ENDBRANCH  16  17
ENDBRANCH  15  16
ENDBRANCH  14  15
ENDBRANCH   1  14
TORSDOF 6
ENDMDL
