MODEL 1
REMARK VINA RESULT:      10.5      0.000      0.000
REMARK  2 active torsions:
REMARK  status: ('A' for Active; 'I' for Inactive)
REMARK    1  A    between atoms: C_4  and  C_1 
REMARK    2  A    between atoms: C_2  and  C_7 
ROOT
ATOM      1  C   UNL d   1      44.953 -14.226  44.270  0.00  0.00     0.003 A 
ATOM      2  C   UNL d   1      45.237 -15.589  44.587  0.00  0.00     0.071 A 
ATOM      3  C   UNL d   1      45.469 -14.874  44.253  0.00  0.00     0.004 A 
ATOM      4  C   UNL d   1      44.214 -14.292  44.617  0.00  0.00     0.000 A 
ATOM      5  C   UNL d   1      44.492 -15.664  44.940  0.00  0.00     0.004 A 
ATOM      6  C   UNL d   1      43.978 -15.007  44.954  0.00  0.00    -0.000 A 
ENDROOT
BRANCH   1   7
ATOM      7  C   UNL d   1      45.189 -13.511  43.934  0.00  0.00     0.042 A 
ATOM      8  C   UNL d   1      44.804 -13.223  43.260  0.00  0.00     0.045 A 
ATOM      9  C   UNL d   1      45.040 -12.508  42.924  0.00  0.00     0.196 A 
ATOM     10  O   UNL d   1      44.656 -12.220  42.251  0.00  0.00    -0.287 OA
ATOM     11  C   UNL d   1      45.660 -12.080  43.260  0.00  0.00     0.045 A 
ATOM     12  C   UNL d   1      46.044 -12.368  43.934  0.00  0.00     0.045 A 
ATOM     13  C   UNL d   1      45.808 -13.083  44.270  0.00  0.00     0.196 A 
ATOM     14  O   UNL d   1      46.193 -13.371  44.943  0.00  0.00    -0.287 OA
ENDBRANCH   1   7
BRANCH   2  15
ATOM     15  C   UNL d   1      45.747 -16.238  44.573  0.00  0.00     0.419 C 
ATOM     16  F   UNL d   1      46.213 -16.827  44.561  0.00  0.00    -0.166 F 
ATOM     17  F   UNL d   1      45.641 -17.008  44.200  0.00  0.00    -0.166 F 
ATOM     18  F   UNL d   1      46.535 -16.328  44.929  0.00  0.00    -0.166 F 
ENDBRANCH   2  15
TORSDOF 2
ENDMDL
MODEL 2
REMARK VINA RESULT:      10.8      3.642      5.233
REMARK  2 active torsions:
REMARK  status: ('A' for Active; 'I' for Inactive)
REMARK    1  A    between atoms: C_4  and  C_1 
REMARK    2  A    between atoms: C_2  and  C_7 
ROOT
ATOM      1  C   UNL d   1      46.385 -18.683  43.525  0.00  0.00     0.003 A 
ATOM      2  C   UNL d   1      46.086 -17.482  44.238  0.00  0.00     0.071 A 
ATOM      3  C   UNL d   1      46.174 -17.881  43.523  0.00  0.00     0.004 A 
ATOM      4  C   UNL d   1      46.507 -19.080  44.231  0.00  0.00     0.000 A 
ATOM      5  C   UNL d   1      46.208 -17.876  44.954  0.00  0.00     0.004 A 
ATOM      6  C   UNL d   1      46.420 -18.682  44.948  0.00  0.00    -0.000 A 
ENDROOT
BRANCH   1   7
ATOM      7  C   UNL d   1      46.472 -19.080  42.807  0.00  0.00     0.042 A 
ATOM      8  C   UNL d   1      46.505 -18.654  42.099  0.00  0.00     0.045 A 
ATOM      9  C   UNL d   1      46.592 -19.052  41.382  0.00  0.00     0.196 A 
ATOM     10  O   UNL d   1      46.625 -18.625  40.674  0.00  0.00    -0.287 OA
ATOM     11  C   UNL d   1      46.646 -19.875  41.371  0.00  0.00     0.045 A 
ATOM     12  C   UNL d   1      46.613 -20.301  42.079  0.00  0.00     0.045 A 
ATOM     13  C   UNL d   1      46.526 -19.903  42.797  0.00  0.00     0.196 A 
ATOM     14  O   UNL d   1      46.493 -20.329  43.505  0.00  0.00    -0.287 OA
ENDBRANCH   1   7
BRANCH   2  15
ATOM     15  C   UNL d   1      45.876 -16.684  44.242  0.00  0.00     0.419 C 
ATOM     16  F   UNL d   1      45.683 -15.958  44.245  0.00  0.00    -0.166 F 
ATOM     17  F   UNL d   1      46.266 -16.019  44.627  0.00  0.00    -0.166 F 
ATOM     18  F   UNL d   1      45.202 -16.289  43.860  0.00  0.00    -0.166 F 
ENDBRANCH   2  15
TORSDOF 2
ENDMDL
MODEL 3
REMARK VINA RESULT:      11.6      7.004      7.754
REMARK  2 active torsions:
REMARK  status: ('A' for Active; 'I' for Inactive)
REMARK    1  A    between atoms: C_4  and  C_1 
REMARK    2  A    between atoms: C_2  and  C_7 
ROOT
ATOM      1  C   UNL d   1      44.663 -15.466  36.793  0.00  0.00     0.003 A 
ATOM      2  C   UNL d   1      43.269 -15.755  36.687  0.00  0.00     0.071 A 
ATOM      3  C   UNL d   1      43.873 -15.230  36.877  0.00  0.00     0.004 A 
ATOM      4  C   UNL d   1      44.846 -16.217  36.523  0.00  0.00     0.000 A 
ATOM      5  C   UNL d   1      43.446 -16.515  36.413  0.00  0.00     0.004 A 
ATOM      6  C   UNL d   1      44.243 -16.745  36.331  0.00  0.00    -0.000 A 
ENDROOT
BRANCH   1   7
ATOM      7  C   UNL d   1      45.267 -14.937  36.984  0.00  0.00     0.042 A 
ATOM      8  C   UNL d   1      45.093 -14.243  37.400  0.00  0.00     0.045 A 
ATOM      9  C   UNL d   1      45.697 -13.715  37.591  0.00  0.00     0.196 A 
ATOM     10  O   UNL d   1      45.523 -13.021  38.006  0.00  0.00    -0.287 OA
ATOM     11  C   UNL d   1      46.473 -13.879  37.368  0.00  0.00     0.045 A 
ATOM     12  C   UNL d   1      46.647 -14.573  36.953  0.00  0.00     0.045 A 
ATOM     13  C   UNL d   1      46.043 -15.101  36.761  0.00  0.00     0.196 A 
ATOM     14  O   UNL d   1      46.217 -15.795  36.346  0.00  0.00    -0.287 OA
ENDBRANCH   1   7
BRANCH   2  15
ATOM     15  C   UNL d   1      42.480 -15.525  36.769  0.00  0.00     0.419 C 
ATOM     16  F   UNL d   1      41.763 -15.314  36.844  0.00  0.00    -0.166 F 
ATOM     17  F   UNL d   1      41.780 -15.818  36.359  0.00  0.00    -0.166 F 
ATOM     18  F   UNL d   1      42.132 -14.923  37.291  0.00  0.00    -0.166 F 
ENDBRANCH   2  15
TORSDOF 2
ENDMDL
