MODEL 1
REMARK VINA RESULT:      -3.9      0.000      0.000
REMARK  4 active torsions:
REMARK  status: ('A' for Active; 'I' for Inactive)
REMARK    1  A    between atoms: C_9  and  C_3 
REMARK    2  A    between atoms: C_11  and  C_8 
REMARK    3  A    between atoms: N_10  and  C_11 
REMARK    4  A    between atoms: C_18  and  N_10 
ROOT
ATOM      1  N   UNL d   1     -41.382-122.101 -51.751  0.00  0.00    -0.267 N 
ATOM      2  C   UNL d   1     -41.226-121.512 -51.194  0.00  0.00     0.201 A 
ATOM      3  C   UNL d   1     -41.376-121.748 -52.500  0.00  0.00     0.171 A 
ATOM      4  N   UNL d   1     -41.217-120.951 -52.399  0.00  0.00    -0.128 NA
ATOM      5  N   UNL d   1     -41.125-120.805 -51.593  0.00  0.00    -0.121 NA
ATOM      6  S   UNL d   1     -41.232-121.864 -50.444  0.00  0.00    -0.045 SA
ATOM      7  C   UNL d   1     -41.484-122.816 -51.350  0.00  0.00     0.091 A 
ATOM      8  C   UNL d   1     -41.392-122.670 -50.544  0.00  0.00     0.069 A 
ENDROOT
BRANCH   3   9
ATOM      9  C   UNL d   1     -41.507-122.141 -53.219  0.00  0.00     0.036 A 
ATOM     10  C   UNL d   1     -42.024-121.813 -53.771  0.00  0.00     0.004 A 
ATOM     11  C   UNL d   1     -42.161-122.198 -54.489  0.00  0.00     0.007 A 
ATOM     12  C   UNL d   1     -41.776-122.911 -54.648  0.00  0.00     0.035 A 
ATOM     13  C   UNL d   1     -41.262-123.240 -54.103  0.00  0.00     0.007 A 
ATOM     14 BR   UNL d   1     -41.905-123.301 -55.359  0.00  0.00    -0.049 Br
ATOM     15  C   UNL d   1     -41.130-122.848 -53.385  0.00  0.00     0.004 A 
ENDBRANCH   3   9
BRANCH   8  16
ATOM     16  C   UNL d   1     -41.447-123.223 -49.940  0.00  0.00     0.107 C 
BRANCH  16  17
ATOM     17  N   UNL d   1     -42.171-123.337 -49.553  0.00  0.00    -0.243 NA
BRANCH  17  18
ATOM     18  C   UNL d   1     -42.187-123.519 -48.745  0.00  0.00     0.081 A 
ATOM     19  C   UNL d   1     -42.950-123.543 -48.435  0.00  0.00     0.019 A 
ATOM     20  C   UNL d   1     -42.878-123.729 -47.629  0.00  0.00     0.002 A 
ATOM     21  C   UNL d   1     -42.072-123.817 -47.455  0.00  0.00     0.002 A 
ATOM     22  C   UNL d   1     -41.645-123.688 -48.145  0.00  0.00     0.019 A 
ENDBRANCH  17  18
ENDBRANCH  16  17
ENDBRANCH   8  16
TORSDOF 4
ENDMDL
MODEL 2
REMARK VINA RESULT:      -3.5      1.874      4.895
REMARK  4 active torsions:
REMARK  status: ('A' for Active; 'I' for Inactive)
REMARK    1  A    between atoms: C_9  and  C_3 
REMARK    2  A    between atoms: C_11  and  C_8 
REMARK    3  A    between atoms: N_10  and  C_11 
REMARK    4  A    between atoms: C_18  and  N_10 
ROOT
ATOM      1  N   UNL d   1     -41.631-121.972 -51.342  0.00  0.00    -0.267 N 
ATOM      2  C   UNL d   1     -41.284-121.321 -51.712  0.00  0.00     0.201 A 
ATOM      3  C   UNL d   1     -41.684-121.806 -50.533  0.00  0.00     0.171 A 
ATOM      4  N   UNL d   1     -41.371-121.058 -50.412  0.00  0.00    -0.128 NA
ATOM      5  N   UNL d   1     -41.125-120.759 -51.139  0.00  0.00    -0.121 NA
ATOM      6  S   UNL d   1     -41.231-121.488 -52.522  0.00  0.00    -0.045 SA
ATOM      7  C   UNL d   1     -41.793-122.542 -51.919  0.00  0.00     0.091 A 
ATOM      8  C   UNL d   1     -41.547-122.243 -52.646  0.00  0.00     0.069 A 
ENDROOT
BRANCH   3   9
ATOM      9  C   UNL d   1     -41.999-122.311 -49.955  0.00  0.00     0.036 A 
ATOM     10  C   UNL d   1     -41.490-122.775 -49.502  0.00  0.00     0.004 A 
ATOM     11  C   UNL d   1     -41.796-123.281 -48.925  0.00  0.00     0.007 A 
ATOM     12  C   UNL d   1     -42.612-123.318 -48.807  0.00  0.00     0.035 A 
ATOM     13  C   UNL d   1     -43.121-122.859 -49.255  0.00  0.00     0.007 A 
ATOM     14 BR   UNL d   1     -42.926-123.817 -48.237  0.00  0.00    -0.049 Br
ATOM     15  C   UNL d   1     -42.806-122.354 -49.832  0.00  0.00     0.004 A 
ENDBRANCH   3   9
BRANCH   8  16
ATOM     16  C   UNL d   1     -41.602-122.623 -53.372  0.00  0.00     0.107 C 
BRANCH  16  17
ATOM     17  N   UNL d   1     -42.186-122.393 -53.913  0.00  0.00    -0.243 NA
BRANCH  17  18
ATOM     18  C   UNL d   1     -42.000-122.314 -54.717  0.00  0.00     0.081 A 
ATOM     19  C   UNL d   1     -42.608-121.972 -55.155  0.00  0.00     0.019 A 
ATOM     20  C   UNL d   1     -42.345-121.929 -55.941  0.00  0.00     0.002 A 
ATOM     21  C   UNL d   1     -41.579-122.245 -55.975  0.00  0.00     0.002 A 
ATOM     22  C   UNL d   1     -41.366-122.483 -55.218  0.00  0.00     0.019 A 
ENDBRANCH  17  18
ENDBRANCH  16  17
ENDBRANCH   8  16
TORSDOF 4
ENDMDL
