MODEL 1
REMARK VINA RESULT:      65.3      0.000      0.000
REMARK  2 active torsions:
REMARK  status: ('A' for Active; 'I' for Inactive)
REMARK    1  A    between atoms: N_7  and  C_3 
REMARK    2  A    between atoms: C_11  and  N_8 
ROOT
ATOM      1  N   UNL d   1      13.430  14.012  -4.328  0.00  0.00    -0.286 N 
ATOM      2  N   UNL d   1      13.542  15.504  -5.014  0.00  0.00    -0.301 N 
ATOM      3  C   UNL d   1      14.098  14.211  -4.771  0.00  0.00     0.101 A 
ATOM      4  C   UNL d   1      12.825  14.552  -4.228  0.00  0.00     0.101 A 
ATOM      5  C   UNL d   1      14.150  14.959  -5.114  0.00  0.00     0.100 A 
ATOM      6  C   UNL d   1      12.877  15.301  -4.571  0.00  0.00     0.100 A 
ENDROOT
BRANCH   1   7
ATOM      7  C   UNL d   1      13.377  13.267  -3.986  0.00  0.00     0.154 A 
ATOM      8  C   UNL d   1      13.722  13.128  -3.262  0.00  0.00     0.091 A 
ATOM      9  C   UNL d   1      13.669  12.383  -2.920  0.00  0.00     0.170 A 
ATOM     10  C   UNL d   1      14.150  13.620  -2.753  0.00  0.00     0.127 A 
ATOM     11  N   UNL d   1      14.066  12.411  -2.196  0.00  0.00    -0.209 N 
ATOM     12  N   UNL d   1      13.273  11.782  -3.305  0.00  0.00    -0.205 NA
ATOM     13  C   UNL d   1      14.149  11.779  -1.669  0.00  0.00     0.123 C 
ATOM     14  N   UNL d   1      14.361  13.171  -2.094  0.00  0.00    -0.162 NA
ATOM     15  C   UNL d   1      12.929  11.925  -4.032  0.00  0.00     0.202 A 
ATOM     16  N   UNL d   1      12.981  12.673  -4.375  0.00  0.00    -0.206 NA
ENDBRANCH   1   7
BRANCH   2  17
ATOM     17  C   UNL d   1      13.598  16.252  -5.359  0.00  0.00     0.065 A 
ATOM     18  C   UNL d   1      14.229  16.740  -5.167  0.00  0.00     0.030 A 
ATOM     19  C   UNL d   1      14.295  17.489  -5.505  0.00  0.00     0.070 A 
ATOM     20 CL   UNL d   1      14.933  17.976  -5.308  0.00  0.00    -0.081 Cl
ATOM     21  C   UNL d   1      13.718  17.747  -6.043  0.00  0.00     0.068 A 
ATOM     22  C   UNL d   1      13.081  17.254  -6.236  0.00  0.00     0.014 A 
ATOM     23 CL   UNL d   1      13.779  18.496  -6.385  0.00  0.00    -0.082 Cl
ATOM     24  C   UNL d   1      13.021  16.505  -5.894  0.00  0.00     0.018 A 
ENDBRANCH   2  17
TORSDOF 2
ENDMDL
MODEL 2
REMARK VINA RESULT:      66.0      1.053      1.558
REMARK  2 active torsions:
REMARK  status: ('A' for Active; 'I' for Inactive)
REMARK    1  A    between atoms: N_7  and  C_3 
REMARK    2  A    between atoms: C_11  and  N_8 
ROOT
ATOM      1  N   UNL d   1      13.905  13.589  -2.978  0.00  0.00    -0.286 N 
ATOM      2  N   UNL d   1      13.962  14.805  -4.086  0.00  0.00    -0.301 N 
ATOM      3  C   UNL d   1      14.267  14.305  -2.783  0.00  0.00     0.101 A 
ATOM      4  C   UNL d   1      13.575  13.481  -3.718  0.00  0.00     0.101 A 
ATOM      5  C   UNL d   1      14.293  14.912  -3.342  0.00  0.00     0.100 A 
ATOM      6  C   UNL d   1      13.601  14.088  -4.276  0.00  0.00     0.100 A 
ENDROOT
BRANCH   1   7
ATOM      7  C   UNL d   1      13.878  12.984  -2.423  0.00  0.00     0.154 A 
ATOM      8  C   UNL d   1      14.396  12.988  -1.795  0.00  0.00     0.091 A 
ATOM      9  C   UNL d   1      14.369  12.383  -1.240  0.00  0.00     0.170 A 
ATOM     10  C   UNL d   1      14.994  13.516  -1.579  0.00  0.00     0.127 A 
ATOM     11  N   UNL d   1      14.954  12.536  -0.675  0.00  0.00    -0.209 N 
ATOM     12  N   UNL d   1      13.825  11.779  -1.316  0.00  0.00    -0.205 NA
ATOM     13  C   UNL d   1      15.119  12.065  -0.016  0.00  0.00     0.123 C 
ATOM     14  N   UNL d   1      15.337  13.232  -0.885  0.00  0.00    -0.162 NA
ATOM     15  C   UNL d   1      13.307  11.779  -1.947  0.00  0.00     0.202 A 
ATOM     16  N   UNL d   1      13.334  12.386  -2.504  0.00  0.00    -0.206 NA
ENDBRANCH   1   7
BRANCH   2  17
ATOM     17  C   UNL d   1      13.990  15.415  -4.642  0.00  0.00     0.065 A 
ATOM     18  C   UNL d   1      14.473  16.064  -4.506  0.00  0.00     0.030 A 
ATOM     19  C   UNL d   1      14.510  16.679  -5.054  0.00  0.00     0.070 A 
ATOM     20 CL   UNL d   1      14.998  17.330  -4.912  0.00  0.00    -0.081 Cl
ATOM     21  C   UNL d   1      14.054  16.638  -5.746  0.00  0.00     0.068 A 
ATOM     22  C   UNL d   1      13.566  15.981  -5.883  0.00  0.00     0.014 A 
ATOM     23 CL   UNL d   1      14.086  17.250  -6.298  0.00  0.00    -0.082 Cl
ATOM     24  C   UNL d   1      13.535  15.369  -5.330  0.00  0.00     0.018 A 
ENDBRANCH   2  17
TORSDOF 2
ENDMDL
