MODEL 1
REMARK VINA RESULT:      15.7      0.000      0.000
REMARK  4 active torsions:
REMARK  status: ('A' for Active; 'I' for Inactive)
REMARK    1  A    between atoms: C_2  and  C_1 
REMARK       I    between atoms: N_6  and  C_2 
REMARK    2  A    between atoms: C_4  and  C_11 
REMARK    3  A    between atoms: N_8  and  N_6 
REMARK    4  A    between atoms: C_11  and  N_8 
ROOT
ATOM      1  C   UNL d   1      13.137  12.205  -4.284  0.00  0.00     0.300 C 
ATOM      2  O   UNL d   1      12.826  11.807  -4.936  0.00  0.00    -0.264 OA
ATOM      3  N   UNL d   1      13.472  11.780  -3.654  0.00  0.00    -0.105 NA
ENDROOT
BRANCH   3   4
ATOM      4  N   UNL d   1      13.784  12.177  -3.001  0.00  0.00    -0.143 NA
BRANCH   4   5
ATOM      5  C   UNL d   1      14.345  11.800  -2.503  0.00  0.00     0.126 C 
BRANCH   5   6
ATOM      6  C   UNL d   1      14.257  11.824  -1.688  0.00  0.00     0.060 A 
ATOM      7  C   UNL d   1      14.924  11.842  -1.190  0.00  0.00     0.197 A 
ATOM      8  O   UNL d   1      15.673  11.836  -1.521  0.00  0.00    -0.286 OA
ATOM      9  C   UNL d   1      14.836  11.867  -0.376  0.00  0.00     0.042 A 
ATOM     10  C   UNL d   1      14.086  11.874  -0.042  0.00  0.00     0.003 A 
ATOM     11  C   UNL d   1      13.403  11.856  -0.539  0.00  0.00     0.000 A 
ATOM     12  C   UNL d   1      13.492  11.831  -1.357  0.00  0.00     0.005 A 
ENDBRANCH   5   6
ENDBRANCH   4   5
ENDBRANCH   3   4
BRANCH   1  13
ATOM     13  C   UNL d   1      13.117  13.030  -4.256  0.00  0.00     0.098 A 
ATOM     14  C   UNL d   1      13.437  13.462  -4.884  0.00  0.00     0.200 A 
ATOM     15  O   UNL d   1      13.768  13.067  -5.522  0.00  0.00    -0.286 OA
ATOM     16  C   UNL d   1      13.426  14.290  -4.874  0.00  0.00     0.042 A 
ATOM     17  C   UNL d   1      13.094  14.685  -4.235  0.00  0.00     0.003 A 
ATOM     18  C   UNL d   1      12.769  14.257  -3.596  0.00  0.00     0.000 A 
ATOM     19  C   UNL d   1      12.777  13.435  -3.600  0.00  0.00     0.008 A 
ENDBRANCH   1  13
TORSDOF 4
ENDMDL
MODEL 2
REMARK VINA RESULT:      17.2      0.645      3.863
REMARK  4 active torsions:
REMARK  status: ('A' for Active; 'I' for Inactive)
REMARK    1  A    between atoms: C_2  and  C_1 
REMARK       I    between atoms: N_6  and  C_2 
REMARK    2  A    between atoms: C_4  and  C_11 
REMARK    3  A    between atoms: N_8  and  N_6 
REMARK    4  A    between atoms: C_11  and  N_8 
ROOT
ATOM      1  C   UNL d   1      14.830  11.987  -2.126  0.00  0.00     0.300 C 
ATOM      2  O   UNL d   1      15.655  11.983  -2.104  0.00  0.00    -0.264 OA
ATOM      3  N   UNL d   1      14.430  11.893  -2.847  0.00  0.00    -0.105 NA
ENDROOT
BRANCH   3   4
ATOM      4  N   UNL d   1      13.605  11.897  -2.871  0.00  0.00    -0.143 NA
BRANCH   4   5
ATOM      5  C   UNL d   1      13.201  11.860  -3.606  0.00  0.00     0.126 C 
BRANCH   5   6
ATOM      6  C   UNL d   1      13.132  12.530  -4.074  0.00  0.00     0.060 A 
ATOM      7  C   UNL d   1      13.290  12.494  -4.891  0.00  0.00     0.197 A 
ATOM      8  O   UNL d   1      13.516  11.782  -5.226  0.00  0.00    -0.286 OA
ATOM      9  C   UNL d   1      13.222  13.164  -5.358  0.00  0.00     0.042 A 
ATOM     10  C   UNL d   1      12.995  13.879  -5.024  0.00  0.00     0.003 A 
ATOM     11  C   UNL d   1      12.833  13.924  -4.197  0.00  0.00     0.000 A 
ATOM     12  C   UNL d   1      12.902  13.252  -3.727  0.00  0.00     0.005 A 
ENDBRANCH   5   6
ENDBRANCH   4   5
ENDBRANCH   3   4
BRANCH   1  13
ATOM     13  C   UNL d   1      14.400  12.085  -1.428  0.00  0.00     0.098 A 
ATOM     14  C   UNL d   1      14.745  12.488  -0.796  0.00  0.00     0.200 A 
ATOM     15  O   UNL d   1      15.506  12.785  -0.868  0.00  0.00    -0.286 OA
ATOM     16  C   UNL d   1      14.329  12.597  -0.087  0.00  0.00     0.042 A 
ATOM     17  C   UNL d   1      13.566  12.299  -0.014  0.00  0.00     0.003 A 
ATOM     18  C   UNL d   1      13.209  11.890  -0.648  0.00  0.00     0.000 A 
ATOM     19  C   UNL d   1      13.617  11.780  -1.353  0.00  0.00     0.008 A 
ENDBRANCH   1  13
TORSDOF 4
ENDMDL
