MODEL 1
REMARK VINA RESULT:      74.9      0.000      0.000
REMARK  4 active torsions:
REMARK  status: ('A' for Active; 'I' for Inactive)
REMARK    1  A    between atoms: C_2  and  N_1 
REMARK    2  A    between atoms: C_12  and  C_5 
REMARK    3  A    between atoms: O_20  and  C_12 
REMARK    4  A    between atoms: C_21  and  C_13 
ROOT
ATOM      1  N   UNL d   1      61.162  47.848  50.757  0.00  0.00    -0.237 N 
ATOM      2  C   UNL d   1      60.804  47.097  50.839  0.00  0.00     0.263 A 
ATOM      3  C   UNL d   1      61.727  47.800  50.148  0.00  0.00     0.263 A 
ATOM      4  C   UNL d   1      61.720  47.026  49.855  0.00  0.00     0.039 A 
ATOM      5  C   UNL d   1      61.147  46.592  50.284  0.00  0.00     0.039 A 
ATOM      6  C   UNL d   1      62.163  46.655  49.247  0.00  0.00     0.049 A 
ATOM      7  C   UNL d   1      61.013  45.782  50.109  0.00  0.00     0.049 A 
ATOM      8  C   UNL d   1      62.021  45.837  49.076  0.00  0.00    -0.026 A 
ATOM      9  C   UNL d   1      61.449  45.410  49.508  0.00  0.00    -0.026 A 
ATOM     10  C   UNL d   1      61.603  46.584  49.805  0.00  0.00     0.018 A 
ATOM     11  O   UNL d   1      62.184  48.396  49.903  0.00  0.00    -0.267 OA
ATOM     12  O   UNL d   1      60.239  46.913  51.358  0.00  0.00    -0.267 OA
ENDROOT
BRANCH   1  13
ATOM     13  C   UNL d   1      60.986  48.499  51.195  0.00  0.00     0.105 A 
ATOM     14  C   UNL d   1      60.629  49.155  50.924  0.00  0.00     0.086 A 
ATOM     15  C   UNL d   1      60.558  49.668  51.536  0.00  0.00     0.014 A 
ATOM     16  C   UNL d   1      60.874  49.317  52.171  0.00  0.00     0.031 A 
ATOM     17  S   UNL d   1      61.139  48.601  51.971  0.00  0.00    -0.069 SA
BRANCH  14  18
ATOM     18  C   UNL d   1      60.384  49.280  50.175  0.00  0.00     0.298 C 
ATOM     19  O   UNL d   1      60.898  49.531  49.619  0.00  0.00    -0.259 OA
BRANCH  18  20
ATOM     20  O   UNL d   1      59.612  49.152  49.978  0.00  0.00    -0.296 OA
ATOM     21  C   UNL d   1      59.328  49.698  49.481  0.00  0.00     0.185 C 
ENDBRANCH  18  20
ENDBRANCH  14  18
BRANCH  16  22
ATOM     22  C   UNL d   1      60.880  49.708  52.872  0.00  0.00     0.006 C 
ATOM     23  C   UNL d   1      60.225  49.695  53.355  0.00  0.00     0.001 C 
ENDBRANCH  16  22
ENDBRANCH   1  13
TORSDOF 4
ENDMDL
MODEL 2
REMARK VINA RESULT:      76.4      1.190      1.732
REMARK  4 active torsions:
REMARK  status: ('A' for Active; 'I' for Inactive)
REMARK    1  A    between atoms: C_2  and  N_1 
REMARK    2  A    between atoms: C_12  and  C_5 
REMARK    3  A    between atoms: O_20  and  C_12 
REMARK    4  A    between atoms: C_21  and  C_13 
ROOT
ATOM      1  N   UNL d   1      60.516  48.005  50.577  0.00  0.00    -0.237 N 
ATOM      2  C   UNL d   1      60.516  47.241  50.917  0.00  0.00     0.263 A 
ATOM      3  C   UNL d   1      61.108  48.028  49.993  0.00  0.00     0.263 A 
ATOM      4  C   UNL d   1      61.473  47.286  49.971  0.00  0.00     0.039 A 
ATOM      5  C   UNL d   1      61.105  46.799  50.545  0.00  0.00     0.039 A 
ATOM      6  C   UNL d   1      62.098  46.984  49.500  0.00  0.00     0.049 A 
ATOM      7  C   UNL d   1      61.359  46.006  50.652  0.00  0.00     0.049 A 
ATOM      8  C   UNL d   1      62.349  46.182  49.615  0.00  0.00    -0.026 A 
ATOM      9  C   UNL d   1      61.978  45.703  50.189  0.00  0.00    -0.026 A 
ATOM     10  C   UNL d   1      61.568  46.847  50.075  0.00  0.00     0.018 A 
ATOM     11  O   UNL d   1      61.281  48.656  49.545  0.00  0.00    -0.267 OA
ATOM     12  O   UNL d   1      60.035  46.995  51.492  0.00  0.00    -0.267 OA
ENDROOT
BRANCH   1  13
ATOM     13  C   UNL d   1      60.025  48.608  50.783  0.00  0.00     0.105 A 
ATOM     14  C   UNL d   1      60.225  49.233  51.230  0.00  0.00     0.086 A 
ATOM     15  C   UNL d   1      59.577  49.701  51.302  0.00  0.00     0.014 A 
ATOM     16  C   UNL d   1      58.993  49.353  50.898  0.00  0.00     0.031 A 
ATOM     17  S   UNL d   1      59.258  48.683  50.576  0.00  0.00    -0.069 SA
BRANCH  14  18
ATOM     18  C   UNL d   1      60.942  49.371  51.550  0.00  0.00     0.298 C 
ATOM     19  O   UNL d   1      61.523  49.697  51.111  0.00  0.00    -0.259 OA
BRANCH  18  20
ATOM     20  O   UNL d   1      61.082  49.180  52.321  0.00  0.00    -0.296 OA
ATOM     21  C   UNL d   1      61.585  49.678  52.674  0.00  0.00     0.185 C 
ENDBRANCH  18  20
ENDBRANCH  14  18
BRANCH  16  22
ATOM     22  C   UNL d   1      58.271  49.703  50.873  0.00  0.00     0.006 C 
ATOM     23  C   UNL d   1      57.595  49.256  50.948  0.00  0.00     0.001 C 
ENDBRANCH  16  22
ENDBRANCH   1  13
TORSDOF 4
ENDMDL
