MODEL 1
REMARK VINA RESULT:      39.6      0.000      0.000
REMARK  7 active torsions:
REMARK  status: ('A' for Active; 'I' for Inactive)
REMARK    1  A    between atoms: N_6  and  C_1 
REMARK    2  A    between atoms: S_9  and  C_3 
REMARK       I    between atoms: C_7  and  N_6 
REMARK    3  A    between atoms: C_14  and  C_7 
REMARK    4  A    between atoms: C_8  and  C_13 
REMARK       I    between atoms: N_10  and  C_8 
REMARK    5  A    between atoms: C_13  and  S_9 
REMARK    6  A    between atoms: C_15  and  N_10 
REMARK    7  A    between atoms: C_22  and  C_14 
ROOT
ATOM      1  C   UNL d   1      13.807  15.679  -4.898  0.00  0.00     0.219 A 
ATOM      2  S   UNL d   1      13.318  15.028  -4.970  0.00  0.00    -0.019 SA
ATOM      3  C   UNL d   1      13.383  14.595  -4.318  0.00  0.00     0.165 A 
ATOM      4  N   UNL d   1      14.175  15.611  -4.155  0.00  0.00    -0.120 NA
ATOM      5  N   UNL d   1      13.920  14.959  -3.807  0.00  0.00    -0.133 NA
ENDROOT
BRANCH   3   6
ATOM      6  S   UNL d   1      12.937  13.881  -4.237  0.00  0.00    -0.054 SA
BRANCH   6   7
ATOM      7  C   UNL d   1      13.305  13.193  -3.966  0.00  0.00     0.100 C 
BRANCH   7   8
ATOM      8  C   UNL d   1      13.168  12.469  -4.339  0.00  0.00     0.286 C 
ATOM      9  N   UNL d   1      13.249  11.780  -3.932  0.00  0.00    -0.208 NA
ATOM     10  O   UNL d   1      12.939  12.450  -5.155  0.00  0.00    -0.265 OA
BRANCH   9  11
ATOM     11  C   UNL d   1      13.480  11.805  -3.110  0.00  0.00     0.085 A 
ATOM     12  C   UNL d   1      14.280  11.840  -2.947  0.00  0.00     0.021 A 
ATOM     13  C   UNL d   1      14.516  11.865  -2.158  0.00  0.00     0.031 A 
ATOM     14  C   UNL d   1      13.978  11.855  -1.553  0.00  0.00     0.140 A 
ATOM     15  C   UNL d   1      13.155  11.818  -1.726  0.00  0.00     0.031 A 
ATOM     16  F   UNL d   1      14.199  11.877  -0.830  0.00  0.00    -0.204 F 
ATOM     17  C   UNL d   1      12.907  11.793  -2.516  0.00  0.00     0.021 A 
ENDBRANCH   9  11
ENDBRANCH   7   8
ENDBRANCH   6   7
ENDBRANCH   3   6
BRANCH   1  18
ATOM     18  N   UNL d   1      13.940  16.306  -5.433  0.00  0.00    -0.181 NA
ATOM     19  C   UNL d   1      13.589  16.932  -5.883  0.00  0.00     0.281 C 
ATOM     20  O   UNL d   1      12.775  17.050  -5.837  0.00  0.00    -0.265 OA
BRANCH  19  21
ATOM     21  C   UNL d   1      13.954  17.472  -6.388  0.00  0.00     0.063 C 
BRANCH  21  22
ATOM     22  C   UNL d   1      13.692  18.332  -6.335  0.00  0.00     0.005 C 
ATOM     23  C   UNL d   1      14.304  18.900  -6.277  0.00  0.00     0.000 C 
ATOM     24  C   UNL d   1      13.062  18.603  -6.335  0.00  0.00     0.000 C 
ENDBRANCH  21  22
ENDBRANCH  19  21
ENDBRANCH   1  18
TORSDOF 7
ENDMDL
MODEL 2
REMARK VINA RESULT:      40.8      2.136      3.041
REMARK  7 active torsions:
REMARK  status: ('A' for Active; 'I' for Inactive)
REMARK    1  A    between atoms: N_6  and  C_1 
REMARK    2  A    between atoms: S_9  and  C_3 
REMARK       I    between atoms: C_7  and  N_6 
REMARK    3  A    between atoms: C_14  and  C_7 
REMARK    4  A    between atoms: C_8  and  C_13 
REMARK       I    between atoms: N_10  and  C_8 
REMARK    5  A    between atoms: C_13  and  S_9 
REMARK    6  A    between atoms: C_15  and  N_10 
REMARK    7  A    between atoms: C_22  and  C_14 
ROOT
ATOM      1  C   UNL d   1      13.476  13.599  -3.832  0.00  0.00     0.219 A 
ATOM      2  S   UNL d   1      13.778  13.347  -3.115  0.00  0.00    -0.019 SA
ATOM      3  C   UNL d   1      13.595  12.588  -3.022  0.00  0.00     0.165 A 
ATOM      4  N   UNL d   1      13.096  12.940  -4.168  0.00  0.00    -0.120 NA
ATOM      5  N   UNL d   1      13.168  12.332  -3.682  0.00  0.00    -0.133 NA
ENDROOT
BRANCH   3   6
ATOM      6  S   UNL d   1      13.838  12.176  -2.325  0.00  0.00    -0.054 SA
BRANCH   6   7
ATOM      7  C   UNL d   1      13.918  12.585  -1.611  0.00  0.00     0.100 C 
BRANCH   7   8
ATOM      8  C   UNL d   1      13.554  12.306  -0.925  0.00  0.00     0.286 C 
ATOM      9  N   UNL d   1      13.836  12.516  -0.201  0.00  0.00    -0.208 NA
ATOM     10  O   UNL d   1      12.879  11.796  -0.981  0.00  0.00    -0.265 OA
BRANCH   9  11
ATOM     11  C   UNL d   1      14.516  13.030  -0.150  0.00  0.00     0.085 A 
ATOM     12  C   UNL d   1      15.253  12.679  -0.192  0.00  0.00     0.021 A 
ATOM     13  C   UNL d   1      15.918  13.165  -0.144  0.00  0.00     0.031 A 
ATOM     14  C   UNL d   1      15.853  13.967  -0.058  0.00  0.00     0.140 A 
ATOM     15  C   UNL d   1      15.092  14.323  -0.016  0.00  0.00     0.031 A 
ATOM     16  F   UNL d   1      16.465  14.409  -0.015  0.00  0.00    -0.204 F 
ATOM     17  C   UNL d   1      14.417  13.844  -0.063  0.00  0.00     0.021 A 
ENDBRANCH   9  11
ENDBRANCH   7   8
ENDBRANCH   6   7
ENDBRANCH   3   6
BRANCH   1  18
ATOM     18  N   UNL d   1      13.517  14.352  -4.190  0.00  0.00    -0.181 NA
ATOM     19  C   UNL d   1      13.646  14.783  -4.908  0.00  0.00     0.281 C 
ATOM     20  O   UNL d   1      13.807  14.367  -5.599  0.00  0.00    -0.265 OA
BRANCH  19  21
ATOM     21  C   UNL d   1      13.635  15.598  -5.029  0.00  0.00     0.063 C 
BRANCH  21  22
ATOM     22  C   UNL d   1      14.377  16.060  -4.810  0.00  0.00     0.005 C 
ATOM     23  C   UNL d   1      15.085  15.818  -5.184  0.00  0.00     0.000 C 
ATOM     24  C   UNL d   1      14.458  16.588  -4.379  0.00  0.00     0.000 C 
ENDBRANCH  21  22
ENDBRANCH  19  21
ENDBRANCH   1  18
TORSDOF 7
ENDMDL
MODEL 3
REMARK VINA RESULT:      40.8      1.986      5.094
REMARK  7 active torsions:
REMARK  status: ('A' for Active; 'I' for Inactive)
REMARK    1  A    between atoms: N_6  and  C_1 
REMARK    2  A    between atoms: S_9  and  C_3 
REMARK       I    between atoms: C_7  and  N_6 
REMARK    3  A    between atoms: C_14  and  C_7 
REMARK    4  A    between atoms: C_8  and  C_13 
REMARK       I    between atoms: N_10  and  C_8 
REMARK    5  A    between atoms: C_13  and  S_9 
REMARK    6  A    between atoms: C_15  and  N_10 
REMARK    7  A    between atoms: C_22  and  C_14 
ROOT
ATOM      1  C   UNL d   1      13.502  12.305  -3.270  0.00  0.00     0.219 A 
ATOM      2  S   UNL d   1      13.335  13.061  -3.533  0.00  0.00    -0.019 SA
ATOM      3  C   UNL d   1      13.088  13.017  -4.278  0.00  0.00     0.165 A 
ATOM      4  N   UNL d   1      13.339  11.797  -3.908  0.00  0.00    -0.120 NA
ATOM      5  N   UNL d   1      13.090  12.225  -4.514  0.00  0.00    -0.133 NA
ENDROOT
BRANCH   3   6
ATOM      6  S   UNL d   1      12.875  13.720  -4.695  0.00  0.00    -0.054 SA
BRANCH   6   7
ATOM      7  C   UNL d   1      13.341  14.399  -4.626  0.00  0.00     0.100 C 
BRANCH   7   8
ATOM      8  C   UNL d   1      13.561  14.827  -5.296  0.00  0.00     0.286 C 
ATOM      9  N   UNL d   1      13.993  15.503  -5.225  0.00  0.00    -0.208 NA
ATOM     10  O   UNL d   1      13.332  14.556  -6.066  0.00  0.00    -0.265 OA
BRANCH   9  11
ATOM     11  C   UNL d   1      14.221  15.772  -4.447  0.00  0.00     0.085 A 
ATOM     12  C   UNL d   1      14.996  16.013  -4.348  0.00  0.00     0.021 A 
ATOM     13  C   UNL d   1      15.229  16.275  -3.601  0.00  0.00     0.031 A 
ATOM     14  C   UNL d   1      14.713  16.296  -2.978  0.00  0.00     0.140 A 
ATOM     15  C   UNL d   1      13.917  16.047  -3.085  0.00  0.00     0.031 A 
ATOM     16  F   UNL d   1      14.932  16.537  -2.295  0.00  0.00    -0.204 F 
ATOM     17  C   UNL d   1      13.672  15.781  -3.831  0.00  0.00     0.021 A 
ENDBRANCH   9  11
ENDBRANCH   7   8
ENDBRANCH   6   7
ENDBRANCH   3   6
BRANCH   1  18
ATOM     18  N   UNL d   1      13.779  12.050  -2.526  0.00  0.00    -0.181 NA
ATOM     19  C   UNL d   1      14.290  12.218  -1.871  0.00  0.00     0.281 C 
ATOM     20  O   UNL d   1      14.746  12.903  -1.885  0.00  0.00    -0.265 OA
BRANCH  19  21
ATOM     21  C   UNL d   1      14.408  11.779  -1.183  0.00  0.00     0.063 C 
BRANCH  21  22
ATOM     22  C   UNL d   1      14.179  12.163  -0.401  0.00  0.00     0.005 C 
ATOM     23  C   UNL d   1      13.443  11.930  -0.079  0.00  0.00     0.000 C 
ATOM     24  C   UNL d   1      14.515  12.624  -0.020  0.00  0.00     0.000 C 
ENDBRANCH  21  22
ENDBRANCH  19  21
ENDBRANCH   1  18
TORSDOF 7
ENDMDL
MODEL 4
REMARK VINA RESULT:      41.3      2.888      3.421
REMARK  7 active torsions:
REMARK  status: ('A' for Active; 'I' for Inactive)
REMARK    1  A    between atoms: N_6  and  C_1 
REMARK    2  A    between atoms: S_9  and  C_3 
REMARK       I    between atoms: C_7  and  N_6 
REMARK    3  A    between atoms: C_14  and  C_7 
REMARK    4  A    between atoms: C_8  and  C_13 
REMARK       I    between atoms: N_10  and  C_8 
REMARK    5  A    between atoms: C_13  and  S_9 
REMARK    6  A    between atoms: C_15  and  N_10 
REMARK    7  A    between atoms: C_22  and  C_14 
ROOT
ATOM      1  C   UNL d   1      14.963  15.831  -1.225  0.00  0.00     0.219 A 
ATOM      2  S   UNL d   1      14.633  15.098  -1.070  0.00  0.00    -0.019 SA
ATOM      3  C   UNL d   1      14.863  14.870  -0.354  0.00  0.00     0.165 A 
ATOM      4  N   UNL d   1      15.409  16.031  -0.553  0.00  0.00    -0.120 NA
ATOM      5  N   UNL d   1      15.349  15.454  -0.029  0.00  0.00    -0.133 NA
ENDROOT
BRANCH   3   6
ATOM      6  S   UNL d   1      14.605  14.127  -0.044  0.00  0.00    -0.054 SA
BRANCH   6   7
ATOM      7  C   UNL d   1      14.571  13.464  -0.536  0.00  0.00     0.100 C 
BRANCH   7   8
ATOM      8  C   UNL d   1      15.198  12.929  -0.564  0.00  0.00     0.286 C 
ATOM      9  N   UNL d   1      15.206  12.338  -1.110  0.00  0.00    -0.208 NA
ATOM     10  O   UNL d   1      15.841  13.001  -0.016  0.00  0.00    -0.265 OA
BRANCH   9  11
ATOM     11  C   UNL d   1      14.556  12.270  -1.660  0.00  0.00     0.085 A 
ATOM     12  C   UNL d   1      14.638  12.643  -2.383  0.00  0.00     0.021 A 
ATOM     13  C   UNL d   1      14.017  12.585  -2.923  0.00  0.00     0.031 A 
ATOM     14  C   UNL d   1      13.342  12.172  -2.753  0.00  0.00     0.140 A 
ATOM     15  C   UNL d   1      13.263  11.790  -2.007  0.00  0.00     0.031 A 
ATOM     16  F   UNL d   1      12.776  12.122  -3.251  0.00  0.00    -0.204 F 
ATOM     17  C   UNL d   1      13.881  11.842  -1.457  0.00  0.00     0.021 A 
ENDBRANCH   9  11
ENDBRANCH   7   8
ENDBRANCH   6   7
ENDBRANCH   3   6
BRANCH   1  18
ATOM     18  N   UNL d   1      14.892  16.312  -1.903  0.00  0.00    -0.181 NA
ATOM     19  C   UNL d   1      15.181  16.474  -2.683  0.00  0.00     0.281 C 
ATOM     20  O   UNL d   1      15.790  16.012  -2.987  0.00  0.00    -0.265 OA
BRANCH  19  21
ATOM     21  C   UNL d   1      14.933  17.054  -3.215  0.00  0.00     0.063 C 
BRANCH  21  22
ATOM     22  C   UNL d   1      14.777  16.798  -4.064  0.00  0.00     0.005 C 
ATOM     23  C   UNL d   1      14.750  17.411  -4.633  0.00  0.00     0.000 C 
ATOM     24  C   UNL d   1      14.675  16.172  -4.326  0.00  0.00     0.000 C 
ENDBRANCH  21  22
ENDBRANCH  19  21
ENDBRANCH   1  18
TORSDOF 7
ENDMDL
MODEL 5
REMARK VINA RESULT:      42.0      2.708      4.103
REMARK  7 active torsions:
REMARK  status: ('A' for Active; 'I' for Inactive)
REMARK    1  A    between atoms: N_6  and  C_1 
REMARK    2  A    between atoms: S_9  and  C_3 
REMARK       I    between atoms: C_7  and  N_6 
REMARK    3  A    between atoms: C_14  and  C_7 
REMARK    4  A    between atoms: C_8  and  C_13 
REMARK       I    between atoms: N_10  and  C_8 
REMARK    5  A    between atoms: C_13  and  S_9 
REMARK    6  A    between atoms: C_15  and  N_10 
REMARK    7  A    between atoms: C_22  and  C_14 
ROOT
ATOM      1  C   UNL d   1      13.921  14.405  -3.568  0.00  0.00     0.219 A 
ATOM      2  S   UNL d   1      14.059  14.584  -2.781  0.00  0.00    -0.019 SA
ATOM      3  C   UNL d   1      14.327  15.322  -2.738  0.00  0.00     0.165 A 
ATOM      4  N   UNL d   1      14.124  15.086  -3.999  0.00  0.00    -0.120 NA
ATOM      5  N   UNL d   1      14.368  15.637  -3.501  0.00  0.00    -0.133 NA
ENDROOT
BRANCH   3   6
ATOM      6  S   UNL d   1      14.518  15.659  -1.987  0.00  0.00    -0.054 SA
BRANCH   6   7
ATOM      7  C   UNL d   1      14.752  15.171  -1.363  0.00  0.00     0.100 C 
BRANCH   7   8
ATOM      8  C   UNL d   1      15.156  15.483  -0.715  0.00  0.00     0.286 C 
ATOM      9  N   UNL d   1      15.327  15.020  -0.080  0.00  0.00    -0.208 NA
ATOM     10  O   UNL d   1      15.395  16.297  -0.717  0.00  0.00    -0.265 OA
BRANCH   9  11
ATOM     11  C   UNL d   1      15.084  14.201  -0.083  0.00  0.00     0.085 A 
ATOM     12  C   UNL d   1      14.284  14.048  -0.014  0.00  0.00     0.021 A 
ATOM     13  C   UNL d   1      14.037  13.261  -0.016  0.00  0.00     0.031 A 
ATOM     14  C   UNL d   1      14.564  12.650  -0.084  0.00  0.00     0.140 A 
ATOM     15  C   UNL d   1      15.387  12.813  -0.155  0.00  0.00     0.031 A 
ATOM     16  F   UNL d   1      14.333  11.930  -0.086  0.00  0.00    -0.204 F 
ATOM     17  C   UNL d   1      15.646  13.600  -0.154  0.00  0.00     0.021 A 
ENDBRANCH   9  11
ENDBRANCH   7   8
ENDBRANCH   6   7
ENDBRANCH   3   6
BRANCH   1  18
ATOM     18  N   UNL d   1      13.637  13.699  -3.909  0.00  0.00    -0.181 NA
ATOM     19  C   UNL d   1      13.172  13.000  -3.794  0.00  0.00     0.281 C 
ATOM     20  O   UNL d   1      12.806  12.879  -3.067  0.00  0.00    -0.265 OA
BRANCH  19  21
ATOM     21  C   UNL d   1      13.021  12.388  -4.326  0.00  0.00     0.063 C 
BRANCH  21  22
ATOM     22  C   UNL d   1      13.322  12.486  -5.169  0.00  0.00     0.005 C 
ATOM     23  C   UNL d   1      13.587  11.789  -5.548  0.00  0.00     0.000 C 
ATOM     24  C   UNL d   1      13.370  13.049  -5.558  0.00  0.00     0.000 C 
ENDBRANCH  21  22
ENDBRANCH  19  21
ENDBRANCH   1  18
TORSDOF 7
ENDMDL
