MODEL 1
REMARK VINA RESULT:      -0.0      0.000      0.000
REMARK  4 active torsions:
REMARK  status: ('A' for Active; 'I' for Inactive)
REMARK    1  A    between atoms: C_13  and  C_2 
REMARK       I    between atoms: N_7  and  C_8 
REMARK    2  A    between atoms: C_8  and  C_15 
REMARK    3  A    between atoms: S_14  and  C_10 
REMARK    4  A    between atoms: C_15  and  S_14 
ROOT
ATOM      1  N   UNL d   1     -41.523-121.773 -52.656  0.00  0.00    -0.191 N 
ATOM      2  C   UNL d   1     -41.553-121.736 -53.475  0.00  0.00     0.187 A 
ATOM      3  N   UNL d   1     -41.361-120.970 -53.697  0.00  0.00    -0.127 NA
ATOM      4  C   UNL d   1     -41.315-121.039 -52.360  0.00  0.00     0.187 A 
ATOM      5  N   UNL d   1     -41.665-122.406 -52.124  0.00  0.00    -0.156 NA
ATOM      6  N   UNL d   1     -41.212-120.532 -53.013  0.00  0.00    -0.127 NA
ATOM      7  C   UNL d   1     -41.594-122.286 -51.310  0.00  0.00     0.131 A 
ATOM      8  C   UNL d   1     -41.243-120.919 -51.547  0.00  0.00     0.043 A 
ATOM      9  C   UNL d   1     -41.383-121.542 -51.022  0.00  0.00     0.031 A 
ENDROOT
BRANCH   7  10
ATOM     10  S   UNL d   1     -41.733-122.909 -50.786  0.00  0.00    -0.061 SA
BRANCH  10  11
ATOM     11  C   UNL d   1     -42.073-122.758 -50.051  0.00  0.00     0.098 C 
BRANCH  11  12
ATOM     12  C   UNL d   1     -42.792-123.086 -49.864  0.00  0.00     0.271 C 
ATOM     13  N   UNL d   1     -42.964-123.278 -49.082  0.00  0.00    -0.273 N 
ATOM     14  C   UNL d   1     -42.410-123.137 -48.497  0.00  0.00     0.067 A 
ATOM     15  C   UNL d   1     -43.694-123.610 -48.900  0.00  0.00     0.083 A 
ATOM     16  C   UNL d   1     -42.585-123.328 -47.724  0.00  0.00     0.016 A 
ATOM     17  C   UNL d   1     -41.683-122.805 -48.688  0.00  0.00     0.018 A 
ATOM     18  C   UNL d   1     -42.032-123.190 -47.125  0.00  0.00     0.001 A 
ATOM     19  C   UNL d   1     -43.306-123.660 -47.522  0.00  0.00     0.003 A 
ATOM     20  C   UNL d   1     -41.298-122.856 -47.307  0.00  0.00     0.000 A 
ATOM     21  C   UNL d   1     -41.123-122.662 -48.097  0.00  0.00     0.002 A 
ATOM     22  C   UNL d   1     -43.861-123.798 -48.125  0.00  0.00     0.019 A 
ATOM     23  O   UNL d   1     -43.352-123.229 -50.455  0.00  0.00    -0.266 OA
ENDBRANCH  11  12
ENDBRANCH  10  11
ENDBRANCH   7  10
BRANCH   2  24
ATOM     24  C   UNL d   1     -41.740-122.347 -53.986  0.00  0.00     0.038 A 
ATOM     25  C   UNL d   1     -41.250-123.001 -54.049  0.00  0.00     0.003 A 
ATOM     26  C   UNL d   1     -41.436-123.619 -54.565  0.00  0.00     0.000 A 
ATOM     27  C   UNL d   1     -42.126-123.573 -55.020  0.00  0.00     0.000 A 
ATOM     28  C   UNL d   1     -42.623-122.917 -54.960  0.00  0.00     0.000 A 
ATOM     29  C   UNL d   1     -42.430-122.301 -54.441  0.00  0.00     0.003 A 
ENDBRANCH   2  24
TORSDOF 4
ENDMDL
MODEL 2
REMARK VINA RESULT:       1.4      1.303      5.439
REMARK  4 active torsions:
REMARK  status: ('A' for Active; 'I' for Inactive)
REMARK    1  A    between atoms: C_13  and  C_2 
REMARK       I    between atoms: N_7  and  C_8 
REMARK    2  A    between atoms: C_8  and  C_15 
REMARK    3  A    between atoms: S_14  and  C_10 
REMARK    4  A    between atoms: C_15  and  S_14 
ROOT
ATOM      1  N   UNL d   1     -42.837-122.624 -49.805  0.00  0.00    -0.191 N 
ATOM      2  C   UNL d   1     -42.933-122.787 -49.008  0.00  0.00     0.187 A 
ATOM      3  N   UNL d   1     -43.727-122.690 -48.827  0.00  0.00    -0.127 NA
ATOM      4  C   UNL d   1     -43.562-122.424 -50.129  0.00  0.00     0.187 A 
ATOM      5  N   UNL d   1     -42.157-122.632 -50.296  0.00  0.00    -0.156 NA
ATOM      6  N   UNL d   1     -44.124-122.464 -49.515  0.00  0.00    -0.127 NA
ATOM      7  C   UNL d   1     -42.221-122.440 -51.096  0.00  0.00     0.131 A 
ATOM      8  C   UNL d   1     -43.627-122.232 -50.929  0.00  0.00     0.043 A 
ATOM      9  C   UNL d   1     -42.957-122.239 -51.412  0.00  0.00     0.031 A 
ENDROOT
BRANCH   7  10
ATOM     10  S   UNL d   1     -41.551-122.447 -51.580  0.00  0.00    -0.061 SA
BRANCH  10  11
ATOM     11  C   UNL d   1     -41.636-122.473 -52.398  0.00  0.00     0.098 C 
BRANCH  11  12
ATOM     12  C   UNL d   1     -41.402-123.134 -52.808  0.00  0.00     0.271 C 
ATOM     13  N   UNL d   1     -41.441-123.141 -53.630  0.00  0.00    -0.273 N 
ATOM     14  C   UNL d   1     -41.715-122.482 -54.031  0.00  0.00     0.067 A 
ATOM     15  C   UNL d   1     -41.203-123.814 -54.038  0.00  0.00     0.083 A 
ATOM     16  C   UNL d   1     -41.752-122.495 -54.845  0.00  0.00     0.016 A 
ATOM     17  C   UNL d   1     -41.951-121.815 -53.614  0.00  0.00     0.018 A 
ATOM     18  C   UNL d   1     -42.027-121.834 -55.260  0.00  0.00     0.001 A 
ATOM     19  C   UNL d   1     -41.519-123.154 -55.270  0.00  0.00     0.003 A 
ATOM     20  C   UNL d   1     -42.267-121.158 -54.851  0.00  0.00     0.000 A 
ATOM     21  C   UNL d   1     -42.228-121.149 -54.019  0.00  0.00     0.002 A 
ATOM     22  C   UNL d   1     -41.242-123.817 -54.852  0.00  0.00     0.019 A 
ATOM     23  O   UNL d   1     -41.126-123.799 -52.403  0.00  0.00    -0.266 OA
ENDBRANCH  11  12
ENDBRANCH  10  11
ENDBRANCH   7  10
BRANCH   2  24
ATOM     24  C   UNL d   1     -42.348-123.009 -48.480  0.00  0.00     0.038 A 
ATOM     25  C   UNL d   1     -41.742-123.506 -48.717  0.00  0.00     0.003 A 
ATOM     26  C   UNL d   1     -41.149-123.732 -48.185  0.00  0.00     0.000 A 
ATOM     27  C   UNL d   1     -41.175-123.449 -47.408  0.00  0.00     0.000 A 
ATOM     28  C   UNL d   1     -41.783-122.948 -47.164  0.00  0.00     0.000 A 
ATOM     29  C   UNL d   1     -42.373-122.726 -47.702  0.00  0.00     0.003 A 
ENDBRANCH   2  24
TORSDOF 4
ENDMDL
