MODEL 1
REMARK VINA RESULT:      -5.4      0.000      0.000
REMARK  3 active torsions:
REMARK  status: ('A' for Active; 'I' for Inactive)
REMARK    1  A    between atoms: C_7  and  C_3 
REMARK       I    between atoms: N_10  and  C_7 
REMARK    2  A    between atoms: C_16  and  N_10 
REMARK    3  A    between atoms: C_15  and  C_16 
ROOT
ATOM      1  C   UNL d   1     -41.667-122.606 -53.592  0.00  0.00     0.063 A 
ATOM      2  C   UNL d   1     -41.471-122.764 -52.801  0.00  0.00     0.033 A 
ATOM      3  C   UNL d   1     -41.701-122.108 -52.348  0.00  0.00     0.158 A 
ATOM      4  C   UNL d   1     -42.015-121.859 -53.627  0.00  0.00     0.099 A 
ATOM      5  O   UNL d   1     -42.036-121.552 -52.858  0.00  0.00    -0.302 OA
ATOM      6  C   UNL d   1     -41.566-123.061 -54.278  0.00  0.00     0.194 A 
ATOM      7  C   UNL d   1     -42.264-121.563 -54.348  0.00  0.00     0.002 A 
ATOM      8  C   UNL d   1     -42.174-121.995 -55.037  0.00  0.00     0.042 A 
ATOM      9  C   UNL d   1     -41.824-122.746 -55.001  0.00  0.00     0.019 A 
ATOM     10  O   UNL d   1     -41.214-123.816 -54.242  0.00  0.00    -0.287 OA
ATOM     11  C   UNL d   1     -41.123-123.372 -52.363  0.00  0.00     0.002 C 
ATOM     12  C   UNL d   1     -42.265-122.076 -55.857  0.00  0.00     0.009 C 
ATOM     13  C   UNL d   1     -42.533-121.297 -55.284  0.00  0.00     0.009 C 
ENDROOT
BRANCH   3  14
ATOM     14  C   UNL d   1     -41.611-122.024 -51.532  0.00  0.00     0.302 C 
ATOM     15  N   UNL d   1     -41.999-122.545 -51.014  0.00  0.00    -0.205 NA
ATOM     16  O   UNL d   1     -41.134-121.417 -51.226  0.00  0.00    -0.263 OA
BRANCH  15  17
ATOM     17  C   UNL d   1     -41.912-122.463 -50.198  0.00  0.00     0.104 C 
BRANCH  17  18
ATOM     18  C   UNL d   1     -42.377-122.912 -49.687  0.00  0.00     0.038 A 
ATOM     19  C   UNL d   1     -43.200-122.897 -49.763  0.00  0.00     0.101 A 
ATOM     20  N   UNL d   1     -43.657-123.345 -49.253  0.00  0.00    -0.242 NA
ATOM     21  C   UNL d   1     -43.313-123.805 -48.671  0.00  0.00     0.099 A 
ATOM     22  C   UNL d   1     -42.487-123.817 -48.597  0.00  0.00     0.021 A 
ATOM     23  C   UNL d   1     -42.021-123.369 -49.108  0.00  0.00     0.005 A 
ENDBRANCH  17  18
ENDBRANCH  15  17
ENDBRANCH   3  14
TORSDOF 3
ENDMDL
