MODEL 1
REMARK VINA RESULT:      49.6      0.000      0.000
REMARK  8 active torsions:
REMARK  status: ('A' for Active; 'I' for Inactive)
REMARK    1  A    between atoms: N_3  and  C_1 
REMARK       I    between atoms: C_8  and  N_3 
REMARK    2  A    between atoms: O_12  and  C_4 
REMARK    3  A    between atoms: S_20  and  C_5 
REMARK    4  A    between atoms: C_13  and  C_8 
REMARK    5  A    between atoms: C_9  and  O_12 
REMARK    6  A    between atoms: C_14  and  C_9 
REMARK    7  A    between atoms: C_16  and  C_28 
REMARK    8  A    between atoms: C_28  and  S_20 
ROOT
ATOM      1  C   UNL d   1      13.299  12.759  -3.547  0.00  0.00     0.167 A 
ATOM      2  C   UNL d   1      13.047  12.556  -4.302  0.00  0.00     0.222 A 
ATOM      3  C   UNL d   1      12.953  13.163  -4.859  0.00  0.00     0.069 A 
ATOM      4  C   UNL d   1      13.454  13.543  -3.346  0.00  0.00     0.151 A 
ATOM      5  C   UNL d   1      13.108  13.947  -4.659  0.00  0.00     0.110 A 
ATOM      6  O   UNL d   1      13.359  14.132  -3.899  0.00  0.00    -0.302 OA
ATOM      7  O   UNL d   1      12.893  11.779  -4.501  0.00  0.00    -0.284 OA
ENDROOT
BRANCH   5   8
ATOM      8  C   UNL d   1      13.012  14.542  -5.218  0.00  0.00     0.062 C 
BRANCH   8   9
ATOM      9  S   UNL d   1      13.581  15.136  -5.283  0.00  0.00    -0.057 SA
BRANCH   9  10
ATOM     10  C   UNL d   1      13.783  16.051  -5.408  0.00  0.00     0.166 A 
ATOM     11  S   UNL d   1      14.044  16.741  -5.043  0.00  0.00    -0.006 SA
ATOM     12  C   UNL d   1      14.062  17.343  -5.609  0.00  0.00     0.269 A 
ATOM     13  N   UNL d   1      13.810  17.018  -6.328  0.00  0.00    -0.107 NA
ATOM     14  N   UNL d   1      13.638  16.221  -6.204  0.00  0.00    -0.132 NA
BRANCH  12  15
ATOM     15  N   UNL d   1      14.234  18.139  -5.733  0.00  0.00    -0.337 NA
ATOM     16  C   UNL d   1      14.406  18.936  -5.857  0.00  0.00     0.330 C 
ATOM     17  O   UNL d   1      15.073  18.716  -6.289  0.00  0.00    -0.251 OA
BRANCH  16  18
ATOM     18  C   UNL d   1      14.057  19.653  -5.639  0.00  0.00     0.070 A 
ATOM     19  C   UNL d   1      14.132  20.451  -5.445  0.00  0.00     0.006 A 
ATOM     20  C   UNL d   1      13.374  20.091  -5.456  0.00  0.00     0.006 A 
ENDBRANCH  16  18
ENDBRANCH  12  15
ENDBRANCH   9  10
ENDBRANCH   8   9
ENDBRANCH   5   8
BRANCH   1  21
ATOM     21  O   UNL d   1      13.397  12.161  -2.980  0.00  0.00    -0.268 OA
BRANCH  21  22
ATOM     22  C   UNL d   1      14.124  12.075  -2.594  0.00  0.00     0.300 C 
ATOM     23  O   UNL d   1      14.826  12.054  -3.035  0.00  0.00    -0.259 OA
BRANCH  22  24
ATOM     24  C   UNL d   1      14.145  12.009  -1.757  0.00  0.00     0.064 A 
ATOM     25  C   UNL d   1      14.872  12.027  -1.367  0.00  0.00     0.005 A 
ATOM     26  C   UNL d   1      14.902  11.962  -0.531  0.00  0.00     0.000 A 
ATOM     27  C   UNL d   1      15.633  11.980  -0.148  0.00  0.00     0.000 C 
ATOM     28  C   UNL d   1      14.193  11.879  -0.110  0.00  0.00     0.000 A 
ATOM     29  C   UNL d   1      13.456  11.861  -0.506  0.00  0.00     0.000 A 
ATOM     30  C   UNL d   1      13.446  11.926  -1.321  0.00  0.00     0.005 A 
ATOM     31  C   UNL d   1      12.770  11.779  -0.068  0.00  0.00     0.000 C 
ENDBRANCH  22  24
ENDBRANCH  21  22
ENDBRANCH   1  21
TORSDOF 8
ENDMDL
