MODEL 1
REMARK VINA RESULT:      69.1      0.000      0.000
REMARK  7 active torsions:
REMARK  status: ('A' for Active; 'I' for Inactive)
REMARK    1  A    between atoms: C_10  and  C_3 
REMARK    2  A    between atoms: N_11  and  C_4 
REMARK    3  A    between atoms: C_21  and  N_11 
REMARK    4  A    between atoms: O_20  and  C_23 
REMARK    5  A    between atoms: C_24  and  O_20 
REMARK    6  A    between atoms: C_23  and  C_21 
REMARK    7  A    between atoms: C_22  and  C_24 
ROOT
ATOM      1  C   UNL d   1      59.616  48.934  50.470  0.00  0.00     0.167 A 
ATOM      2  N   UNL d   1      60.369  48.849  50.084  0.00  0.00    -0.195 N 
ATOM      3  C   UNL d   1      59.021  49.356  50.113  0.00  0.00     0.057 A 
ATOM      4  C   UNL d   1      60.949  48.425  50.454  0.00  0.00     0.167 A 
ATOM      5  N   UNL d   1      59.884  49.622  48.993  0.00  0.00    -0.161 NA
ATOM      6  N   UNL d   1      59.491  48.591  51.200  0.00  0.00    -0.227 NA
ATOM      7  C   UNL d   1      60.834  48.075  51.191  0.00  0.00     0.058 A 
ATOM      8  C   UNL d   1      59.153  49.705  49.366  0.00  0.00     0.124 A 
ATOM      9  C   UNL d   1      60.091  48.159  51.571  0.00  0.00     0.086 A 
ATOM     10  C   UNL d   1      59.961  47.797  52.340  0.00  0.00     0.021 C 
ENDROOT
BRANCH   3  11
ATOM     11  C   UNL d   1      58.291  49.439  50.487  0.00  0.00     0.005 A 
ATOM     12  C   UNL d   1      57.609  49.465  50.042  0.00  0.00     0.001 A 
ATOM     13  C   UNL d   1      56.890  49.547  50.410  0.00  0.00     0.011 A 
ATOM     14  C   UNL d   1      56.842  49.603  51.228  0.00  0.00     0.058 A 
ATOM     15  C   UNL d   1      57.525  49.577  51.673  0.00  0.00     0.011 A 
ATOM     16 CL   UNL d   1      56.076  49.690  51.620  0.00  0.00    -0.082 Cl
ATOM     17  C   UNL d   1      58.255  49.494  51.299  0.00  0.00     0.001 A 
ENDBRANCH   3  11
BRANCH   4  18
ATOM     18  N   UNL d   1      61.712  48.337  50.067  0.00  0.00    -0.223 NA
BRANCH  18  19
ATOM     19  C   UNL d   1      62.341  47.878  49.718  0.00  0.00     0.127 C 
BRANCH  19  20
ATOM     20  C   UNL d   1      62.268  47.016  49.716  0.00  0.00     0.143 C 
BRANCH  20  21
ATOM     21  O   UNL d   1      62.630  46.551  49.092  0.00  0.00    -0.298 OA
BRANCH  21  22
ATOM     22  C   UNL d   1      62.271  45.812  48.828  0.00  0.00     0.168 C 
BRANCH  22  23
ATOM     23  C   UNL d   1      61.507  45.572  49.136  0.00  0.00     0.261 C 
ATOM     24  O   UNL d   1      61.449  44.900  49.672  0.00  0.00    -0.281 OA
ENDBRANCH  22  23
ENDBRANCH  21  22
ENDBRANCH  20  21
ENDBRANCH  19  20
ENDBRANCH  18  19
ENDBRANCH   4  18
TORSDOF 7
ENDMDL
