MODEL 1
REMARK VINA RESULT:       0.1      0.000      0.000
REMARK  7 active torsions:
REMARK  status: ('A' for Active; 'I' for Inactive)
REMARK    1  A    between atoms: N_2  and  S_1 
REMARK    2  A    between atoms: C_6  and  S_1 
REMARK    3  A    between atoms: C_11  and  C_3 
REMARK    4  A    between atoms: C_4  and  C_5 
REMARK       I    between atoms: N_7  and  C_4 
REMARK       I    between atoms: C_5  and  N_10 
REMARK    5  A    between atoms: C_19  and  N_7 
REMARK    6  A    between atoms: N_10  and  C_11 
REMARK    7  A    between atoms: O_23  and  C_18 
ROOT
ATOM      1  N   UNL d   1      56.830   0.652  34.054  0.00  0.00    -0.209 N 
ATOM      2  C   UNL d   1      57.229   0.667  33.330  0.00  0.00     0.197 A 
ATOM      3  O   UNL d   1      58.047   0.669  33.301  0.00  0.00    -0.287 OA
ATOM      4  C   UNL d   1      57.267   0.639  34.760  0.00  0.00     0.096 A 
ATOM      5  C   UNL d   1      58.086   0.641  34.732  0.00  0.00     0.047 A 
ATOM      6  C   UNL d   1      58.477   0.656  34.009  0.00  0.00     0.126 A 
ENDROOT
BRANCH   2   7
ATOM      7  C   UNL d   1      56.792   0.680  32.621  0.00  0.00     0.146 C 
BRANCH   7   8
ATOM      8  N   UNL d   1      57.183   0.664  31.895  0.00  0.00    -0.199 NA
ATOM      9  C   UNL d   1      57.116   0.010  31.409  0.00  0.00     0.337 C 
ATOM     10  O   UNL d   1      56.656  -0.639  31.640  0.00  0.00    -0.260 OA
BRANCH   9  11
ATOM     11  C   UNL d   1      57.507  -0.006  30.683  0.00  0.00     0.337 C 
ATOM     12  N   UNL d   1      58.300  -0.219  30.645  0.00  0.00    -0.204 NA
ATOM     13  O   UNL d   1      57.101   0.194  29.990  0.00  0.00    -0.260 OA
BRANCH  12  14
ATOM     14  C   UNL d   1      58.693  -0.235  29.917  0.00  0.00     0.085 A 
ATOM     15  C   UNL d   1      59.121  -0.921  29.800  0.00  0.00     0.019 A 
ATOM     16  C   UNL d   1      59.478  -0.856  29.057  0.00  0.00     0.002 A 
ATOM     17  C   UNL d   1      59.268  -0.136  28.725  0.00  0.00     0.002 A 
ATOM     18  C   UNL d   1      58.771   0.257  29.269  0.00  0.00     0.019 A 
ENDBRANCH  12  14
ENDBRANCH   9  11
ENDBRANCH   7   8
ENDBRANCH   2   7
BRANCH   1  19
ATOM     19  S   UNL d   1      56.006   0.650  34.071  0.00  0.00     0.273 S 
ATOM     20  O   UNL d   1      56.029   0.619  34.900  0.00  0.00    -0.200 OA
ATOM     21  O   UNL d   1      55.985   0.681  33.245  0.00  0.00    -0.200 OA
BRANCH  19  22
ATOM     22  C   UNL d   1      55.182   0.648  34.097  0.00  0.00     0.104 A 
ATOM     23  C   UNL d   1      54.797   0.656  34.825  0.00  0.00     0.015 A 
ATOM     24  C   UNL d   1      53.970   0.654  34.852  0.00  0.00     0.025 A 
ATOM     25  C   UNL d   1      53.534   0.643  34.159  0.00  0.00     0.094 A 
ATOM     26  C   UNL d   1      53.912   0.635  33.420  0.00  0.00     0.025 A 
ATOM     27  C   UNL d   1      54.741   0.637  33.390  0.00  0.00     0.015 A 
BRANCH  25  28
ATOM     28  O   UNL d   1      52.705   0.641  34.188  0.00  0.00    -0.328 OA
ATOM     29  C   UNL d   1      52.316   0.479  34.897  0.00  0.00     0.181 C 
ENDBRANCH  25  28
ENDBRANCH  19  22
ENDBRANCH   1  19
TORSDOF 7
ENDMDL
