MODEL 1
REMARK VINA RESULT:       0.4      0.000      0.000
REMARK  0 active torsions:
REMARK  status: ('A' for Active; 'I' for Inactive)
ROOT
ATOM      1  N   UNL d   1      46.583 -18.602  42.108  0.00  0.00    -0.202 NA
ATOM      2  N   UNL d   1      46.634 -20.244  42.087  0.00  0.00    -0.202 NA
ATOM      3  C   UNL d   1      46.625 -19.828  41.378  0.00  0.00     0.337 A 
ATOM      4  C   UNL d   1      46.599 -19.001  41.386  0.00  0.00     0.337 A 
ATOM      5  C   UNL d   1      46.618 -19.842  42.800  0.00  0.00     0.102 A 
ATOM      6  C   UNL d   1      46.592 -19.027  42.808  0.00  0.00     0.102 A 
ATOM      7  C   UNL d   1      46.576 -18.615  43.525  0.00  0.00     0.021 A 
ATOM      8  C   UNL d   1      46.628 -20.271  43.509  0.00  0.00     0.021 A 
ATOM      9  C   UNL d   1      46.611 -19.856  44.229  0.00  0.00     0.002 A 
ATOM     10  C   UNL d   1      46.585 -19.034  44.237  0.00  0.00     0.002 A 
ATOM     11  O   UNL d   1      46.641 -20.230  40.662  0.00  0.00    -0.260 OA
ATOM     12  O   UNL d   1      46.589 -18.581  40.677  0.00  0.00    -0.260 OA
ATOM     13  C   UNL d   1      46.569 -18.629  44.955  0.00  0.00     0.000 C 
ATOM     14  C   UNL d   1      46.620 -20.275  44.932  0.00  0.00     0.000 C 
ENDROOT
TORSDOF 0
ENDMDL
