MODEL 1
REMARK VINA RESULT:      -7.8      0.000      0.000
REMARK  5 active torsions:
REMARK  status: ('A' for Active; 'I' for Inactive)
REMARK       I    between atoms: C_2  and  N_1 
REMARK    1  A    between atoms: C_5  and  N_1 
REMARK    2  A    between atoms: C_6  and  N_1 
REMARK    3  A    between atoms: C_4  and  C_2 
REMARK    4  A    between atoms: N_3  and  C_5 
REMARK    5  A    between atoms: O_16  and  C_11 
ROOT
ATOM      1  N   UNL d   1      53.085  33.293  53.760  0.00  0.00    -0.256 N 
ATOM      2  C   UNL d   1      52.569  33.942  53.754  0.00  0.00     0.270 C 
ATOM      3  O   UNL d   1      52.664  34.543  54.230  0.00  0.00    -0.266 OA
ENDROOT
BRANCH   1   4
ATOM      4  C   UNL d   1      52.968  32.658  53.245  0.00  0.00     0.172 C 
BRANCH   4   5
ATOM      5  N   UNL d   1      52.903  31.851  53.398  0.00  0.00    -0.257 N 
ATOM      6  C   UNL d   1      52.933  31.236  52.852  0.00  0.00     0.266 A 
ATOM      7  O   UNL d   1      53.036  31.322  52.032  0.00  0.00    -0.267 OA
ATOM      8  C   UNL d   1      52.843  30.515  53.256  0.00  0.00     0.063 A 
ATOM      9  C   UNL d   1      52.757  30.687  54.060  0.00  0.00     0.024 A 
ATOM     10  C   UNL d   1      52.792  31.506  54.158  0.00  0.00     0.085 A 
ENDBRANCH   4   5
ENDBRANCH   1   4
BRANCH   1  11
ATOM     11  C   UNL d   1      53.724  33.279  54.287  0.00  0.00     0.090 A 
ATOM     12  C   UNL d   1      54.496  33.370  54.001  0.00  0.00     0.110 A 
ATOM     13  C   UNL d   1      55.123  33.355  54.525  0.00  0.00     0.026 A 
ATOM     14  C   UNL d   1      54.992  33.252  55.326  0.00  0.00     0.002 A 
ATOM     15  C   UNL d   1      54.234  33.164  55.606  0.00  0.00     0.002 A 
ATOM     16  C   UNL d   1      53.591  33.175  55.099  0.00  0.00     0.020 A 
BRANCH  12  17
ATOM     17  O   UNL d   1      54.627  33.472  53.205  0.00  0.00    -0.327 OA
ATOM     18  C   UNL d   1      55.396  33.515  52.921  0.00  0.00     0.181 C 
ENDBRANCH  12  17
ENDBRANCH   1  11
BRANCH   2  19
ATOM     19  C   UNL d   1      51.939  33.944  53.227  0.00  0.00     0.111 A 
ATOM     20  C   UNL d   1      52.055  34.218  52.445  0.00  0.00     0.147 A 
ATOM     21  F   UNL d   1      52.790  34.482  52.206  0.00  0.00    -0.204 F 
ATOM     22  C   UNL d   1      51.411  34.213  51.930  0.00  0.00     0.030 A 
ATOM     23  C   UNL d   1      50.674  33.942  52.188  0.00  0.00     0.005 A 
ATOM     24  C   UNL d   1      50.572  33.674  52.961  0.00  0.00     0.030 A 
ATOM     25  C   UNL d   1      51.202  33.676  53.476  0.00  0.00     0.147 A 
ATOM     26  F   UNL d   1      51.105  33.408  54.252  0.00  0.00    -0.204 F 
ENDBRANCH   2  19
TORSDOF 5
ENDMDL
MODEL 2
REMARK VINA RESULT:      -7.6      1.315      3.437
REMARK  5 active torsions:
REMARK  status: ('A' for Active; 'I' for Inactive)
REMARK       I    between atoms: C_2  and  N_1 
REMARK    1  A    between atoms: C_5  and  N_1 
REMARK    2  A    between atoms: C_6  and  N_1 
REMARK    3  A    between atoms: C_4  and  C_2 
REMARK    4  A    between atoms: N_3  and  C_5 
REMARK    5  A    between atoms: O_16  and  C_11 
ROOT
ATOM      1  N   UNL d   1      52.887  32.492  53.332  0.00  0.00    -0.256 N 
ATOM      2  C   UNL d   1      52.768  31.822  52.859  0.00  0.00     0.270 C 
ATOM      3  O   UNL d   1      52.460  31.871  52.153  0.00  0.00    -0.266 OA
ENDROOT
BRANCH   1   4
ATOM      4  C   UNL d   1      53.218  32.422  54.086  0.00  0.00     0.172 C 
BRANCH   4   5
ATOM      5  N   UNL d   1      53.872  32.797  54.418  0.00  0.00    -0.257 N 
ATOM      6  C   UNL d   1      54.033  32.900  55.219  0.00  0.00     0.266 A 
ATOM      7  O   UNL d   1      53.556  32.640  55.846  0.00  0.00    -0.267 OA
ATOM      8  C   UNL d   1      54.754  33.309  55.295  0.00  0.00     0.063 A 
ATOM      9  C   UNL d   1      55.040  33.459  54.534  0.00  0.00     0.024 A 
ATOM     10  C   UNL d   1      54.505  33.148  53.988  0.00  0.00     0.085 A 
ENDBRANCH   4   5
ENDBRANCH   1   4
BRANCH   1  11
ATOM     11  C   UNL d   1      52.672  33.240  53.049  0.00  0.00     0.090 A 
ATOM     12  C   UNL d   1      51.937  33.564  53.255  0.00  0.00     0.110 A 
ATOM     13  C   UNL d   1      51.731  34.303  52.973  0.00  0.00     0.026 A 
ATOM     14  C   UNL d   1      52.243  34.721  52.491  0.00  0.00     0.002 A 
ATOM     15  C   UNL d   1      52.962  34.402  52.289  0.00  0.00     0.002 A 
ATOM     16  C   UNL d   1      53.191  33.665  52.560  0.00  0.00     0.020 A 
BRANCH  12  17
ATOM     17  O   UNL d   1      51.429  33.148  53.735  0.00  0.00    -0.327 OA
ATOM     18  C   UNL d   1      50.677  33.442  53.882  0.00  0.00     0.181 C 
ENDBRANCH  12  17
ENDBRANCH   1  11
BRANCH   2  19
ATOM     19  C   UNL d   1      52.986  31.086  53.151  0.00  0.00     0.111 A 
ATOM     20  C   UNL d   1      53.758  30.795  53.007  0.00  0.00     0.147 A 
ATOM     21  F   UNL d   1      54.292  31.241  52.579  0.00  0.00    -0.204 F 
ATOM     22  C   UNL d   1      53.958  30.054  53.308  0.00  0.00     0.030 A 
ATOM     23  C   UNL d   1      53.406  29.617  53.739  0.00  0.00     0.005 A 
ATOM     24  C   UNL d   1      52.648  29.913  53.875  0.00  0.00     0.030 A 
ATOM     25  C   UNL d   1      52.442  30.644  53.581  0.00  0.00     0.147 A 
ATOM     26  F   UNL d   1      51.684  30.946  53.714  0.00  0.00    -0.204 F 
ENDBRANCH   2  19
TORSDOF 5
ENDMDL
MODEL 3
REMARK VINA RESULT:      -6.5      0.986      2.480
REMARK  5 active torsions:
REMARK  status: ('A' for Active; 'I' for Inactive)
REMARK       I    between atoms: C_2  and  N_1 
REMARK    1  A    between atoms: C_5  and  N_1 
REMARK    2  A    between atoms: C_6  and  N_1 
REMARK    3  A    between atoms: C_4  and  C_2 
REMARK    4  A    between atoms: N_3  and  C_5 
REMARK    5  A    between atoms: O_16  and  C_11 
ROOT
ATOM      1  N   UNL d   1      52.875  32.060  53.537  0.00  0.00    -0.256 N 
ATOM      2  C   UNL d   1      52.099  32.316  53.405  0.00  0.00     0.270 C 
ATOM      3  O   UNL d   1      51.492  31.848  53.506  0.00  0.00    -0.266 OA
ENDROOT
BRANCH   1   4
ATOM      4  C   UNL d   1      53.512  32.574  53.424  0.00  0.00     0.172 C 
BRANCH   4   5
ATOM      5  N   UNL d   1      54.086  32.838  53.953  0.00  0.00    -0.257 N 
ATOM      6  C   UNL d   1      54.862  33.051  53.781  0.00  0.00     0.266 A 
ATOM      7  O   UNL d   1      55.212  33.037  53.028  0.00  0.00    -0.267 OA
ATOM      8  C   UNL d   1      55.238  33.282  54.486  0.00  0.00     0.063 A 
ATOM      9  C   UNL d   1      54.689  33.211  55.099  0.00  0.00     0.024 A 
ATOM     10  C   UNL d   1      53.977  32.939  54.781  0.00  0.00     0.085 A 
ENDBRANCH   4   5
ENDBRANCH   1   4
BRANCH   1  11
ATOM     11  C   UNL d   1      53.017  31.283  53.786  0.00  0.00     0.090 A 
ATOM     12  C   UNL d   1      53.166  30.691  53.226  0.00  0.00     0.110 A 
ATOM     13  C   UNL d   1      53.305  29.926  53.477  0.00  0.00     0.026 A 
ATOM     14  C   UNL d   1      53.299  29.743  54.275  0.00  0.00     0.002 A 
ATOM     15  C   UNL d   1      53.153  30.325  54.823  0.00  0.00     0.002 A 
ATOM     16  C   UNL d   1      53.011  31.098  54.595  0.00  0.00     0.020 A 
BRANCH  12  17
ATOM     17  O   UNL d   1      53.172  30.873  52.433  0.00  0.00    -0.327 OA
ATOM     18  C   UNL d   1      53.295  30.278  51.880  0.00  0.00     0.181 C 
ENDBRANCH  12  17
ENDBRANCH   1  11
BRANCH   2  19
ATOM     19  C   UNL d   1      51.971  33.089  53.158  0.00  0.00     0.111 A 
ATOM     20  C   UNL d   1      52.094  33.293  52.355  0.00  0.00     0.147 A 
ATOM     21  F   UNL d   1      52.339  32.726  51.819  0.00  0.00    -0.204 F 
ATOM     22  C   UNL d   1      51.961  34.073  52.126  0.00  0.00     0.030 A 
ATOM     23  C   UNL d   1      51.713  34.634  52.680  0.00  0.00     0.005 A 
ATOM     24  C   UNL d   1      51.595  34.421  53.469  0.00  0.00     0.030 A 
ATOM     25  C   UNL d   1      51.724  33.653  53.703  0.00  0.00     0.147 A 
ATOM     26  F   UNL d   1      51.608  33.434  54.492  0.00  0.00    -0.204 F 
ENDBRANCH   2  19
TORSDOF 5
ENDMDL
MODEL 4
REMARK VINA RESULT:      -6.4      1.337      3.622
REMARK  5 active torsions:
REMARK  status: ('A' for Active; 'I' for Inactive)
REMARK       I    between atoms: C_2  and  N_1 
REMARK    1  A    between atoms: C_5  and  N_1 
REMARK    2  A    between atoms: C_6  and  N_1 
REMARK    3  A    between atoms: C_4  and  C_2 
REMARK    4  A    between atoms: N_3  and  C_5 
REMARK    5  A    between atoms: O_16  and  C_11 
ROOT
ATOM      1  N   UNL d   1      53.442  31.899  53.722  0.00  0.00    -0.256 N 
ATOM      2  C   UNL d   1      54.235  32.010  53.934  0.00  0.00     0.270 C 
ATOM      3  O   UNL d   1      54.778  31.483  53.777  0.00  0.00    -0.266 OA
ENDROOT
BRANCH   1   4
ATOM      4  C   UNL d   1      52.875  32.473  53.899  0.00  0.00     0.172 C 
BRANCH   4   5
ATOM      5  N   UNL d   1      52.379  32.905  53.402  0.00  0.00    -0.257 N 
ATOM      6  C   UNL d   1      51.632  33.200  53.577  0.00  0.00     0.266 A 
ATOM      7  O   UNL d   1      51.236  33.114  54.302  0.00  0.00    -0.267 OA
ATOM      8  C   UNL d   1      51.338  33.599  52.909  0.00  0.00     0.063 A 
ATOM      9  C   UNL d   1      51.911  33.549  52.315  0.00  0.00     0.024 A 
ATOM     10  C   UNL d   1      52.555  33.124  52.608  0.00  0.00     0.085 A 
ENDBRANCH   4   5
ENDBRANCH   1   4
BRANCH   1  11
ATOM     11  C   UNL d   1      53.213  31.206  53.330  0.00  0.00     0.090 A 
ATOM     12  C   UNL d   1      52.986  30.540  53.767  0.00  0.00     0.110 A 
ATOM     13  C   UNL d   1      52.762  29.859  53.374  0.00  0.00     0.026 A 
ATOM     14  C   UNL d   1      52.759  29.833  52.556  0.00  0.00     0.002 A 
ATOM     15  C   UNL d   1      52.982  30.488  52.129  0.00  0.00     0.002 A 
ATOM     16  C   UNL d   1      53.211  31.180  52.500  0.00  0.00     0.020 A 
BRANCH  12  17
ATOM     17  O   UNL d   1      52.988  30.566  54.580  0.00  0.00    -0.327 OA
ATOM     18  C   UNL d   1      52.834  29.883  55.009  0.00  0.00     0.181 C 
ENDBRANCH  12  17
ENDBRANCH   1  11
BRANCH   2  19
ATOM     19  C   UNL d   1      54.449  32.701  54.323  0.00  0.00     0.111 A 
ATOM     20  C   UNL d   1      54.273  32.790  55.137  0.00  0.00     0.147 A 
ATOM     21  F   UNL d   1      53.890  32.193  55.543  0.00  0.00    -0.204 F 
ATOM     22  C   UNL d   1      54.495  33.490  55.511  0.00  0.00     0.030 A 
ATOM     23  C   UNL d   1      54.882  34.084  55.086  0.00  0.00     0.005 A 
ATOM     24  C   UNL d   1      55.051  33.986  54.284  0.00  0.00     0.030 A 
ATOM     25  C   UNL d   1      54.834  33.297  53.908  0.00  0.00     0.147 A 
ATOM     26  F   UNL d   1      55.001  33.194  53.105  0.00  0.00    -0.204 F 
ENDBRANCH   2  19
TORSDOF 5
ENDMDL
MODEL 5
REMARK VINA RESULT:      -6.4      0.915      2.889
REMARK  5 active torsions:
REMARK  status: ('A' for Active; 'I' for Inactive)
REMARK       I    between atoms: C_2  and  N_1 
REMARK    1  A    between atoms: C_5  and  N_1 
REMARK    2  A    between atoms: C_6  and  N_1 
REMARK    3  A    between atoms: C_4  and  C_2 
REMARK    4  A    between atoms: N_3  and  C_5 
REMARK    5  A    between atoms: O_16  and  C_11 
ROOT
ATOM      1  N   UNL d   1      52.512  33.406  53.557  0.00  0.00    -0.256 N 
ATOM      2  C   UNL d   1      52.878  33.887  54.123  0.00  0.00     0.270 C 
ATOM      3  O   UNL d   1      52.529  34.511  54.415  0.00  0.00    -0.266 OA
ENDROOT
BRANCH   1   4
ATOM      4  C   UNL d   1      52.900  32.742  53.255  0.00  0.00     0.172 C 
BRANCH   4   5
ATOM      5  N   UNL d   1      52.673  31.949  53.244  0.00  0.00    -0.257 N 
ATOM      6  C   UNL d   1      52.952  31.358  52.744  0.00  0.00     0.266 A 
ATOM      7  O   UNL d   1      53.523  31.457  52.150  0.00  0.00    -0.267 OA
ATOM      8  C   UNL d   1      52.566  30.646  52.932  0.00  0.00     0.063 A 
ATOM      9  C   UNL d   1      52.044  30.799  53.554  0.00  0.00     0.024 A 
ATOM     10  C   UNL d   1      52.102  31.598  53.753  0.00  0.00     0.085 A 
ENDBRANCH   4   5
ENDBRANCH   1   4
BRANCH   1  11
ATOM     11  C   UNL d   1      51.750  33.590  53.289  0.00  0.00     0.090 A 
ATOM     12  C   UNL d   1      51.650  33.984  52.567  0.00  0.00     0.110 A 
ATOM     13  C   UNL d   1      50.896  34.163  52.309  0.00  0.00     0.026 A 
ATOM     14  C   UNL d   1      50.243  33.956  52.756  0.00  0.00     0.002 A 
ATOM     15  C   UNL d   1      50.342  33.568  53.463  0.00  0.00     0.002 A 
ATOM     16  C   UNL d   1      51.088  33.379  53.742  0.00  0.00     0.020 A 
BRANCH  12  17
ATOM     17  O   UNL d   1      52.299  34.191  52.123  0.00  0.00    -0.327 OA
ATOM     18  C   UNL d   1      52.195  34.572  51.403  0.00  0.00     0.181 C 
ENDBRANCH  12  17
ENDBRANCH   1  11
BRANCH   2  19
ATOM     19  C   UNL d   1      53.634  33.694  54.380  0.00  0.00     0.111 A 
ATOM     20  C   UNL d   1      54.295  33.888  53.905  0.00  0.00     0.147 A 
ATOM     21  F   UNL d   1      54.190  34.268  53.189  0.00  0.00    -0.204 F 
ATOM     22  C   UNL d   1      55.046  33.687  54.179  0.00  0.00     0.030 A 
ATOM     23  C   UNL d   1      55.134  33.303  54.906  0.00  0.00     0.005 A 
ATOM     24  C   UNL d   1      54.475  33.116  55.365  0.00  0.00     0.030 A 
ATOM     25  C   UNL d   1      53.731  33.312  55.102  0.00  0.00     0.147 A 
ATOM     26  F   UNL d   1      53.067  33.127  55.559  0.00  0.00    -0.204 F 
ENDBRANCH   2  19
TORSDOF 5
ENDMDL
MODEL 6
REMARK VINA RESULT:      -6.3      1.217      2.782
REMARK  5 active torsions:
REMARK  status: ('A' for Active; 'I' for Inactive)
REMARK       I    between atoms: C_2  and  N_1 
REMARK    1  A    between atoms: C_5  and  N_1 
REMARK    2  A    between atoms: C_6  and  N_1 
REMARK    3  A    between atoms: C_4  and  C_2 
REMARK    4  A    between atoms: N_3  and  C_5 
REMARK    5  A    between atoms: O_16  and  C_11 
ROOT
ATOM      1  N   UNL d   1      52.840  33.448  53.406  0.00  0.00    -0.256 N 
ATOM      2  C   UNL d   1      52.327  33.229  52.793  0.00  0.00     0.270 C 
ATOM      3  O   UNL d   1      52.540  32.736  52.238  0.00  0.00    -0.266 OA
ENDROOT
BRANCH   1   4
ATOM      4  C   UNL d   1      52.595  33.977  53.991  0.00  0.00     0.172 C 
BRANCH   4   5
ATOM      5  N   UNL d   1      52.910  34.703  54.220  0.00  0.00    -0.257 N 
ATOM      6  C   UNL d   1      52.936  35.017  54.980  0.00  0.00     0.266 A 
ATOM      7  O   UNL d   1      52.643  34.651  55.665  0.00  0.00    -0.267 OA
ATOM      8  C   UNL d   1      53.304  35.763  54.948  0.00  0.00     0.063 A 
ATOM      9  C   UNL d   1      53.508  35.909  54.161  0.00  0.00     0.024 A 
ATOM     10  C   UNL d   1      53.269  35.263  53.705  0.00  0.00     0.085 A 
ENDBRANCH   4   5
ENDBRANCH   1   4
BRANCH   1  11
ATOM     11  C   UNL d   1      53.606  33.134  53.434  0.00  0.00     0.090 A 
ATOM     12  C   UNL d   1      53.766  32.479  53.916  0.00  0.00     0.110 A 
ATOM     13  C   UNL d   1      54.523  32.174  53.940  0.00  0.00     0.026 A 
ATOM     14  C   UNL d   1      55.121  32.509  53.493  0.00  0.00     0.002 A 
ATOM     15  C   UNL d   1      54.962  33.151  53.020  0.00  0.00     0.002 A 
ATOM     16  C   UNL d   1      54.212  33.474  52.980  0.00  0.00     0.020 A 
BRANCH  12  17
ATOM     17  O   UNL d   1      53.172  32.146  54.361  0.00  0.00    -0.327 OA
ATOM     18  C   UNL d   1      53.326  31.475  54.808  0.00  0.00     0.181 C 
ENDBRANCH  12  17
ENDBRANCH   1  11
BRANCH   2  19
ATOM     19  C   UNL d   1      51.570  33.548  52.776  0.00  0.00     0.111 A 
ATOM     20  C   UNL d   1      50.977  33.234  53.278  0.00  0.00     0.147 A 
ATOM     21  F   UNL d   1      51.151  32.614  53.781  0.00  0.00    -0.204 F 
ATOM     22  C   UNL d   1      50.224  33.566  53.247  0.00  0.00     0.030 A 
ATOM     23  C   UNL d   1      50.065  34.192  52.732  0.00  0.00     0.005 A 
ATOM     24  C   UNL d   1      50.657  34.493  52.242  0.00  0.00     0.030 A 
ATOM     25  C   UNL d   1      51.403  34.171  52.266  0.00  0.00     0.147 A 
ATOM     26  F   UNL d   1      52.000  34.469  51.777  0.00  0.00    -0.204 F 
ENDBRANCH   2  19
TORSDOF 5
ENDMDL
MODEL 7
REMARK VINA RESULT:      -6.3      1.349      2.845
REMARK  5 active torsions:
REMARK  status: ('A' for Active; 'I' for Inactive)
REMARK       I    between atoms: C_2  and  N_1 
REMARK    1  A    between atoms: C_5  and  N_1 
REMARK    2  A    between atoms: C_6  and  N_1 
REMARK    3  A    between atoms: C_4  and  C_2 
REMARK    4  A    between atoms: N_3  and  C_5 
REMARK    5  A    between atoms: O_16  and  C_11 
ROOT
ATOM      1  N   UNL d   1      53.641  32.163  53.908  0.00  0.00    -0.256 N 
ATOM      2  C   UNL d   1      53.726  31.357  54.081  0.00  0.00     0.270 C 
ATOM      3  O   UNL d   1      54.170  31.109  54.663  0.00  0.00    -0.266 OA
ENDROOT
BRANCH   1   4
ATOM      4  C   UNL d   1      53.162  32.411  53.282  0.00  0.00     0.172 C 
BRANCH   4   5
ATOM      5  N   UNL d   1      52.523  32.930  53.272  0.00  0.00    -0.257 N 
ATOM      6  C   UNL d   1      52.238  33.357  52.628  0.00  0.00     0.266 A 
ATOM      7  O   UNL d   1      52.551  33.339  51.859  0.00  0.00    -0.267 OA
ATOM      8  C   UNL d   1      51.585  33.809  52.876  0.00  0.00     0.063 A 
ATOM      9  C   UNL d   1      51.465  33.659  53.679  0.00  0.00     0.024 A 
ATOM     10  C   UNL d   1      52.037  33.120  53.933  0.00  0.00     0.085 A 
ENDBRANCH   4   5
ENDBRANCH   1   4
BRANCH   1  11
ATOM     11  C   UNL d   1      54.037  32.728  54.367  0.00  0.00     0.090 A 
ATOM     12  C   UNL d   1      54.725  33.086  54.076  0.00  0.00     0.110 A 
ATOM     13  C   UNL d   1      55.112  33.643  54.533  0.00  0.00     0.026 A 
ATOM     14  C   UNL d   1      54.825  33.846  55.271  0.00  0.00     0.002 A 
ATOM     15  C   UNL d   1      54.150  33.493  55.556  0.00  0.00     0.002 A 
ATOM     16  C   UNL d   1      53.746  32.934  55.116  0.00  0.00     0.020 A 
BRANCH  12  17
ATOM     17  O   UNL d   1      55.010  32.885  53.342  0.00  0.00    -0.327 OA
ATOM     18  C   UNL d   1      55.701  33.230  53.064  0.00  0.00     0.181 C 
ENDBRANCH  12  17
ENDBRANCH   1  11
BRANCH   2  19
ATOM     19  C   UNL d   1      53.328  30.808  53.619  0.00  0.00     0.111 A 
ATOM     20  C   UNL d   1      52.607  30.481  53.894  0.00  0.00     0.147 A 
ATOM     21  F   UNL d   1      52.301  30.708  54.617  0.00  0.00    -0.204 F 
ATOM     22  C   UNL d   1      52.221  29.931  53.417  0.00  0.00     0.030 A 
ATOM     23  C   UNL d   1      52.544  29.712  52.688  0.00  0.00     0.005 A 
ATOM     24  C   UNL d   1      53.255  30.041  52.428  0.00  0.00     0.030 A 
ATOM     25  C   UNL d   1      53.642  30.585  52.893  0.00  0.00     0.147 A 
ATOM     26  F   UNL d   1      54.355  30.916  52.637  0.00  0.00    -0.204 F 
ENDBRANCH   2  19
TORSDOF 5
ENDMDL
MODEL 8
REMARK VINA RESULT:      -5.8      1.356      2.968
REMARK  5 active torsions:
REMARK  status: ('A' for Active; 'I' for Inactive)
REMARK       I    between atoms: C_2  and  N_1 
REMARK    1  A    between atoms: C_5  and  N_1 
REMARK    2  A    between atoms: C_6  and  N_1 
REMARK    3  A    between atoms: C_4  and  C_2 
REMARK    4  A    between atoms: N_3  and  C_5 
REMARK    5  A    between atoms: O_16  and  C_11 
ROOT
ATOM      1  N   UNL d   1      53.023  33.372  53.648  0.00  0.00    -0.256 N 
ATOM      2  C   UNL d   1      53.625  32.807  53.572  0.00  0.00     0.270 C 
ATOM      3  O   UNL d   1      54.372  33.004  53.567  0.00  0.00    -0.266 OA
ENDROOT
BRANCH   1   4
ATOM      4  C   UNL d   1      52.230  33.144  53.652  0.00  0.00     0.172 C 
BRANCH   4   5
ATOM      5  N   UNL d   1      51.591  33.427  53.215  0.00  0.00    -0.257 N 
ATOM      6  C   UNL d   1      50.797  33.424  53.434  0.00  0.00     0.266 A 
ATOM      7  O   UNL d   1      50.494  33.129  54.148  0.00  0.00    -0.267 OA
ATOM      8  C   UNL d   1      50.350  33.766  52.821  0.00  0.00     0.063 A 
ATOM      9  C   UNL d   1      50.873  33.982  52.219  0.00  0.00     0.024 A 
ATOM     10  C   UNL d   1      51.638  33.777  52.451  0.00  0.00     0.085 A 
ENDBRANCH   4   5
ENDBRANCH   1   4
BRANCH   1  11
ATOM     11  C   UNL d   1      53.218  34.174  53.723  0.00  0.00     0.090 A 
ATOM     12  C   UNL d   1      53.263  34.520  54.474  0.00  0.00     0.110 A 
ATOM     13  C   UNL d   1      53.455  35.311  54.541  0.00  0.00     0.026 A 
ATOM     14  C   UNL d   1      53.602  35.761  53.873  0.00  0.00     0.002 A 
ATOM     15  C   UNL d   1      53.556  35.421  53.137  0.00  0.00     0.002 A 
ATOM     16  C   UNL d   1      53.366  34.630  53.045  0.00  0.00     0.020 A 
BRANCH  12  17
ATOM     17  O   UNL d   1      53.118  34.073  55.137  0.00  0.00    -0.327 OA
ATOM     18  C   UNL d   1      53.243  34.397  55.882  0.00  0.00     0.181 C 
ENDBRANCH  12  17
ENDBRANCH   1  11
BRANCH   2  19
ATOM     19  C   UNL d   1      53.419  32.015  53.499  0.00  0.00     0.111 A 
ATOM     20  C   UNL d   1      53.278  31.692  52.739  0.00  0.00     0.147 A 
ATOM     21  F   UNL d   1      53.345  32.162  52.074  0.00  0.00    -0.204 F 
ATOM     22  C   UNL d   1      53.073  30.896  52.685  0.00  0.00     0.030 A 
ATOM     23  C   UNL d   1      53.010  30.435  53.369  0.00  0.00     0.005 A 
ATOM     24  C   UNL d   1      53.152  30.764  54.112  0.00  0.00     0.030 A 
ATOM     25  C   UNL d   1      53.355  31.550  54.174  0.00  0.00     0.147 A 
ATOM     26  F   UNL d   1      53.497  31.884  54.916  0.00  0.00    -0.204 F 
ENDBRANCH   2  19
TORSDOF 5
ENDMDL
