MODEL 1
REMARK VINA RESULT:      -6.0      0.000      0.000
REMARK  5 active torsions:
REMARK  status: ('A' for Active; 'I' for Inactive)
REMARK       I    between atoms: C_3  and  N_1 
REMARK    1  A    between atoms: C_5  and  N_1 
REMARK    2  A    between atoms: C_2  and  C_3 
REMARK    3  A    between atoms: N_10  and  C_5 
REMARK    4  A    between atoms: C_13  and  N_10 
REMARK    5  A    between atoms: C_14  and  C_13 
ROOT
ATOM      1  C   UNL d   1     -47.788  13.962  22.669  0.00  0.00     0.224 C 
ATOM      2  S   UNL d   1     -47.833  14.781  22.567  0.00  0.00    -0.037 SA
ENDROOT
BRANCH   1   3
ATOM      3  N   UNL d   1     -47.122  13.553  22.411  0.00  0.00    -0.177 NA
ATOM      4  C   UNL d   1     -46.408  13.632  22.824  0.00  0.00     0.304 C 
ATOM      5  O   UNL d   1     -46.364  14.111  23.482  0.00  0.00    -0.263 OA
BRANCH   4   6
ATOM      6  C   UNL d   1     -45.741  13.223  22.567  0.00  0.00     0.158 A 
ATOM      7  O   UNL d   1     -45.165  13.507  22.052  0.00  0.00    -0.296 OA
ATOM      8  C   UNL d   1     -44.605  12.928  21.943  0.00  0.00     0.134 A 
ATOM      9 BR   UNL d   1     -43.937  12.980  21.473  0.00  0.00    -0.022 Br
ATOM     10  C   UNL d   1     -44.828  12.277  22.390  0.00  0.00     0.034 A 
ATOM     11  C   UNL d   1     -45.538  12.460  22.780  0.00  0.00     0.032 A 
ENDBRANCH   4   6
ENDBRANCH   1   3
BRANCH   1  12
ATOM     12  N   UNL d   1     -48.411  13.564  23.027  0.00  0.00    -0.216 NA
BRANCH  12  13
ATOM     13  C   UNL d   1     -49.123  13.500  22.639  0.00  0.00     0.101 C 
BRANCH  13  14
ATOM     14  C   UNL d   1     -49.735  13.074  22.982  0.00  0.00     0.019 A 
ATOM     15  C   UNL d   1     -49.732  12.249  22.960  0.00  0.00     0.002 A 
ATOM     16  C   UNL d   1     -50.350  11.827  23.307  0.00  0.00     0.000 A 
ATOM     17  C   UNL d   1     -50.971  12.229  23.676  0.00  0.00     0.000 A 
ATOM     18  C   UNL d   1     -50.974  13.054  23.698  0.00  0.00     0.000 A 
ATOM     19  C   UNL d   1     -50.356  13.476  23.351  0.00  0.00     0.002 A 
ENDBRANCH  13  14
ENDBRANCH  12  13
ENDBRANCH   1  12
TORSDOF 5
ENDMDL
MODEL 2
REMARK VINA RESULT:      -5.6      2.025      2.481
REMARK  5 active torsions:
REMARK  status: ('A' for Active; 'I' for Inactive)
REMARK       I    between atoms: C_3  and  N_1 
REMARK    1  A    between atoms: C_5  and  N_1 
REMARK    2  A    between atoms: C_2  and  C_3 
REMARK    3  A    between atoms: N_10  and  C_5 
REMARK    4  A    between atoms: C_13  and  N_10 
REMARK    5  A    between atoms: C_14  and  C_13 
ROOT
ATOM      1  C   UNL d   1     -48.962  12.796  22.237  0.00  0.00     0.224 C 
ATOM      2  S   UNL d   1     -49.318  12.339  21.647  0.00  0.00    -0.037 SA
ENDROOT
BRANCH   1   3
ATOM      3  N   UNL d   1     -48.170  12.675  22.426  0.00  0.00    -0.177 NA
ATOM      4  C   UNL d   1     -47.959  12.050  22.928  0.00  0.00     0.304 C 
ATOM      5  O   UNL d   1     -48.532  11.557  23.234  0.00  0.00    -0.263 OA
BRANCH   4   6
ATOM      6  C   UNL d   1     -47.167  11.929  23.117  0.00  0.00     0.158 A 
ATOM      7  O   UNL d   1     -46.797  11.202  23.221  0.00  0.00    -0.296 OA
ATOM      8  C   UNL d   1     -46.016  11.329  23.402  0.00  0.00     0.134 A 
ATOM      9 BR   UNL d   1     -45.449  10.757  23.549  0.00  0.00    -0.022 Br
ATOM     10  C   UNL d   1     -45.891  12.141  23.412  0.00  0.00     0.034 A 
ATOM     11  C   UNL d   1     -46.609  12.516  23.234  0.00  0.00     0.032 A 
ENDBRANCH   4   6
ENDBRANCH   1   3
BRANCH   1  12
ATOM     12  N   UNL d   1     -49.403  13.366  22.630  0.00  0.00    -0.216 NA
BRANCH  12  13
ATOM     13  C   UNL d   1     -49.577  14.067  22.255  0.00  0.00     0.101 C 
BRANCH  13  14
ATOM     14  C   UNL d   1     -49.919  14.680  22.682  0.00  0.00     0.019 A 
ATOM     15  C   UNL d   1     -50.728  14.676  22.843  0.00  0.00     0.002 A 
ATOM     16  C   UNL d   1     -51.064  15.295  23.272  0.00  0.00     0.000 A 
ATOM     17  C   UNL d   1     -50.592  15.918  23.540  0.00  0.00     0.000 A 
ATOM     18  C   UNL d   1     -49.783  15.922  23.379  0.00  0.00     0.000 A 
ATOM     19  C   UNL d   1     -49.446  15.303  22.950  0.00  0.00     0.002 A 
ENDBRANCH  13  14
ENDBRANCH  12  13
ENDBRANCH   1  12
TORSDOF 5
ENDMDL
MODEL 3
REMARK VINA RESULT:      -5.0      8.366      8.991
REMARK  5 active torsions:
REMARK  status: ('A' for Active; 'I' for Inactive)
REMARK       I    between atoms: C_3  and  N_1 
REMARK    1  A    between atoms: C_5  and  N_1 
REMARK    2  A    between atoms: C_2  and  C_3 
REMARK    3  A    between atoms: N_10  and  C_5 
REMARK    4  A    between atoms: C_13  and  N_10 
REMARK    5  A    between atoms: C_14  and  C_13 
ROOT
ATOM      1  C   UNL d   1     -40.331  15.259  20.543  0.00  0.00     0.224 C 
ATOM      2  S   UNL d   1     -40.840  15.794  20.914  0.00  0.00    -0.037 SA
ENDROOT
BRANCH   1   3
ATOM      3  N   UNL d   1     -39.970  14.665  20.985  0.00  0.00    -0.177 NA
ATOM      4  C   UNL d   1     -39.326  14.851  21.472  0.00  0.00     0.304 C 
ATOM      5  O   UNL d   1     -39.050  15.617  21.515  0.00  0.00    -0.263 OA
BRANCH   4   6
ATOM      6  C   UNL d   1     -38.965  14.258  21.914  0.00  0.00     0.158 A 
ATOM      7  O   UNL d   1     -39.021  14.155  22.729  0.00  0.00    -0.296 OA
ATOM      8  C   UNL d   1     -38.582  13.506  22.941  0.00  0.00     0.134 A 
ATOM      9 BR   UNL d   1     -38.486  13.208  23.697  0.00  0.00    -0.022 Br
ATOM     10  C   UNL d   1     -38.247  13.196  22.258  0.00  0.00     0.034 A 
ATOM     11  C   UNL d   1     -38.485  13.665  21.616  0.00  0.00     0.032 A 
ENDBRANCH   4   6
ENDBRANCH   1   3
BRANCH   1  12
ATOM     12  N   UNL d   1     -40.190  15.324  19.737  0.00  0.00    -0.216 NA
BRANCH  12  13
ATOM     13  C   UNL d   1     -40.803  15.214  19.213  0.00  0.00     0.101 C 
BRANCH  13  14
ATOM     14  C   UNL d   1     -40.649  15.210  18.406  0.00  0.00     0.019 A 
ATOM     15  C   UNL d   1     -40.751  15.895  17.958  0.00  0.00     0.002 A 
ATOM     16  C   UNL d   1     -40.595  15.883  17.148  0.00  0.00     0.000 A 
ATOM     17  C   UNL d   1     -40.337  15.186  16.786  0.00  0.00     0.000 A 
ATOM     18  C   UNL d   1     -40.235  14.501  17.234  0.00  0.00     0.000 A 
ATOM     19  C   UNL d   1     -40.391  14.513  18.044  0.00  0.00     0.002 A 
ENDBRANCH  13  14
ENDBRANCH  12  13
ENDBRANCH   1  12
TORSDOF 5
ENDMDL
MODEL 4
REMARK VINA RESULT:      -4.9      2.173      4.595
REMARK  5 active torsions:
REMARK  status: ('A' for Active; 'I' for Inactive)
REMARK       I    between atoms: C_3  and  N_1 
REMARK    1  A    between atoms: C_5  and  N_1 
REMARK    2  A    between atoms: C_2  and  C_3 
REMARK    3  A    between atoms: N_10  and  C_5 
REMARK    4  A    between atoms: C_13  and  N_10 
REMARK    5  A    between atoms: C_14  and  C_13 
ROOT
ATOM      1  C   UNL d   1     -46.566  12.877  22.990  0.00  0.00     0.224 C 
ATOM      2  S   UNL d   1     -46.287  13.648  22.882  0.00  0.00    -0.037 SA
ENDROOT
BRANCH   1   3
ATOM      3  N   UNL d   1     -47.344  12.692  22.795  0.00  0.00    -0.177 NA
ATOM      4  C   UNL d   1     -47.951  13.224  22.984  0.00  0.00     0.304 C 
ATOM      5  O   UNL d   1     -47.779  13.926  23.361  0.00  0.00    -0.263 OA
BRANCH   4   6
ATOM      6  C   UNL d   1     -48.729  13.040  22.790  0.00  0.00     0.158 A 
ATOM      7  O   UNL d   1     -49.112  13.226  22.086  0.00  0.00    -0.296 OA
ATOM      8  C   UNL d   1     -49.873  12.944  22.120  0.00  0.00     0.134 A 
ATOM      9 BR   UNL d   1     -50.444  13.010  21.536  0.00  0.00    -0.022 Br
ATOM     10  C   UNL d   1     -49.972  12.578  22.848  0.00  0.00     0.034 A 
ATOM     11  C   UNL d   1     -49.258  12.637  23.267  0.00  0.00     0.032 A 
ENDBRANCH   4   6
ENDBRANCH   1   3
BRANCH   1  12
ATOM     12  N   UNL d   1     -46.063  12.302  23.290  0.00  0.00    -0.216 NA
BRANCH  12  13
ATOM     13  C   UNL d   1     -45.419  12.064  22.853  0.00  0.00     0.101 C 
BRANCH  13  14
ATOM     14  C   UNL d   1     -44.986  11.408  23.093  0.00  0.00     0.019 A 
ATOM     15  C   UNL d   1     -44.171  11.381  22.975  0.00  0.00     0.002 A 
ATOM     16  C   UNL d   1     -43.742  10.719  23.218  0.00  0.00     0.000 A 
ATOM     17  C   UNL d   1     -44.130  10.085  23.580  0.00  0.00     0.000 A 
ATOM     18  C   UNL d   1     -44.946  10.112  23.698  0.00  0.00     0.000 A 
ATOM     19  C   UNL d   1     -45.374  10.774  23.455  0.00  0.00     0.002 A 
ENDBRANCH  13  14
ENDBRANCH  12  13
ENDBRANCH   1  12
TORSDOF 5
ENDMDL
MODEL 5
REMARK VINA RESULT:      -4.9      8.715      9.540
REMARK  5 active torsions:
REMARK  status: ('A' for Active; 'I' for Inactive)
REMARK       I    between atoms: C_3  and  N_1 
REMARK    1  A    between atoms: C_5  and  N_1 
REMARK    2  A    between atoms: C_2  and  C_3 
REMARK    3  A    between atoms: N_10  and  C_5 
REMARK    4  A    between atoms: C_13  and  N_10 
REMARK    5  A    between atoms: C_14  and  C_13 
ROOT
ATOM      1  C   UNL d   1     -39.990  14.697  19.135  0.00  0.00     0.224 C 
ATOM      2  S   UNL d   1     -40.629  15.184  18.940  0.00  0.00    -0.037 SA
ENDROOT
BRANCH   1   3
ATOM      3  N   UNL d   1     -39.447  14.483  18.555  0.00  0.00    -0.177 NA
ATOM      4  C   UNL d   1     -39.670  13.952  17.959  0.00  0.00     0.304 C 
ATOM      5  O   UNL d   1     -40.424  13.643  17.946  0.00  0.00    -0.263 OA
BRANCH   4   6
ATOM      6  C   UNL d   1     -39.127  13.739  17.379  0.00  0.00     0.158 A 
ATOM      7  O   UNL d   1     -38.955  14.161  16.694  0.00  0.00    -0.296 OA
ATOM      8  C   UNL d   1     -38.389  13.758  16.273  0.00  0.00     0.134 A 
ATOM      9 BR   UNL d   1     -38.060  13.984  15.559  0.00  0.00    -0.022 Br
ATOM     10  C   UNL d   1     -38.203  13.078  16.694  0.00  0.00     0.034 A 
ATOM     11  C   UNL d   1     -38.663  13.065  17.384  0.00  0.00     0.032 A 
ENDBRANCH   4   6
ENDBRANCH   1   3
BRANCH   1  12
ATOM     12  N   UNL d   1     -39.903  14.432  19.907  0.00  0.00    -0.216 NA
BRANCH  12  13
ATOM     13  C   UNL d   1     -39.890  14.970  20.517  0.00  0.00     0.101 C 
BRANCH  13  14
ATOM     14  C   UNL d   1     -39.590  14.746  21.248  0.00  0.00     0.019 A 
ATOM     15  C   UNL d   1     -39.658  13.965  21.505  0.00  0.00     0.002 A 
ATOM     16  C   UNL d   1     -39.355  13.746  22.240  0.00  0.00     0.000 A 
ATOM     17  C   UNL d   1     -38.984  14.309  22.719  0.00  0.00     0.000 A 
ATOM     18  C   UNL d   1     -38.917  15.090  22.462  0.00  0.00     0.000 A 
ATOM     19  C   UNL d   1     -39.220  15.309  21.727  0.00  0.00     0.002 A 
ENDBRANCH  13  14
ENDBRANCH  12  13
ENDBRANCH   1  12
TORSDOF 5
ENDMDL
MODEL 6
REMARK VINA RESULT:      -4.6      8.750      9.931
REMARK  5 active torsions:
REMARK  status: ('A' for Active; 'I' for Inactive)
REMARK       I    between atoms: C_3  and  N_1 
REMARK    1  A    between atoms: C_5  and  N_1 
REMARK    2  A    between atoms: C_2  and  C_3 
REMARK    3  A    between atoms: N_10  and  C_5 
REMARK    4  A    between atoms: C_13  and  N_10 
REMARK    5  A    between atoms: C_14  and  C_13 
ROOT
ATOM      1  C   UNL d   1     -40.022  14.350  19.057  0.00  0.00     0.224 C 
ATOM      2  S   UNL d   1     -40.834  14.459  18.944  0.00  0.00    -0.037 SA
ENDROOT
BRANCH   1   3
ATOM      3  N   UNL d   1     -39.727  14.231  19.816  0.00  0.00    -0.177 NA
ATOM      4  C   UNL d   1     -39.759  14.847  20.369  0.00  0.00     0.304 C 
ATOM      5  O   UNL d   1     -40.080  15.567  20.164  0.00  0.00    -0.263 OA
BRANCH   4   6
ATOM      6  C   UNL d   1     -39.464  14.728  21.128  0.00  0.00     0.158 A 
ATOM      7  O   UNL d   1     -39.332  14.001  21.491  0.00  0.00    -0.296 OA
ATOM      8  C   UNL d   1     -39.039  14.131  22.237  0.00  0.00     0.134 A 
ATOM      9 BR   UNL d   1     -38.833  13.559  22.786  0.00  0.00    -0.022 Br
ATOM     10  C   UNL d   1     -38.986  14.942  22.347  0.00  0.00     0.034 A 
ATOM     11  C   UNL d   1     -39.251  15.316  21.655  0.00  0.00     0.032 A 
ENDBRANCH   4   6
ENDBRANCH   1   3
BRANCH   1  12
ATOM     12  N   UNL d   1     -39.518  14.360  18.409  0.00  0.00    -0.216 NA
BRANCH  12  13
ATOM     13  C   UNL d   1     -39.630  13.828  17.804  0.00  0.00     0.101 C 
BRANCH  13  14
ATOM     14  C   UNL d   1     -39.071  13.771  17.206  0.00  0.00     0.019 A 
ATOM     15  C   UNL d   1     -38.537  13.142  17.193  0.00  0.00     0.002 A 
ATOM     16  C   UNL d   1     -37.977  13.090  16.589  0.00  0.00     0.000 A 
ATOM     17  C   UNL d   1     -37.951  13.668  15.998  0.00  0.00     0.000 A 
ATOM     18  C   UNL d   1     -38.485  14.297  16.011  0.00  0.00     0.000 A 
ATOM     19  C   UNL d   1     -39.045  14.349  16.615  0.00  0.00     0.002 A 
ENDBRANCH  13  14
ENDBRANCH  12  13
ENDBRANCH   1  12
TORSDOF 5
ENDMDL
MODEL 7
REMARK VINA RESULT:      -4.5      9.187      9.772
REMARK  5 active torsions:
REMARK  status: ('A' for Active; 'I' for Inactive)
REMARK       I    between atoms: C_3  and  N_1 
REMARK    1  A    between atoms: C_5  and  N_1 
REMARK    2  A    between atoms: C_2  and  C_3 
REMARK    3  A    between atoms: N_10  and  C_5 
REMARK    4  A    between atoms: C_13  and  N_10 
REMARK    5  A    between atoms: C_14  and  C_13 
ROOT
ATOM      1  C   UNL d   1     -38.889  13.832  19.190  0.00  0.00     0.224 C 
ATOM      2  S   UNL d   1     -38.393  13.389  18.698  0.00  0.00    -0.037 SA
ENDROOT
BRANCH   1   3
ATOM      3  N   UNL d   1     -39.362  14.424  18.868  0.00  0.00    -0.177 NA
ATOM      4  C   UNL d   1     -39.850  14.253  18.220  0.00  0.00     0.304 C 
ATOM      5  O   UNL d   1     -39.862  13.502  17.903  0.00  0.00    -0.263 OA
BRANCH   4   6
ATOM      6  C   UNL d   1     -40.322  14.845  17.898  0.00  0.00     0.158 A 
ATOM      7  O   UNL d   1     -40.539  14.919  17.108  0.00  0.00    -0.296 OA
ATOM      8  C   UNL d   1     -41.007  15.578  17.026  0.00  0.00     0.134 A 
ATOM      9 BR   UNL d   1     -41.342  15.855  16.332  0.00  0.00    -0.022 Br
ATOM     10  C   UNL d   1     -41.086  15.922  17.767  0.00  0.00     0.034 A 
ATOM     11  C   UNL d   1     -40.659  15.465  18.313  0.00  0.00     0.032 A 
ENDBRANCH   4   6
ENDBRANCH   1   3
BRANCH   1  12
ATOM     12  N   UNL d   1     -38.905  13.676  19.995  0.00  0.00    -0.216 NA
BRANCH  12  13
ATOM     13  C   UNL d   1     -38.268  13.884  20.457  0.00  0.00     0.101 C 
BRANCH  13  14
ATOM     14  C   UNL d   1     -38.294  13.749  21.267  0.00  0.00     0.019 A 
ATOM     15  C   UNL d   1     -38.670  14.286  21.768  0.00  0.00     0.002 A 
ATOM     16  C   UNL d   1     -38.692  14.144  22.580  0.00  0.00     0.000 A 
ATOM     17  C   UNL d   1     -38.338  13.465  22.892  0.00  0.00     0.000 A 
ATOM     18  C   UNL d   1     -37.962  12.929  22.391  0.00  0.00     0.000 A 
ATOM     19  C   UNL d   1     -37.939  13.070  21.578  0.00  0.00     0.002 A 
ENDBRANCH  13  14
ENDBRANCH  12  13
ENDBRANCH   1  12
TORSDOF 5
ENDMDL
