MODEL 1
REMARK VINA RESULT:      53.7      0.000      0.000
REMARK  3 active torsions:
REMARK  status: ('A' for Active; 'I' for Inactive)
REMARK    1  A    between atoms: C_5  and  C_1 
REMARK    2  A    between atoms: N_6  and  C_5 
REMARK    3  A    between atoms: C_8  and  C_5 
ROOT
ATOM      1  C   UNL d   1      44.447 -15.837  37.559  0.00  0.00     0.083 C 
ENDROOT
BRANCH   1   2
ATOM      2  C   UNL d   1      45.134 -15.495  37.187  0.00  0.00     0.037 A 
ATOM      3  C   UNL d   1      45.611 -15.877  36.624  0.00  0.00     0.083 A 
ATOM      4  N   UNL d   1      46.204 -15.359  36.412  0.00  0.00    -0.245 NA
ATOM      5  C   UNL d   1      45.497 -16.657  36.330  0.00  0.00     0.021 C 
ATOM      6  C   UNL d   1      46.113 -14.655  36.829  0.00  0.00     0.081 A 
ATOM      7  C   UNL d   1      45.436 -14.741  37.320  0.00  0.00     0.021 A 
ATOM      8  C   UNL d   1      46.541 -13.956  36.836  0.00  0.00     0.019 A 
ATOM      9  C   UNL d   1      45.202 -14.125  37.806  0.00  0.00     0.002 A 
ATOM     10  C   UNL d   1      45.642 -13.407  37.813  0.00  0.00     0.000 A 
ATOM     11  C   UNL d   1      46.292 -13.325  37.342  0.00  0.00     0.002 A 
ENDBRANCH   1   2
BRANCH   1  12
ATOM     12  N   UNL d   1      43.680 -15.668  37.278  0.00  0.00    -0.302 N 
ATOM     13  C   UNL d   1      43.215 -15.107  37.666  0.00  0.00     0.080 A 
ATOM     14  C   UNL d   1      42.459 -14.944  37.384  0.00  0.00     0.019 A 
ATOM     15  C   UNL d   1      42.167 -15.337  36.720  0.00  0.00     0.003 A 
ATOM     16  C   UNL d   1      42.628 -15.896  36.331  0.00  0.00     0.019 A 
ATOM     17  C   UNL d   1      41.400 -15.167  36.438  0.00  0.00     0.000 C 
ATOM     18  C   UNL d   1      43.384 -16.059  36.613  0.00  0.00     0.080 A 
ENDBRANCH   1  12
BRANCH   1  19
ATOM     19  C   UNL d   1      44.549 -16.356  38.222  0.00  0.00     0.098 A 
ATOM     20  N   UNL d   1      44.015 -16.340  38.848  0.00  0.00    -0.243 NA
ATOM     21  C   UNL d   1      44.108 -16.838  39.492  0.00  0.00     0.099 A 
ATOM     22  C   UNL d   1      44.744 -17.360  39.509  0.00  0.00     0.021 A 
ATOM     23  C   UNL d   1      45.281 -17.378  38.882  0.00  0.00     0.003 A 
ATOM     24  C   UNL d   1      45.195 -16.873  38.221  0.00  0.00     0.021 A 
ENDBRANCH   1  19
TORSDOF 3
ENDMDL
MODEL 2
REMARK VINA RESULT:      55.0      5.488      7.082
REMARK  3 active torsions:
REMARK  status: ('A' for Active; 'I' for Inactive)
REMARK    1  A    between atoms: C_5  and  C_1 
REMARK    2  A    between atoms: N_6  and  C_5 
REMARK    3  A    between atoms: C_8  and  C_5 
ROOT
ATOM      1  C   UNL d   1      44.956 -13.648  43.739  0.00  0.00     0.083 C 
ENDROOT
BRANCH   1   2
ATOM      2  C   UNL d   1      45.577 -14.032  44.182  0.00  0.00     0.037 A 
ATOM      3  C   UNL d   1      46.163 -13.636  44.620  0.00  0.00     0.083 A 
ATOM      4  N   UNL d   1      46.644 -14.204  44.955  0.00  0.00    -0.245 NA
ATOM      5  C   UNL d   1      46.241 -12.803  44.699  0.00  0.00     0.021 C 
ATOM      6  C   UNL d   1      46.375 -14.951  44.738  0.00  0.00     0.081 A 
ATOM      7  C   UNL d   1      45.699 -14.842  44.249  0.00  0.00     0.021 A 
ATOM      8  C   UNL d   1      46.640 -15.708  44.911  0.00  0.00     0.019 A 
ATOM      9  C   UNL d   1      45.306 -15.492  43.944  0.00  0.00     0.002 A 
ATOM     10  C   UNL d   1      45.579 -16.269  44.122  0.00  0.00     0.000 A 
ATOM     11  C   UNL d   1      46.226 -16.373  44.591  0.00  0.00     0.002 A 
ENDBRANCH   1   2
BRANCH   1  12
ATOM     12  N   UNL d   1      45.123 -13.253  43.024  0.00  0.00    -0.302 N 
ATOM     13  C   UNL d   1      44.695 -12.578  42.818  0.00  0.00     0.080 A 
ATOM     14  C   UNL d   1      44.864 -12.193  42.111  0.00  0.00     0.019 A 
ATOM     15  C   UNL d   1      45.456 -12.477  41.611  0.00  0.00     0.003 A 
ATOM     16  C   UNL d   1      45.884 -13.149  41.813  0.00  0.00     0.019 A 
ATOM     17  C   UNL d   1      45.624 -12.082  40.895  0.00  0.00     0.000 C 
ATOM     18  C   UNL d   1      45.715 -13.535  42.521  0.00  0.00     0.080 A 
ENDBRANCH   1  12
BRANCH   1  19
ATOM     19  C   UNL d   1      44.162 -13.672  44.034  0.00  0.00     0.098 A 
ATOM     20  N   UNL d   1      43.575 -13.212  43.685  0.00  0.00    -0.243 NA
ATOM     21  C   UNL d   1      42.805 -13.230  43.964  0.00  0.00     0.099 A 
ATOM     22  C   UNL d   1      42.620 -13.716  44.602  0.00  0.00     0.021 A 
ATOM     23  C   UNL d   1      43.206 -14.178  44.955  0.00  0.00     0.003 A 
ATOM     24  C   UNL d   1      43.995 -14.166  44.676  0.00  0.00     0.021 A 
ENDBRANCH   1  19
TORSDOF 3
ENDMDL
MODEL 3
REMARK VINA RESULT:      55.6      0.800      3.350
REMARK  3 active torsions:
REMARK  status: ('A' for Active; 'I' for Inactive)
REMARK    1  A    between atoms: C_5  and  C_1 
REMARK    2  A    between atoms: N_6  and  C_5 
REMARK    3  A    between atoms: C_8  and  C_5 
ROOT
ATOM      1  C   UNL d   1      44.886 -15.878  37.480  0.00  0.00     0.083 C 
ENDROOT
BRANCH   1   2
ATOM      2  C   UNL d   1      44.130 -15.968  37.095  0.00  0.00     0.037 A 
ATOM      3  C   UNL d   1      43.933 -16.581  36.569  0.00  0.00     0.083 A 
ATOM      4  N   UNL d   1      43.163 -16.461  36.330  0.00  0.00    -0.245 NA
ATOM      5  C   UNL d   1      44.442 -17.207  36.330  0.00  0.00     0.021 C 
ATOM      6  C   UNL d   1      42.866 -15.785  36.694  0.00  0.00     0.081 A 
ATOM      7  C   UNL d   1      43.478 -15.473  37.179  0.00  0.00     0.021 A 
ATOM      8  C   UNL d   1      42.138 -15.411  36.658  0.00  0.00     0.019 A 
ATOM      9  C   UNL d   1      43.348 -14.793  37.616  0.00  0.00     0.002 A 
ATOM     10  C   UNL d   1      42.599 -14.409  37.578  0.00  0.00     0.000 A 
ATOM     11  C   UNL d   1      42.012 -14.708  37.114  0.00  0.00     0.002 A 
ENDBRANCH   1   2
BRANCH   1  12
ATOM     12  N   UNL d   1      45.098 -16.362  38.125  0.00  0.00    -0.302 N 
ATOM     13  C   UNL d   1      44.523 -16.821  38.499  0.00  0.00     0.080 A 
ATOM     14  C   UNL d   1      44.737 -17.297  39.136  0.00  0.00     0.019 A 
ATOM     15  C   UNL d   1      45.519 -17.315  39.399  0.00  0.00     0.003 A 
ATOM     16  C   UNL d   1      46.094 -16.859  39.029  0.00  0.00     0.019 A 
ATOM     17  C   UNL d   1      45.731 -17.800  40.045  0.00  0.00     0.000 C 
ATOM     18  C   UNL d   1      45.880 -16.383  38.392  0.00  0.00     0.080 A 
ENDBRANCH   1  12
BRANCH   1  19
ATOM     19  C   UNL d   1      45.427 -15.288  37.199  0.00  0.00     0.098 A 
ATOM     20  N   UNL d   1      45.411 -14.527  37.513  0.00  0.00    -0.243 NA
ATOM     21  C   UNL d   1      45.931 -13.952  37.246  0.00  0.00     0.099 A 
ATOM     22  C   UNL d   1      46.473 -14.142  36.657  0.00  0.00     0.021 A 
ATOM     23  C   UNL d   1      46.491 -14.904  36.341  0.00  0.00     0.003 A 
ATOM     24  C   UNL d   1      45.965 -15.498  36.607  0.00  0.00     0.021 A 
ENDBRANCH   1  19
TORSDOF 3
ENDMDL
MODEL 4
REMARK VINA RESULT:      55.9      0.700      2.889
REMARK  3 active torsions:
REMARK  status: ('A' for Active; 'I' for Inactive)
REMARK    1  A    between atoms: C_5  and  C_1 
REMARK    2  A    between atoms: N_6  and  C_5 
REMARK    3  A    between atoms: C_8  and  C_5 
ROOT
ATOM      1  C   UNL d   1      44.431 -15.998  37.433  0.00  0.00     0.083 C 
ENDROOT
BRANCH   1   2
ATOM      2  C   UNL d   1      43.660 -16.032  37.068  0.00  0.00     0.037 A 
ATOM      3  C   UNL d   1      43.398 -16.640  36.565  0.00  0.00     0.083 A 
ATOM      4  N   UNL d   1      42.636 -16.461  36.340  0.00  0.00    -0.245 NA
ATOM      5  C   UNL d   1      43.844 -17.315  36.335  0.00  0.00     0.021 C 
ATOM      6  C   UNL d   1      42.408 -15.751  36.689  0.00  0.00     0.081 A 
ATOM      7  C   UNL d   1      43.056 -15.480  37.151  0.00  0.00     0.021 A 
ATOM      8  C   UNL d   1      41.714 -15.315  36.657  0.00  0.00     0.019 A 
ATOM      9  C   UNL d   1      42.996 -14.779  37.569  0.00  0.00     0.002 A 
ATOM     10  C   UNL d   1      42.283 -14.332  37.536  0.00  0.00     0.000 A 
ATOM     11  C   UNL d   1      41.661 -14.592  37.094  0.00  0.00     0.002 A 
ENDBRANCH   1   2
BRANCH   1  12
ATOM     12  N   UNL d   1      44.988 -15.422  37.201  0.00  0.00    -0.302 N 
ATOM     13  C   UNL d   1      45.483 -15.567  36.557  0.00  0.00     0.080 A 
ATOM     14  C   UNL d   1      46.031 -14.995  36.332  0.00  0.00     0.019 A 
ATOM     15  C   UNL d   1      46.086 -14.283  36.745  0.00  0.00     0.003 A 
ATOM     16  C   UNL d   1      45.594 -14.136  37.387  0.00  0.00     0.019 A 
ATOM     17  C   UNL d   1      46.643 -13.707  36.513  0.00  0.00     0.000 C 
ATOM     18  C   UNL d   1      45.045 -14.708  37.613  0.00  0.00     0.080 A 
ENDBRANCH   1  12
BRANCH   1  19
ATOM     19  C   UNL d   1      44.628 -16.556  38.039  0.00  0.00     0.098 A 
ATOM     20  N   UNL d   1      44.360 -16.446  38.810  0.00  0.00    -0.243 NA
ATOM     21  C   UNL d   1      44.547 -16.983  39.400  0.00  0.00     0.099 A 
ATOM     22  C   UNL d   1      45.010 -17.638  39.216  0.00  0.00     0.021 A 
ATOM     23  C   UNL d   1      45.280 -17.751  38.445  0.00  0.00     0.003 A 
ATOM     24  C   UNL d   1      45.094 -17.209  37.836  0.00  0.00     0.021 A 
ENDBRANCH   1  19
TORSDOF 3
ENDMDL
MODEL 5
REMARK VINA RESULT:      56.7      0.393      2.518
REMARK  3 active torsions:
REMARK  status: ('A' for Active; 'I' for Inactive)
REMARK    1  A    between atoms: C_5  and  C_1 
REMARK    2  A    between atoms: N_6  and  C_5 
REMARK    3  A    between atoms: C_8  and  C_5 
ROOT
ATOM      1  C   UNL d   1      44.442 -15.876  37.559  0.00  0.00     0.083 C 
ENDROOT
BRANCH   1   2
ATOM      2  C   UNL d   1      45.116 -15.547  37.152  0.00  0.00     0.037 A 
ATOM      3  C   UNL d   1      45.576 -15.951  36.589  0.00  0.00     0.083 A 
ATOM      4  N   UNL d   1      46.159 -15.440  36.338  0.00  0.00    -0.245 NA
ATOM      5  C   UNL d   1      45.455 -16.742  36.330  0.00  0.00     0.021 C 
ATOM      6  C   UNL d   1      46.079 -14.720  36.730  0.00  0.00     0.081 A 
ATOM      7  C   UNL d   1      45.418 -14.788  37.245  0.00  0.00     0.021 A 
ATOM      8  C   UNL d   1      46.505 -14.020  36.695  0.00  0.00     0.019 A 
ATOM      9  C   UNL d   1      45.198 -14.154  37.714  0.00  0.00     0.002 A 
ATOM     10  C   UNL d   1      45.636 -13.435  37.678  0.00  0.00     0.000 A 
ATOM     11  C   UNL d   1      46.269 -13.370  37.184  0.00  0.00     0.002 A 
ENDBRANCH   1   2
BRANCH   1  12
ATOM     12  N   UNL d   1      44.545 -16.381  38.216  0.00  0.00    -0.302 N 
ATOM     13  C   UNL d   1      45.266 -16.765  38.330  0.00  0.00     0.080 A 
ATOM     14  C   UNL d   1      45.362 -17.261  38.979  0.00  0.00     0.019 A 
ATOM     15  C   UNL d   1      44.743 -17.375  39.513  0.00  0.00     0.003 A 
ATOM     16  C   UNL d   1      44.023 -16.994  39.402  0.00  0.00     0.019 A 
ATOM     17  C   UNL d   1      44.845 -17.879  40.170  0.00  0.00     0.000 C 
ATOM     18  C   UNL d   1      43.927 -16.497  38.752  0.00  0.00     0.080 A 
ENDBRANCH   1  12
BRANCH   1  19
ATOM     19  C   UNL d   1      43.661 -15.687  37.291  0.00  0.00     0.098 A 
ATOM     20  N   UNL d   1      43.183 -15.178  37.728  0.00  0.00    -0.243 NA
ATOM     21  C   UNL d   1      42.427 -14.990  37.474  0.00  0.00     0.099 A 
ATOM     22  C   UNL d   1      42.146 -15.316  36.773  0.00  0.00     0.021 A 
ATOM     23  C   UNL d   1      42.622 -15.827  36.332  0.00  0.00     0.003 A 
ATOM     24  C   UNL d   1      43.395 -16.024  36.584  0.00  0.00     0.021 A 
ENDBRANCH   1  19
TORSDOF 3
ENDMDL
