MODEL 1
REMARK VINA RESULT:      -2.7      0.000      0.000
REMARK  3 active torsions:
REMARK  status: ('A' for Active; 'I' for Inactive)
REMARK    1  A    between atoms: C_7  and  N_1 
REMARK    2  A    between atoms: C_6  and  C_3 
REMARK    3  A    between atoms: O_16  and  C_13 
ROOT
ATOM      1  N   UNL d   1      31.782  17.163 -24.045  0.00  0.00    -0.273 N 
ATOM      2  C   UNL d   1      32.394  16.835 -24.492  0.00  0.00     0.265 A 
ATOM      3  C   UNL d   1      32.678  18.163 -23.554  0.00  0.00     0.087 A 
ATOM      4  C   UNL d   1      31.925  17.828 -23.575  0.00  0.00     0.089 A 
ATOM      5  C   UNL d   1      33.147  17.171 -24.470  0.00  0.00     0.069 A 
ATOM      6  O   UNL d   1      32.251  16.171 -24.961  0.00  0.00    -0.267 OA
ENDROOT
BRANCH   1   7
ATOM      7  C   UNL d   1      31.029  16.827 -24.066  0.00  0.00     0.067 A 
ATOM      8  C   UNL d   1      30.459  17.135 -24.575  0.00  0.00     0.020 A 
ATOM      9  C   UNL d   1      29.715  16.803 -24.596  0.00  0.00     0.026 A 
ATOM     10  C   UNL d   1      29.527  16.157 -24.109  0.00  0.00     0.094 A 
ATOM     11  C   UNL d   1      30.101  15.852 -23.601  0.00  0.00     0.026 A 
ATOM     12  C   UNL d   1      30.853  16.187 -23.579  0.00  0.00     0.020 A 
BRANCH  10  13
ATOM     13  O   UNL d   1      28.773  15.825 -24.135  0.00  0.00    -0.328 OA
ATOM     14  C   UNL d   1      28.193  16.064 -23.597  0.00  0.00     0.181 C 
ENDBRANCH  10  13
ENDBRANCH   1   7
BRANCH   3  15
ATOM     15  C   UNL d   1      33.049  18.868 -23.126  0.00  0.00     0.212 C 
ATOM     16  O   UNL d   1      33.233  19.632 -23.585  0.00  0.00    -0.644 OA
ATOM     17  O   UNL d   1      33.241  18.816 -22.237  0.00  0.00    -0.644 OA
ENDBRANCH   3  15
TORSDOF 3
ENDMDL
MODEL 2
REMARK VINA RESULT:      -2.4      1.007      3.766
REMARK  3 active torsions:
REMARK  status: ('A' for Active; 'I' for Inactive)
REMARK    1  A    between atoms: C_7  and  N_1 
REMARK    2  A    between atoms: C_6  and  C_3 
REMARK    3  A    between atoms: O_16  and  C_13 
ROOT
ATOM      1  N   UNL d   1      31.228  16.867 -24.197  0.00  0.00    -0.273 N 
ATOM      2  C   UNL d   1      31.525  16.103 -24.297  0.00  0.00     0.265 A 
ATOM      3  C   UNL d   1      29.923  16.330 -23.968  0.00  0.00     0.087 A 
ATOM      4  C   UNL d   1      30.427  16.980 -24.033  0.00  0.00     0.089 A 
ATOM      5  C   UNL d   1      31.022  15.453 -24.232  0.00  0.00     0.069 A 
ATOM      6  O   UNL d   1      32.327  15.990 -24.461  0.00  0.00    -0.267 OA
ENDROOT
BRANCH   1   7
ATOM      7  C   UNL d   1      31.732  17.517 -24.262  0.00  0.00     0.067 A 
ATOM      8  C   UNL d   1      32.129  17.794 -23.597  0.00  0.00     0.020 A 
ATOM      9  C   UNL d   1      32.626  18.436 -23.661  0.00  0.00     0.026 A 
ATOM     10  C   UNL d   1      32.736  18.813 -24.392  0.00  0.00     0.094 A 
ATOM     11  C   UNL d   1      32.336  18.533 -25.058  0.00  0.00     0.026 A 
ATOM     12  C   UNL d   1      31.833  17.883 -24.993  0.00  0.00     0.020 A 
BRANCH  10  13
ATOM     13  O   UNL d   1      33.241  19.463 -24.452  0.00  0.00    -0.328 OA
ATOM     14  C   UNL d   1      33.185  19.977 -25.097  0.00  0.00     0.181 C 
ENDBRANCH  10  13
ENDBRANCH   1   7
BRANCH   3  15
ATOM     15  C   UNL d   1      29.042  16.221 -23.800  0.00  0.00     0.212 C 
ATOM     16  O   UNL d   1      28.426  16.493 -24.412  0.00  0.00    -0.644 OA
ATOM     17  O   UNL d   1      28.767  15.840 -23.020  0.00  0.00    -0.644 OA
ENDBRANCH   3  15
TORSDOF 3
ENDMDL
MODEL 3
REMARK VINA RESULT:      -2.2      1.761      2.706
REMARK  3 active torsions:
REMARK  status: ('A' for Active; 'I' for Inactive)
REMARK    1  A    between atoms: C_7  and  N_1 
REMARK    2  A    between atoms: C_6  and  C_3 
REMARK    3  A    between atoms: O_16  and  C_13 
ROOT
ATOM      1  N   UNL d   1      32.868  18.976 -23.262  0.00  0.00    -0.273 N 
ATOM      2  C   UNL d   1      33.052  19.476 -23.893  0.00  0.00     0.265 A 
ATOM      3  C   UNL d   1      33.061  20.058 -22.348  0.00  0.00     0.087 A 
ATOM      4  C   UNL d   1      32.873  19.267 -22.489  0.00  0.00     0.089 A 
ATOM      5  C   UNL d   1      33.240  20.267 -23.751  0.00  0.00     0.069 A 
ATOM      6  O   UNL d   1      33.048  19.184 -24.665  0.00  0.00    -0.267 OA
ENDROOT
BRANCH   1   7
ATOM      7  C   UNL d   1      32.680  18.185 -23.404  0.00  0.00     0.067 A 
ATOM      8  C   UNL d   1      31.938  17.989 -23.700  0.00  0.00     0.020 A 
ATOM      9  C   UNL d   1      31.752  17.208 -23.840  0.00  0.00     0.026 A 
ATOM     10  C   UNL d   1      32.305  16.608 -23.686  0.00  0.00     0.094 A 
ATOM     11  C   UNL d   1      33.049  16.809 -23.389  0.00  0.00     0.026 A 
ATOM     12  C   UNL d   1      33.237  17.599 -23.247  0.00  0.00     0.020 A 
BRANCH  10  13
ATOM     13  O   UNL d   1      32.113  15.819 -23.829  0.00  0.00    -0.328 OA
ATOM     14  C   UNL d   1      31.487  15.462 -23.425  0.00  0.00     0.181 C 
ENDBRANCH  10  13
ENDBRANCH   1   7
BRANCH   3  15
ATOM     15  C   UNL d   1      33.125  20.575 -21.609  0.00  0.00     0.212 C 
ATOM     16  O   UNL d   1      33.236  20.188 -20.792  0.00  0.00    -0.644 OA
ATOM     17  O   UNL d   1      33.080  21.482 -21.678  0.00  0.00    -0.644 OA
ENDBRANCH   3  15
TORSDOF 3
ENDMDL
MODEL 4
REMARK VINA RESULT:      -1.8      4.217      6.613
REMARK  3 active torsions:
REMARK  status: ('A' for Active; 'I' for Inactive)
REMARK    1  A    between atoms: C_7  and  N_1 
REMARK    2  A    between atoms: C_6  and  C_3 
REMARK    3  A    between atoms: O_16  and  C_13 
ROOT
ATOM      1  N   UNL d   1      32.889  21.867 -21.602  0.00  0.00    -0.273 N 
ATOM      2  C   UNL d   1      33.085  22.255 -22.304  0.00  0.00     0.265 A 
ATOM      3  C   UNL d   1      33.004  20.607 -22.266  0.00  0.00     0.087 A 
ATOM      4  C   UNL d   1      32.849  21.043 -21.583  0.00  0.00     0.089 A 
ATOM      5  C   UNL d   1      33.240  21.819 -22.986  0.00  0.00     0.069 A 
ATOM      6  O   UNL d   1      33.125  23.080 -22.322  0.00  0.00    -0.267 OA
ENDROOT
BRANCH   1   7
ATOM      7  C   UNL d   1      32.733  22.304 -20.919  0.00  0.00     0.067 A 
ATOM      8  C   UNL d   1      33.231  22.232 -20.267  0.00  0.00     0.020 A 
ATOM      9  C   UNL d   1      33.077  22.663 -19.592  0.00  0.00     0.026 A 
ATOM     10  C   UNL d   1      32.423  23.173 -19.557  0.00  0.00     0.094 A 
ATOM     11  C   UNL d   1      31.927  23.242 -20.214  0.00  0.00     0.026 A 
ATOM     12  C   UNL d   1      32.082  22.806 -20.896  0.00  0.00     0.020 A 
BRANCH  10  13
ATOM     13  O   UNL d   1      32.272  23.608 -18.873  0.00  0.00    -0.328 OA
ATOM     14  C   UNL d   1      32.708  23.469 -18.185  0.00  0.00     0.181 C 
ENDBRANCH  10  13
ENDBRANCH   1   7
BRANCH   3  15
ATOM     15  C   UNL d   1      33.019  19.726 -22.470  0.00  0.00     0.212 C 
ATOM     16  O   UNL d   1      32.977  19.105 -21.805  0.00  0.00    -0.644 OA
ATOM     17  O   UNL d   1      33.074  19.457 -23.338  0.00  0.00    -0.644 OA
ENDBRANCH   3  15
TORSDOF 3
ENDMDL
MODEL 5
REMARK VINA RESULT:      -1.4      1.508      4.057
REMARK  3 active torsions:
REMARK  status: ('A' for Active; 'I' for Inactive)
REMARK    1  A    between atoms: C_7  and  N_1 
REMARK    2  A    between atoms: C_6  and  C_3 
REMARK    3  A    between atoms: O_16  and  C_13 
ROOT
ATOM      1  N   UNL d   1      32.542  18.381 -23.714  0.00  0.00    -0.273 N 
ATOM      2  C   UNL d   1      32.804  18.486 -24.490  0.00  0.00     0.265 A 
ATOM      3  C   UNL d   1      31.929  17.144 -24.088  0.00  0.00     0.087 A 
ATOM      4  C   UNL d   1      32.105  17.710 -23.513  0.00  0.00     0.089 A 
ATOM      5  C   UNL d   1      32.628  17.920 -25.065  0.00  0.00     0.069 A 
ATOM      6  O   UNL d   1      33.241  19.157 -24.691  0.00  0.00    -0.267 OA
ENDROOT
BRANCH   1   7
ATOM      7  C   UNL d   1      32.717  18.946 -23.139  0.00  0.00     0.067 A 
ATOM      8  C   UNL d   1      32.543  19.738 -23.279  0.00  0.00     0.020 A 
ATOM      9  C   UNL d   1      32.716  20.297 -22.712  0.00  0.00     0.026 A 
ATOM     10  C   UNL d   1      33.067  20.074 -21.993  0.00  0.00     0.094 A 
ATOM     11  C   UNL d   1      33.241  19.278 -21.857  0.00  0.00     0.026 A 
ATOM     12  C   UNL d   1      33.066  18.713 -22.431  0.00  0.00     0.020 A 
BRANCH  10  13
ATOM     13  O   UNL d   1      33.241  20.643 -21.422  0.00  0.00    -0.328 OA
ATOM     14  C   UNL d   1      32.632  21.028 -21.018  0.00  0.00     0.181 C 
ENDBRANCH  10  13
ENDBRANCH   1   7
BRANCH   3  15
ATOM     15  C   UNL d   1      31.481  16.360 -24.094  0.00  0.00     0.212 C 
ATOM     16  O   UNL d   1      31.940  15.574 -24.080  0.00  0.00    -0.644 OA
ATOM     17  O   UNL d   1      30.570  16.352 -24.113  0.00  0.00    -0.644 OA
ENDBRANCH   3  15
TORSDOF 3
ENDMDL
MODEL 6
REMARK VINA RESULT:      -1.3      1.952      3.947
REMARK  3 active torsions:
REMARK  status: ('A' for Active; 'I' for Inactive)
REMARK    1  A    between atoms: C_7  and  N_1 
REMARK    2  A    between atoms: C_6  and  C_3 
REMARK    3  A    between atoms: O_16  and  C_13 
ROOT
ATOM      1  N   UNL d   1      29.652  16.634 -24.278  0.00  0.00    -0.273 N 
ATOM      2  C   UNL d   1      29.433  17.353 -24.619  0.00  0.00     0.265 A 
ATOM      3  C   UNL d   1      28.332  16.484 -23.748  0.00  0.00     0.087 A 
ATOM      4  C   UNL d   1      29.101  16.200 -23.842  0.00  0.00     0.089 A 
ATOM      5  C   UNL d   1      28.664  17.637 -24.525  0.00  0.00     0.069 A 
ATOM      6  O   UNL d   1      29.984  17.787 -25.055  0.00  0.00    -0.267 OA
ENDROOT
BRANCH   1   7
ATOM      7  C   UNL d   1      30.421  16.349 -24.371  0.00  0.00     0.067 A 
ATOM      8  C   UNL d   1      30.597  15.852 -25.003  0.00  0.00     0.020 A 
ATOM      9  C   UNL d   1      31.357  15.571 -25.096  0.00  0.00     0.026 A 
ATOM     10  C   UNL d   1      31.953  15.782 -24.558  0.00  0.00     0.094 A 
ATOM     11  C   UNL d   1      31.772  16.281 -23.926  0.00  0.00     0.026 A 
ATOM     12  C   UNL d   1      31.004  16.565 -23.832  0.00  0.00     0.020 A 
BRANCH  10  13
ATOM     13  O   UNL d   1      32.721  15.495 -24.656  0.00  0.00    -0.328 OA
ATOM     14  C   UNL d   1      33.241  15.468 -24.016  0.00  0.00     0.181 C 
ENDBRANCH  10  13
ENDBRANCH   1   7
BRANCH   3  15
ATOM     15  C   UNL d   1      27.590  16.186 -23.327  0.00  0.00     0.212 C 
ATOM     16  O   UNL d   1      27.113  15.496 -23.681  0.00  0.00    -0.644 OA
ATOM     17  O   UNL d   1      27.316  16.574 -22.550  0.00  0.00    -0.644 OA
ENDBRANCH   3  15
TORSDOF 3
ENDMDL
MODEL 7
REMARK VINA RESULT:      -1.2      2.399      4.879
REMARK  3 active torsions:
REMARK  status: ('A' for Active; 'I' for Inactive)
REMARK    1  A    between atoms: C_7  and  N_1 
REMARK    2  A    between atoms: C_6  and  C_3 
REMARK    3  A    between atoms: O_16  and  C_13 
ROOT
ATOM      1  N   UNL d   1      32.828  19.754 -22.800  0.00  0.00    -0.273 N 
ATOM      2  C   UNL d   1      33.048  20.072 -23.530  0.00  0.00     0.265 A 
ATOM      3  C   UNL d   1      32.664  18.470 -23.408  0.00  0.00     0.087 A 
ATOM      4  C   UNL d   1      32.636  18.953 -22.740  0.00  0.00     0.089 A 
ATOM      5  C   UNL d   1      33.076  19.589 -24.198  0.00  0.00     0.069 A 
ATOM      6  O   UNL d   1      33.240  20.872 -23.590  0.00  0.00    -0.267 OA
ENDROOT
BRANCH   1   7
ATOM      7  C   UNL d   1      32.800  20.236 -22.131  0.00  0.00     0.067 A 
ATOM      8  C   UNL d   1      33.240  20.036 -21.465  0.00  0.00     0.020 A 
ATOM      9  C   UNL d   1      33.212  20.512 -20.804  0.00  0.00     0.026 A 
ATOM     10  C   UNL d   1      32.745  21.198 -20.798  0.00  0.00     0.094 A 
ATOM     11  C   UNL d   1      32.305  21.396 -21.469  0.00  0.00     0.026 A 
ATOM     12  C   UNL d   1      32.333  20.914 -22.136  0.00  0.00     0.020 A 
BRANCH  10  13
ATOM     13  O   UNL d   1      32.720  21.678 -20.127  0.00  0.00    -0.328 OA
ATOM     14  C   UNL d   1      32.286  22.380 -20.132  0.00  0.00     0.181 C 
ENDBRANCH  10  13
ENDBRANCH   1   7
BRANCH   3  15
ATOM     15  C   UNL d   1      32.501  17.597 -23.571  0.00  0.00     0.212 C 
ATOM     16  O   UNL d   1      32.990  16.957 -23.145  0.00  0.00    -0.644 OA
ATOM     17  O   UNL d   1      31.850  17.352 -24.158  0.00  0.00    -0.644 OA
ENDBRANCH   3  15
TORSDOF 3
ENDMDL
MODEL 8
REMARK VINA RESULT:      -1.2      3.912      5.882
REMARK  3 active torsions:
REMARK  status: ('A' for Active; 'I' for Inactive)
REMARK    1  A    between atoms: C_7  and  N_1 
REMARK    2  A    between atoms: C_6  and  C_3 
REMARK    3  A    between atoms: O_16  and  C_13 
ROOT
ATOM      1  N   UNL d   1      32.661  21.972 -21.054  0.00  0.00    -0.273 N 
ATOM      2  C   UNL d   1      32.239  22.622 -21.340  0.00  0.00     0.265 A 
ATOM      3  C   UNL d   1      32.811  22.626 -19.791  0.00  0.00     0.087 A 
ATOM      4  C   UNL d   1      32.947  21.975 -20.279  0.00  0.00     0.089 A 
ATOM      5  C   UNL d   1      32.103  23.273 -20.852  0.00  0.00     0.069 A 
ATOM      6  O   UNL d   1      31.954  22.619 -22.115  0.00  0.00    -0.267 OA
ENDROOT
BRANCH   1   7
ATOM      7  C   UNL d   1      32.797  21.321 -21.542  0.00  0.00     0.067 A 
ATOM      8  C   UNL d   1      32.624  20.564 -21.269  0.00  0.00     0.020 A 
ATOM      9  C   UNL d   1      32.758  19.920 -21.751  0.00  0.00     0.026 A 
ATOM     10  C   UNL d   1      33.068  20.022 -22.514  0.00  0.00     0.094 A 
ATOM     11  C   UNL d   1      33.241  20.784 -22.784  0.00  0.00     0.026 A 
ATOM     12  C   UNL d   1      33.105  21.434 -22.297  0.00  0.00     0.020 A 
BRANCH  10  13
ATOM     13  O   UNL d   1      33.203  19.368 -22.998  0.00  0.00    -0.328 OA
ATOM     14  C   UNL d   1      32.998  18.610 -22.742  0.00  0.00     0.181 C 
ENDBRANCH  10  13
ENDBRANCH   1   7
BRANCH   3  15
ATOM     15  C   UNL d   1      33.023  22.839 -18.939  0.00  0.00     0.212 C 
ATOM     16  O   UNL d   1      33.213  23.702 -18.720  0.00  0.00    -0.644 OA
ATOM     17  O   UNL d   1      33.048  22.194 -18.297  0.00  0.00    -0.644 OA
ENDBRANCH   3  15
TORSDOF 3
ENDMDL
MODEL 9
REMARK VINA RESULT:      -1.1      2.684      4.285
REMARK  3 active torsions:
REMARK  status: ('A' for Active; 'I' for Inactive)
REMARK    1  A    between atoms: C_7  and  N_1 
REMARK    2  A    between atoms: C_6  and  C_3 
REMARK    3  A    between atoms: O_16  and  C_13 
ROOT
ATOM      1  N   UNL d   1      32.873  20.615 -22.312  0.00  0.00    -0.273 N 
ATOM      2  C   UNL d   1      33.054  21.180 -22.886  0.00  0.00     0.265 A 
ATOM      3  C   UNL d   1      32.686  21.655 -21.349  0.00  0.00     0.087 A 
ATOM      4  C   UNL d   1      32.689  20.853 -21.543  0.00  0.00     0.089 A 
ATOM      5  C   UNL d   1      33.051  21.981 -22.692  0.00  0.00     0.069 A 
ATOM      6  O   UNL d   1      33.238  20.941 -23.655  0.00  0.00    -0.267 OA
ENDROOT
BRANCH   1   7
ATOM      7  C   UNL d   1      32.876  19.813 -22.506  0.00  0.00     0.067 A 
ATOM      8  C   UNL d   1      32.530  19.562 -23.209  0.00  0.00     0.020 A 
ATOM      9  C   UNL d   1      32.533  18.770 -23.401  0.00  0.00     0.026 A 
ATOM     10  C   UNL d   1      32.882  18.214 -22.893  0.00  0.00     0.094 A 
ATOM     11  C   UNL d   1      33.228  18.470 -22.188  0.00  0.00     0.026 A 
ATOM     12  C   UNL d   1      33.225  19.271 -21.994  0.00  0.00     0.020 A 
BRANCH  10  13
ATOM     13  O   UNL d   1      32.883  17.413 -23.091  0.00  0.00    -0.328 OA
ATOM     14  C   UNL d   1      32.921  17.179 -23.882  0.00  0.00     0.181 C 
ENDBRANCH  10  13
ENDBRANCH   1   7
BRANCH   3  15
ATOM     15  C   UNL d   1      32.520  22.128 -20.597  0.00  0.00     0.212 C 
ATOM     16  O   UNL d   1      31.785  22.663 -20.550  0.00  0.00    -0.644 OA
ATOM     17  O   UNL d   1      33.085  22.072 -19.885  0.00  0.00    -0.644 OA
ENDBRANCH   3  15
TORSDOF 3
ENDMDL
