MODEL 1
REMARK VINA RESULT:      -3.7      0.000      0.000
REMARK  4 active torsions:
REMARK  status: ('A' for Active; 'I' for Inactive)
REMARK    1  A    between atoms: C_2  and  N_1 
REMARK    2  A    between atoms: C_6  and  C_2 
REMARK    3  A    between atoms: C_7  and  C_2 
REMARK    4  A    between atoms: C_9  and  C_6 
ROOT
ATOM      1  C   UNL d   1      59.911  -9.067  34.488  0.00  0.00     0.153 C 
ENDROOT
BRANCH   1   2
ATOM      2  N   UNL d   1      59.706  -8.573  35.118  0.00  0.00    -0.224 N 
ATOM      3  N   UNL d   1      59.720  -7.760  35.132  0.00  0.00    -0.165 NA
ATOM      4  C   UNL d   1      59.473  -7.505  35.869  0.00  0.00     0.103 A 
ATOM      5  C   UNL d   1      59.404  -6.691  36.125  0.00  0.00     0.022 C 
ATOM      6  C   UNL d   1      59.302  -8.168  36.329  0.00  0.00     0.040 A 
ATOM      7  C   UNL d   1      59.444  -8.819  35.870  0.00  0.00     0.085 A 
ATOM      8  C   UNL d   1      59.339  -9.614  36.127  0.00  0.00     0.021 C 
ENDBRANCH   1   2
BRANCH   1   9
ATOM      9  C   UNL d   1      59.331  -9.526  34.107  0.00  0.00     0.096 C 
BRANCH   9  10
ATOM     10  C   UNL d   1      59.166  -9.391  33.314  0.00  0.00     0.213 C 
ATOM     11  O   UNL d   1      59.686  -9.625  32.717  0.00  0.00    -0.644 OA
ATOM     12  O   UNL d   1      58.468  -9.012  33.066  0.00  0.00    -0.644 OA
ENDBRANCH   9  10
ENDBRANCH   1   9
BRANCH   1  13
ATOM     13  C   UNL d   1      60.688  -9.108  34.236  0.00  0.00     0.230 C 
ATOM     14  O   UNL d   1      61.038  -8.442  33.887  0.00  0.00    -0.643 OA
ATOM     15  O   UNL d   1      61.130  -9.807  34.325  0.00  0.00    -0.643 OA
ENDBRANCH   1  13
TORSDOF 4
ENDMDL
MODEL 2
REMARK VINA RESULT:      -3.5      8.703      9.683
REMARK  4 active torsions:
REMARK  status: ('A' for Active; 'I' for Inactive)
REMARK    1  A    between atoms: C_2  and  N_1 
REMARK    2  A    between atoms: C_6  and  C_2 
REMARK    3  A    between atoms: C_7  and  C_2 
REMARK    4  A    between atoms: C_9  and  C_6 
ROOT
ATOM      1  C   UNL d   1      56.331  -0.324  32.862  0.00  0.00     0.153 C 
ENDROOT
BRANCH   1   2
ATOM      2  N   UNL d   1      55.848   0.032  33.430  0.00  0.00    -0.224 N 
ATOM      3  N   UNL d   1      55.038   0.098  33.417  0.00  0.00    -0.165 NA
ATOM      4  C   UNL d   1      54.794   0.491  34.091  0.00  0.00     0.103 A 
ATOM      5  C   UNL d   1      53.986   0.680  34.303  0.00  0.00     0.022 C 
ATOM      6  C   UNL d   1      55.462   0.678  34.538  0.00  0.00     0.040 A 
ATOM      7  C   UNL d   1      56.104   0.397  34.133  0.00  0.00     0.085 A 
ATOM      8  C   UNL d   1      56.901   0.471  34.396  0.00  0.00     0.021 C 
ENDBRANCH   1   2
BRANCH   1   9
ATOM      9  C   UNL d   1      56.917   0.117  32.471  0.00  0.00     0.096 C 
BRANCH   9  10
ATOM     10  C   UNL d   1      56.923   0.145  31.650  0.00  0.00     0.213 C 
ATOM     11  O   UNL d   1      56.439   0.666  31.231  0.00  0.00    -0.644 OA
ATOM     12  O   UNL d   1      57.413  -0.349  31.195  0.00  0.00    -0.644 OA
ENDBRANCH   9  10
ENDBRANCH   1   9
BRANCH   1  13
ATOM     13  C   UNL d   1      56.234  -1.116  32.682  0.00  0.00     0.230 C 
ATOM     14  O   UNL d   1      55.548  -1.364  32.288  0.00  0.00    -0.643 OA
ATOM     15  O   UNL d   1      56.815  -1.675  32.889  0.00  0.00    -0.643 OA
ENDBRANCH   1  13
TORSDOF 4
ENDMDL
MODEL 3
REMARK VINA RESULT:      -3.4      8.867      9.921
REMARK  4 active torsions:
REMARK  status: ('A' for Active; 'I' for Inactive)
REMARK    1  A    between atoms: C_2  and  N_1 
REMARK    2  A    between atoms: C_6  and  C_2 
REMARK    3  A    between atoms: C_7  and  C_2 
REMARK    4  A    between atoms: C_9  and  C_6 
ROOT
ATOM      1  C   UNL d   1      56.407  -0.116  32.958  0.00  0.00     0.153 C 
ENDROOT
BRANCH   1   2
ATOM      2  N   UNL d   1      56.928   0.144  32.372  0.00  0.00    -0.224 N 
ATOM      3  N   UNL d   1      56.828   0.096  31.566  0.00  0.00    -0.165 NA
ATOM      4  C   UNL d   1      57.482   0.422  31.200  0.00  0.00     0.103 A 
ATOM      5  C   UNL d   1      57.608   0.487  30.354  0.00  0.00     0.022 C 
ATOM      6  C   UNL d   1      58.005   0.680  31.782  0.00  0.00     0.040 A 
ATOM      7  C   UNL d   1      57.666   0.510  32.498  0.00  0.00     0.085 A 
ATOM      8  C   UNL d   1      58.017   0.682  33.243  0.00  0.00     0.021 C 
ENDBRANCH   1   2
BRANCH   1   9
ATOM      9  C   UNL d   1      56.152   0.403  33.556  0.00  0.00     0.096 C 
BRANCH   9  10
ATOM     10  C   UNL d   1      55.386   0.344  33.844  0.00  0.00     0.213 C 
ATOM     11  O   UNL d   1      54.743   0.659  33.433  0.00  0.00    -0.644 OA
ATOM     12  O   UNL d   1      55.212  -0.036  34.563  0.00  0.00    -0.644 OA
ENDBRANCH   9  10
ENDBRANCH   1   9
BRANCH   1  13
ATOM     13  C   UNL d   1      56.137  -0.888  32.952  0.00  0.00     0.230 C 
ATOM     14  O   UNL d   1      56.551  -1.468  33.377  0.00  0.00    -0.643 OA
ATOM     15  O   UNL d   1      55.455  -1.099  32.526  0.00  0.00    -0.643 OA
ENDBRANCH   1  13
TORSDOF 4
ENDMDL
MODEL 4
REMARK VINA RESULT:      -3.2      1.630      2.792
REMARK  4 active torsions:
REMARK  status: ('A' for Active; 'I' for Inactive)
REMARK    1  A    between atoms: C_2  and  N_1 
REMARK    2  A    between atoms: C_6  and  C_2 
REMARK    3  A    between atoms: C_7  and  C_2 
REMARK    4  A    between atoms: C_9  and  C_6 
ROOT
ATOM      1  C   UNL d   1      59.775  -8.797  35.031  0.00  0.00     0.153 C 
ENDROOT
BRANCH   1   2
ATOM      2  N   UNL d   1      59.938  -9.097  34.279  0.00  0.00    -0.224 N 
ATOM      3  N   UNL d   1      60.628  -9.020  33.855  0.00  0.00    -0.165 NA
ATOM      4  C   UNL d   1      60.542  -9.405  33.139  0.00  0.00     0.103 A 
ATOM      5  C   UNL d   1      61.133  -9.462  32.522  0.00  0.00     0.022 C 
ATOM      6  C   UNL d   1      59.785  -9.731  33.108  0.00  0.00     0.040 A 
ATOM      7  C   UNL d   1      59.417  -9.543  33.805  0.00  0.00     0.085 A 
ATOM      8  C   UNL d   1      58.631  -9.770  34.003  0.00  0.00     0.021 C 
ENDBRANCH   1   2
BRANCH   1   9
ATOM      9  C   UNL d   1      59.304  -8.118  35.121  0.00  0.00     0.096 C 
BRANCH   9  10
ATOM     10  C   UNL d   1      59.579  -7.493  35.577  0.00  0.00     0.213 C 
ATOM     11  O   UNL d   1      60.182  -6.995  35.312  0.00  0.00    -0.644 OA
ATOM     12  O   UNL d   1      59.268  -7.324  36.330  0.00  0.00    -0.644 OA
ENDBRANCH   9  10
ENDBRANCH   1   9
BRANCH   1  13
ATOM     13  C   UNL d   1      60.077  -9.169  35.694  0.00  0.00     0.230 C 
ATOM     14  O   UNL d   1      60.882  -9.084  35.878  0.00  0.00    -0.643 OA
ATOM     15  O   UNL d   1      59.589  -9.631  36.185  0.00  0.00    -0.643 OA
ENDBRANCH   1  13
TORSDOF 4
ENDMDL
MODEL 5
REMARK VINA RESULT:      -2.9      9.076      9.910
REMARK  4 active torsions:
REMARK  status: ('A' for Active; 'I' for Inactive)
REMARK    1  A    between atoms: C_2  and  N_1 
REMARK    2  A    between atoms: C_6  and  C_2 
REMARK    3  A    between atoms: C_7  and  C_2 
REMARK    4  A    between atoms: C_9  and  C_6 
ROOT
ATOM      1  C   UNL d   1      58.630  -0.362  29.573  0.00  0.00     0.153 C 
ENDROOT
BRANCH   1   2
ATOM      2  N   UNL d   1      58.294  -0.026  30.250  0.00  0.00    -0.224 N 
ATOM      3  N   UNL d   1      57.521  -0.082  30.497  0.00  0.00    -0.165 NA
ATOM      4  C   UNL d   1      57.437   0.336  31.194  0.00  0.00     0.103 A 
ATOM      5  C   UNL d   1      56.714   0.424  31.647  0.00  0.00     0.022 C 
ATOM      6  C   UNL d   1      58.168   0.662  31.393  0.00  0.00     0.040 A 
ATOM      7  C   UNL d   1      58.691   0.440  30.815  0.00  0.00     0.085 A 
ATOM      8  C   UNL d   1      59.504   0.655  30.803  0.00  0.00     0.021 C 
ENDBRANCH   1   2
BRANCH   1   9
ATOM      9  C   UNL d   1      59.074  -1.062  29.626  0.00  0.00     0.096 C 
BRANCH   9  10
ATOM     10  C   UNL d   1      58.809  -1.739  29.245  0.00  0.00     0.213 C 
ATOM     11  O   UNL d   1      58.287  -2.266  29.610  0.00  0.00    -0.644 OA
ATOM     12  O   UNL d   1      59.048  -1.934  28.473  0.00  0.00    -0.644 OA
ENDBRANCH   9  10
ENDBRANCH   1   9
BRANCH   1  13
ATOM     13  C   UNL d   1      58.526  -0.004  28.845  0.00  0.00     0.230 C 
ATOM     14  O   UNL d   1      59.178   0.336  28.461  0.00  0.00    -0.643 OA
ATOM     15  O   UNL d   1      57.776   0.024  28.486  0.00  0.00    -0.643 OA
ENDBRANCH   1  13
TORSDOF 4
ENDMDL
MODEL 6
REMARK VINA RESULT:      -2.7      8.627      9.779
REMARK  4 active torsions:
REMARK  status: ('A' for Active; 'I' for Inactive)
REMARK    1  A    between atoms: C_2  and  N_1 
REMARK    2  A    between atoms: C_6  and  C_2 
REMARK    3  A    between atoms: C_7  and  C_2 
REMARK    4  A    between atoms: C_9  and  C_6 
ROOT
ATOM      1  C   UNL d   1      56.406  -0.108  32.987  0.00  0.00     0.153 C 
ENDROOT
BRANCH   1   2
ATOM      2  N   UNL d   1      56.921   0.173  32.405  0.00  0.00    -0.224 N 
ATOM      3  N   UNL d   1      56.781   0.223  31.605  0.00  0.00    -0.165 NA
ATOM      4  C   UNL d   1      57.444   0.534  31.241  0.00  0.00     0.103 A 
ATOM      5  C   UNL d   1      57.537   0.682  30.402  0.00  0.00     0.022 C 
ATOM      6  C   UNL d   1      58.013   0.682  31.819  0.00  0.00     0.040 A 
ATOM      7  C   UNL d   1      57.692   0.461  32.529  0.00  0.00     0.085 A 
ATOM      8  C   UNL d   1      58.090   0.520  33.269  0.00  0.00     0.021 C 
ENDBRANCH   1   2
BRANCH   1   9
ATOM      9  C   UNL d   1      56.467  -0.890  33.262  0.00  0.00     0.096 C 
BRANCH   9  10
ATOM     10  C   UNL d   1      55.897  -1.440  33.045  0.00  0.00     0.213 C 
ATOM     11  O   UNL d   1      55.239  -1.593  33.520  0.00  0.00    -0.644 OA
ATOM     12  O   UNL d   1      55.949  -1.875  32.338  0.00  0.00    -0.644 OA
ENDBRANCH   9  10
ENDBRANCH   1   9
BRANCH   1  13
ATOM     13  C   UNL d   1      55.832   0.385  33.297  0.00  0.00     0.230 C 
ATOM     14  O   UNL d   1      55.199   0.625  32.818  0.00  0.00    -0.643 OA
ATOM     15  O   UNL d   1      55.875   0.648  34.085  0.00  0.00    -0.643 OA
ENDBRANCH   1  13
TORSDOF 4
ENDMDL
MODEL 7
REMARK VINA RESULT:      -2.6      9.036      9.890
REMARK  4 active torsions:
REMARK  status: ('A' for Active; 'I' for Inactive)
REMARK    1  A    between atoms: C_2  and  N_1 
REMARK    2  A    between atoms: C_6  and  C_2 
REMARK    3  A    between atoms: C_7  and  C_2 
REMARK    4  A    between atoms: C_9  and  C_6 
ROOT
ATOM      1  C   UNL d   1      58.734  -0.524  29.439  0.00  0.00     0.153 C 
ENDROOT
BRANCH   1   2
ATOM      2  N   UNL d   1      59.005  -1.274  29.221  0.00  0.00    -0.224 N 
ATOM      3  N   UNL d   1      58.557  -1.916  29.000  0.00  0.00    -0.165 NA
ATOM      4  C   UNL d   1      59.057  -2.541  28.832  0.00  0.00     0.103 A 
ATOM      5  C   UNL d   1      58.819  -3.324  28.578  0.00  0.00     0.022 C 
ATOM      6  C   UNL d   1      59.834  -2.291  28.948  0.00  0.00     0.040 A 
ATOM      7  C   UNL d   1      59.801  -1.517  29.186  0.00  0.00     0.085 A 
ATOM      8  C   UNL d   1      60.476  -1.046  29.365  0.00  0.00     0.021 C 
ENDBRANCH   1   2
BRANCH   1   9
ATOM      9  C   UNL d   1      58.668  -0.317  30.241  0.00  0.00     0.096 C 
BRANCH   9  10
ATOM     10  C   UNL d   1      57.932  -0.126  30.550  0.00  0.00     0.213 C 
ATOM     11  O   UNL d   1      57.391  -0.709  30.774  0.00  0.00    -0.644 OA
ATOM     12  O   UNL d   1      57.688   0.662  30.657  0.00  0.00    -0.644 OA
ENDBRANCH   9  10
ENDBRANCH   1   9
BRANCH   1  13
ATOM     13  C   UNL d   1      58.529   0.019  28.863  0.00  0.00     0.230 C 
ATOM     14  O   UNL d   1      59.049   0.640  28.684  0.00  0.00    -0.643 OA
ATOM     15  O   UNL d   1      57.806  -0.043  28.455  0.00  0.00    -0.643 OA
ENDBRANCH   1  13
TORSDOF 4
ENDMDL
MODEL 8
REMARK VINA RESULT:      -2.4      9.147      9.849
REMARK  4 active torsions:
REMARK  status: ('A' for Active; 'I' for Inactive)
REMARK    1  A    between atoms: C_2  and  N_1 
REMARK    2  A    between atoms: C_6  and  C_2 
REMARK    3  A    between atoms: C_7  and  C_2 
REMARK    4  A    between atoms: C_9  and  C_6 
ROOT
ATOM      1  C   UNL d   1      59.147  -0.741  29.124  0.00  0.00     0.153 C 
ENDROOT
BRANCH   1   2
ATOM      2  N   UNL d   1      58.623  -0.269  29.554  0.00  0.00    -0.224 N 
ATOM      3  N   UNL d   1      58.447  -0.322  30.347  0.00  0.00    -0.165 NA
ATOM      4  C   UNL d   1      57.900   0.256  30.534  0.00  0.00     0.103 A 
ATOM      5  C   UNL d   1      57.561   0.399  31.308  0.00  0.00     0.022 C 
ATOM      6  C   UNL d   1      57.725   0.681  29.850  0.00  0.00     0.040 A 
ATOM      7  C   UNL d   1      58.167   0.360  29.252  0.00  0.00     0.085 A 
ATOM      8  C   UNL d   1      58.157   0.630  28.455  0.00  0.00     0.021 C 
ENDBRANCH   1   2
BRANCH   1   9
ATOM      9  C   UNL d   1      58.863  -1.362  28.650  0.00  0.00     0.096 C 
BRANCH   9  10
ATOM     10  C   UNL d   1      59.068  -2.136  28.832  0.00  0.00     0.213 C 
ATOM     11  O   UNL d   1      59.757  -2.483  28.538  0.00  0.00    -0.644 OA
ATOM     12  O   UNL d   1      58.594  -2.615  29.321  0.00  0.00    -0.644 OA
ENDBRANCH   9  10
ENDBRANCH   1   9
BRANCH   1  13
ATOM     13  C   UNL d   1      59.951  -0.599  29.164  0.00  0.00     0.230 C 
ATOM     14  O   UNL d   1      60.341  -0.273  28.508  0.00  0.00    -0.643 OA
ATOM     15  O   UNL d   1      60.383  -0.776  29.853  0.00  0.00    -0.643 OA
ENDBRANCH   1  13
TORSDOF 4
ENDMDL
MODEL 9
REMARK VINA RESULT:      -1.1      9.310     10.225
REMARK  4 active torsions:
REMARK  status: ('A' for Active; 'I' for Inactive)
REMARK    1  A    between atoms: C_2  and  N_1 
REMARK    2  A    between atoms: C_6  and  C_2 
REMARK    3  A    between atoms: C_7  and  C_2 
REMARK    4  A    between atoms: C_9  and  C_6 
ROOT
ATOM      1  C   UNL d   1      58.294  -0.349  29.954  0.00  0.00     0.153 C 
ENDROOT
BRANCH   1   2
ATOM      2  N   UNL d   1      58.985  -0.068  29.600  0.00  0.00    -0.224 N 
ATOM      3  N   UNL d   1      59.751  -0.193  29.844  0.00  0.00    -0.165 NA
ATOM      4  C   UNL d   1      60.258   0.189  29.329  0.00  0.00     0.103 A 
ATOM      5  C   UNL d   1      61.113   0.203  29.378  0.00  0.00     0.022 C 
ATOM      6  C   UNL d   1      59.806   0.562  28.748  0.00  0.00     0.040 A 
ATOM      7  C   UNL d   1      59.029   0.404  28.915  0.00  0.00     0.085 A 
ATOM      8  C   UNL d   1      58.380   0.682  28.457  0.00  0.00     0.021 C 
ENDBRANCH   1   2
BRANCH   1   9
ATOM      9  C   UNL d   1      57.747   0.179  30.291  0.00  0.00     0.096 C 
BRANCH   9  10
ATOM     10  C   UNL d   1      57.486   0.055  31.059  0.00  0.00     0.213 C 
ATOM     11  O   UNL d   1      57.894   0.359  31.710  0.00  0.00    -0.644 OA
ATOM     12  O   UNL d   1      56.799  -0.382  31.227  0.00  0.00    -0.644 OA
ENDBRANCH   9  10
ENDBRANCH   1   9
BRANCH   1  13
ATOM     13  C   UNL d   1      58.143  -1.153  29.974  0.00  0.00     0.230 C 
ATOM     14  O   UNL d   1      57.522  -1.463  29.519  0.00  0.00    -0.643 OA
ATOM     15  O   UNL d   1      58.603  -1.663  30.443  0.00  0.00    -0.643 OA
ENDBRANCH   1  13
TORSDOF 4
ENDMDL
