MODEL 1
REMARK VINA RESULT:      -9.0      0.000      0.000
REMARK  6 active torsions:
REMARK  status: ('A' for Active; 'I' for Inactive)
REMARK    1  A    between atoms: N_2  and  S_1 
REMARK    2  A    between atoms: C_6  and  S_1 
REMARK    3  A    between atoms: C_4  and  N_2 
REMARK    4  A    between atoms: C_5  and  C_3 
REMARK    5  A    between atoms: O_12  and  C_5 
REMARK    6  A    between atoms: C_18  and  O_12 
ROOT
ATOM      1  C   UNL d   1      53.710  32.139  53.583  0.00  0.00     0.082 A 
ATOM      2  C   UNL d   1      53.017  32.440  53.267  0.00  0.00     0.099 A 
ATOM      3  C   UNL d   1      53.821  31.322  53.625  0.00  0.00     0.007 A 
ATOM      4  C   UNL d   1      52.436  31.925  52.993  0.00  0.00     0.020 A 
ATOM      5  C   UNL d   1      53.238  30.811  53.351  0.00  0.00     0.000 A 
ATOM      6  C   UNL d   1      52.545  31.113  53.035  0.00  0.00     0.002 A 
ENDROOT
BRANCH   2   7
ATOM      7  N   UNL d   1      52.896  33.269  53.220  0.00  0.00    -0.158 NA
BRANCH   7   8
ATOM      8  S   UNL d   1      52.173  33.552  52.948  0.00  0.00     0.285 S 
ATOM      9  O   UNL d   1      51.890  33.611  53.745  0.00  0.00    -0.198 OA
ATOM     10  O   UNL d   1      52.424  33.504  52.167  0.00  0.00    -0.198 OA
BRANCH   8  11
ATOM     11  C   UNL d   1      51.431  33.842  52.692  0.00  0.00     0.105 A 
ATOM     12  C   UNL d   1      51.317  34.015  51.889  0.00  0.00     0.013 A 
ATOM     13  C   UNL d   1      50.584  34.301  51.636  0.00  0.00     0.001 A 
ATOM     14  C   UNL d   1      49.985  34.405  52.193  0.00  0.00     0.000 A 
ATOM     15  C   UNL d   1      50.091  34.235  52.990  0.00  0.00     0.001 A 
ATOM     16  C   UNL d   1      49.245  34.689  51.959  0.00  0.00     0.000 C 
ATOM     17  C   UNL d   1      50.824  33.949  53.243  0.00  0.00     0.013 A 
ENDBRANCH   8  11
ENDBRANCH   7   8
ENDBRANCH   2   7
BRANCH   1  18
ATOM     18  C   UNL d   1      54.315  32.671  53.867  0.00  0.00     0.302 C 
ATOM     19  O   UNL d   1      54.885  32.947  53.356  0.00  0.00    -0.259 OA
BRANCH  18  20
ATOM     20  O   UNL d   1      54.328  32.912  54.662  0.00  0.00    -0.271 OA
BRANCH  20  21
ATOM     21  C   UNL d   1      54.990  33.331  54.953  0.00  0.00     0.126 C 
ATOM     22  C   UNL d   1      54.953  33.699  55.680  0.00  0.00     0.029 C 
ENDBRANCH  20  21
ENDBRANCH  18  20
ENDBRANCH   1  18
TORSDOF 6
ENDMDL
MODEL 2
REMARK VINA RESULT:      -8.5      0.971      1.893
REMARK  6 active torsions:
REMARK  status: ('A' for Active; 'I' for Inactive)
REMARK    1  A    between atoms: N_2  and  S_1 
REMARK    2  A    between atoms: C_6  and  S_1 
REMARK    3  A    between atoms: C_4  and  N_2 
REMARK    4  A    between atoms: C_5  and  C_3 
REMARK    5  A    between atoms: O_12  and  C_5 
REMARK    6  A    between atoms: C_18  and  O_12 
ROOT
ATOM      1  C   UNL d   1      53.784  32.321  54.128  0.00  0.00     0.082 A 
ATOM      2  C   UNL d   1      53.238  32.855  53.833  0.00  0.00     0.099 A 
ATOM      3  C   UNL d   1      54.249  32.525  54.779  0.00  0.00     0.007 A 
ATOM      4  C   UNL d   1      53.156  33.594  54.189  0.00  0.00     0.020 A 
ATOM      5  C   UNL d   1      54.164  33.263  55.131  0.00  0.00     0.000 A 
ATOM      6  C   UNL d   1      53.618  33.797  54.836  0.00  0.00     0.002 A 
ENDROOT
BRANCH   2   7
ATOM      7  N   UNL d   1      52.761  32.656  53.171  0.00  0.00    -0.158 NA
BRANCH   7   8
ATOM      8  S   UNL d   1      52.109  33.124  52.994  0.00  0.00     0.285 S 
ATOM      9  O   UNL d   1      51.601  32.579  53.398  0.00  0.00    -0.198 OA
ATOM     10  O   UNL d   1      52.580  33.668  52.597  0.00  0.00    -0.198 OA
BRANCH   8  11
ATOM     11  C   UNL d   1      51.432  33.586  52.824  0.00  0.00     0.105 A 
ATOM     12  C   UNL d   1      51.416  34.046  52.134  0.00  0.00     0.013 A 
ATOM     13  C   UNL d   1      50.748  34.502  51.967  0.00  0.00     0.001 A 
ATOM     14  C   UNL d   1      50.114  34.486  52.494  0.00  0.00     0.000 A 
ATOM     15  C   UNL d   1      50.123  34.032  53.179  0.00  0.00     0.001 A 
ATOM     16  C   UNL d   1      49.436  34.935  52.344  0.00  0.00     0.000 C 
ATOM     17  C   UNL d   1      50.791  33.576  53.347  0.00  0.00     0.013 A 
ENDBRANCH   8  11
ENDBRANCH   7   8
ENDBRANCH   2   7
BRANCH   1  18
ATOM     18  C   UNL d   1      53.870  31.555  53.760  0.00  0.00     0.302 C 
ATOM     19  O   UNL d   1      54.331  31.475  53.092  0.00  0.00    -0.259 OA
BRANCH  18  20
ATOM     20  O   UNL d   1      53.490  30.888  54.075  0.00  0.00    -0.271 OA
BRANCH  20  21
ATOM     21  C   UNL d   1      53.685  30.128  53.785  0.00  0.00     0.126 C 
ATOM     22  C   UNL d   1      53.303  29.470  54.077  0.00  0.00     0.029 C 
ENDBRANCH  20  21
ENDBRANCH  18  20
ENDBRANCH   1  18
TORSDOF 6
ENDMDL
MODEL 3
REMARK VINA RESULT:      -8.5      1.277      4.073
REMARK  6 active torsions:
REMARK  status: ('A' for Active; 'I' for Inactive)
REMARK    1  A    between atoms: N_2  and  S_1 
REMARK    2  A    between atoms: C_6  and  S_1 
REMARK    3  A    between atoms: C_4  and  N_2 
REMARK    4  A    between atoms: C_5  and  C_3 
REMARK    5  A    between atoms: O_12  and  C_5 
REMARK    6  A    between atoms: C_18  and  O_12 
ROOT
ATOM      1  C   UNL d   1      52.115  34.161  53.001  0.00  0.00     0.082 A 
ATOM      2  C   UNL d   1      52.508  33.453  53.126  0.00  0.00     0.099 A 
ATOM      3  C   UNL d   1      52.313  34.825  53.449  0.00  0.00     0.007 A 
ATOM      4  C   UNL d   1      53.098  33.409  53.699  0.00  0.00     0.020 A 
ATOM      5  C   UNL d   1      52.903  34.777  54.020  0.00  0.00     0.000 A 
ATOM      6  C   UNL d   1      53.295  34.069  54.145  0.00  0.00     0.002 A 
ENDROOT
BRANCH   2   7
ATOM      7  N   UNL d   1      52.313  32.772  52.675  0.00  0.00    -0.158 NA
BRANCH   7   8
ATOM      8  S   UNL d   1      52.572  32.035  52.932  0.00  0.00     0.285 S 
ATOM      9  O   UNL d   1      51.845  31.921  53.353  0.00  0.00    -0.198 OA
ATOM     10  O   UNL d   1      53.284  32.122  52.532  0.00  0.00    -0.198 OA
BRANCH   8  11
ATOM     11  C   UNL d   1      52.816  31.283  53.204  0.00  0.00     0.105 A 
ATOM     12  C   UNL d   1      53.618  31.152  53.372  0.00  0.00     0.013 A 
ATOM     13  C   UNL d   1      53.860  30.409  53.641  0.00  0.00     0.001 A 
ATOM     14  C   UNL d   1      53.293  29.817  53.735  0.00  0.00     0.000 A 
ATOM     15  C   UNL d   1      52.497  29.940  53.570  0.00  0.00     0.001 A 
ATOM     16  C   UNL d   1      53.515  29.067  54.002  0.00  0.00     0.000 C 
ATOM     17  C   UNL d   1      52.255  30.683  53.301  0.00  0.00     0.013 A 
ENDBRANCH   8  11
ENDBRANCH   7   8
ENDBRANCH   2   7
BRANCH   1  18
ATOM     18  C   UNL d   1      51.503  34.208  52.407  0.00  0.00     0.302 C 
ATOM     19  O   UNL d   1      51.705  34.233  51.617  0.00  0.00    -0.259 OA
BRANCH  18  20
ATOM     20  O   UNL d   1      50.702  34.229  52.624  0.00  0.00    -0.271 OA
BRANCH  20  21
ATOM     21  C   UNL d   1      50.135  34.506  52.075  0.00  0.00     0.126 C 
ATOM     22  C   UNL d   1      49.353  34.571  52.295  0.00  0.00     0.029 C 
ENDBRANCH  20  21
ENDBRANCH  18  20
ENDBRANCH   1  18
TORSDOF 6
ENDMDL
MODEL 4
REMARK VINA RESULT:      -8.1      1.452      3.559
REMARK  6 active torsions:
REMARK  status: ('A' for Active; 'I' for Inactive)
REMARK    1  A    between atoms: N_2  and  S_1 
REMARK    2  A    between atoms: C_6  and  S_1 
REMARK    3  A    between atoms: C_4  and  N_2 
REMARK    4  A    between atoms: C_5  and  C_3 
REMARK    5  A    between atoms: O_12  and  C_5 
REMARK    6  A    between atoms: C_18  and  O_12 
ROOT
ATOM      1  C   UNL d   1      51.893  34.176  53.161  0.00  0.00     0.082 A 
ATOM      2  C   UNL d   1      52.032  33.372  53.085  0.00  0.00     0.099 A 
ATOM      3  C   UNL d   1      51.120  34.463  53.136  0.00  0.00     0.007 A 
ATOM      4  C   UNL d   1      51.398  32.856  52.983  0.00  0.00     0.020 A 
ATOM      5  C   UNL d   1      50.490  33.945  53.035  0.00  0.00     0.000 A 
ATOM      6  C   UNL d   1      50.629  33.141  52.958  0.00  0.00     0.002 A 
ENDROOT
BRANCH   2   7
ATOM      7  N   UNL d   1      52.815  33.071  53.109  0.00  0.00    -0.158 NA
BRANCH   7   8
ATOM      8  S   UNL d   1      52.930  32.267  53.240  0.00  0.00     0.285 S 
ATOM      9  O   UNL d   1      53.041  32.411  54.068  0.00  0.00    -0.198 OA
ATOM     10  O   UNL d   1      52.827  32.101  52.442  0.00  0.00    -0.198 OA
BRANCH   8  11
ATOM     11  C   UNL d   1      53.050  31.453  53.394  0.00  0.00     0.105 A 
ATOM     12  C   UNL d   1      52.831  30.895  52.821  0.00  0.00     0.013 A 
ATOM     13  C   UNL d   1      52.949  30.091  52.973  0.00  0.00     0.001 A 
ATOM     14  C   UNL d   1      53.283  29.868  53.694  0.00  0.00     0.000 A 
ATOM     15  C   UNL d   1      53.502  30.417  54.265  0.00  0.00     0.001 A 
ATOM     16  C   UNL d   1      53.409  29.070  53.864  0.00  0.00     0.000 C 
ATOM     17  C   UNL d   1      53.384  31.220  54.114  0.00  0.00     0.013 A 
ENDBRANCH   8  11
ENDBRANCH   7   8
ENDBRANCH   2   7
BRANCH   1  18
ATOM     18  C   UNL d   1      52.549  34.712  53.267  0.00  0.00     0.302 C 
ATOM     19  O   UNL d   1      52.978  34.961  52.619  0.00  0.00    -0.259 OA
BRANCH  18  20
ATOM     20  O   UNL d   1      52.757  34.986  54.023  0.00  0.00    -0.271 OA
BRANCH  20  21
ATOM     21  C   UNL d   1      53.193  35.695  54.098  0.00  0.00     0.126 C 
ATOM     22  C   UNL d   1      53.309  36.027  54.834  0.00  0.00     0.029 C 
ENDBRANCH  20  21
ENDBRANCH  18  20
ENDBRANCH   1  18
TORSDOF 6
ENDMDL
