MODEL 1
REMARK VINA RESULT:      -6.3      0.000      0.000
REMARK  8 active torsions:
REMARK  status: ('A' for Active; 'I' for Inactive)
REMARK    1  A    between atoms: C_7  and  N_1 
REMARK    2  A    between atoms: C_23  and  C_5 
REMARK    3  A    between atoms: C_22  and  C_6 
REMARK    4  A    between atoms: C_8  and  C_7 
REMARK       I    between atoms: N_10  and  C_8 
REMARK    5  A    between atoms: C_9  and  C_13 
REMARK    6  A    between atoms: O_19  and  C_9 
REMARK    7  A    between atoms: C_18  and  N_10 
REMARK    8  A    between atoms: C_24  and  O_19 
ROOT
ATOM      1  C   UNL d   1     -48.051  12.703  23.154  0.00  0.00     0.297 C 
ATOM      2  N   UNL d   1     -47.369  12.830  23.606  0.00  0.00    -0.207 NA
ATOM      3  O   UNL d   1     -47.983  12.447  22.373  0.00  0.00    -0.264 OA
ENDROOT
BRANCH   1   4
ATOM      4  C   UNL d   1     -48.792  12.829  23.473  0.00  0.00     0.148 C 
BRANCH   4   5
ATOM      5  N   UNL d   1     -49.345  13.287  23.068  0.00  0.00    -0.235 N 
ATOM      6  C   UNL d   1     -49.361  14.108  23.180  0.00  0.00     0.273 A 
ATOM      7  C   UNL d   1     -49.909  14.561  22.778  0.00  0.00     0.086 A 
ATOM      8  O   UNL d   1     -48.823  14.464  23.697  0.00  0.00    -0.266 OA
ATOM      9  S   UNL d   1     -50.446  14.217  22.264  0.00  0.00    -0.077 SA
ATOM     10  C   UNL d   1     -50.434  13.405  22.150  0.00  0.00     0.086 A 
ATOM     11  C   UNL d   1     -49.886  12.933  22.549  0.00  0.00     0.273 A 
ATOM     12  O   UNL d   1     -49.871  12.118  22.437  0.00  0.00    -0.266 OA
BRANCH   7  13
ATOM     13  C   UNL d   1     -49.924  15.385  22.891  0.00  0.00     0.011 C 
ATOM     14  C   UNL d   1     -50.606  15.750  23.180  0.00  0.00     0.001 C 
ENDBRANCH   7  13
BRANCH  10  15
ATOM     15  C   UNL d   1     -50.971  13.051  21.635  0.00  0.00     0.011 C 
ATOM     16  C   UNL d   1     -51.064  13.350  20.871  0.00  0.00     0.001 C 
ENDBRANCH  10  15
ENDBRANCH   4   5
ENDBRANCH   1   4
BRANCH   2  17
ATOM     17  C   UNL d   1     -46.622  12.701  23.275  0.00  0.00     0.085 A 
ATOM     18  C   UNL d   1     -46.275  13.278  22.799  0.00  0.00     0.019 A 
ATOM     19  C   UNL d   1     -45.533  13.135  22.478  0.00  0.00     0.007 A 
ATOM     20  C   UNL d   1     -45.136  12.434  22.623  0.00  0.00     0.064 A 
ATOM     21  C   UNL d   1     -45.486  11.858  23.099  0.00  0.00     0.007 A 
ATOM     22  C   UNL d   1     -46.233  11.988  23.429  0.00  0.00     0.019 A 
BRANCH  20  23
ATOM     23  C   UNL d   1     -44.388  12.299  22.294  0.00  0.00     0.300 C 
ATOM     24  O   UNL d   1     -43.965  11.623  22.506  0.00  0.00    -0.259 OA
BRANCH  23  25
ATOM     25  O   UNL d   1     -44.069  12.830  21.764  0.00  0.00    -0.271 OA
BRANCH  25  26
ATOM     26  C   UNL d   1     -43.373  12.661  21.362  0.00  0.00     0.126 C 
ATOM     27  C   UNL d   1     -42.881  13.257  21.105  0.00  0.00     0.029 C 
ENDBRANCH  25  26
ENDBRANCH  23  25
ENDBRANCH  20  23
ENDBRANCH   2  17
TORSDOF 8
ENDMDL
MODEL 2
REMARK VINA RESULT:      -6.3      0.087      1.542
REMARK  8 active torsions:
REMARK  status: ('A' for Active; 'I' for Inactive)
REMARK    1  A    between atoms: C_7  and  N_1 
REMARK    2  A    between atoms: C_23  and  C_5 
REMARK    3  A    between atoms: C_22  and  C_6 
REMARK    4  A    between atoms: C_8  and  C_7 
REMARK       I    between atoms: N_10  and  C_8 
REMARK    5  A    between atoms: C_9  and  C_13 
REMARK    6  A    between atoms: O_19  and  C_9 
REMARK    7  A    between atoms: C_18  and  N_10 
REMARK    8  A    between atoms: C_24  and  O_19 
ROOT
ATOM      1  C   UNL d   1     -48.026  12.729  23.171  0.00  0.00     0.297 C 
ATOM      2  N   UNL d   1     -47.335  12.910  23.590  0.00  0.00    -0.207 NA
ATOM      3  O   UNL d   1     -47.972  12.399  22.417  0.00  0.00    -0.264 OA
ENDROOT
BRANCH   1   4
ATOM      4  C   UNL d   1     -48.760  12.875  23.496  0.00  0.00     0.148 C 
BRANCH   4   5
ATOM      5  N   UNL d   1     -49.304  13.349  23.094  0.00  0.00    -0.235 N 
ATOM      6  C   UNL d   1     -49.858  12.999  22.587  0.00  0.00     0.273 A 
ATOM      7  C   UNL d   1     -50.396  13.468  22.189  0.00  0.00     0.086 A 
ATOM      8  O   UNL d   1     -49.864  12.178  22.485  0.00  0.00    -0.266 OA
ATOM      9  S   UNL d   1     -50.398  14.281  22.284  0.00  0.00    -0.077 SA
ATOM     10  C   UNL d   1     -49.851  14.631  22.785  0.00  0.00     0.086 A 
ATOM     11  C   UNL d   1     -49.300  14.172  23.194  0.00  0.00     0.273 A 
ATOM     12  O   UNL d   1     -48.751  14.520  23.698  0.00  0.00    -0.266 OA
BRANCH   7  13
ATOM     13  C   UNL d   1     -50.952  13.116  21.680  0.00  0.00     0.011 C 
ATOM     14  C   UNL d   1     -51.034  13.390  20.906  0.00  0.00     0.001 C 
ENDBRANCH   7  13
BRANCH  10  15
ATOM     15  C   UNL d   1     -49.846  15.450  22.886  0.00  0.00     0.011 C 
ATOM     16  C   UNL d   1     -50.451  15.814  23.313  0.00  0.00     0.001 C 
ENDBRANCH  10  15
ENDBRANCH   4   5
ENDBRANCH   1   4
BRANCH   2  17
ATOM     17  C   UNL d   1     -46.594  12.759  23.255  0.00  0.00     0.085 A 
ATOM     18  C   UNL d   1     -46.217  13.342  22.808  0.00  0.00     0.019 A 
ATOM     19  C   UNL d   1     -45.481  13.177  22.482  0.00  0.00     0.007 A 
ATOM     20  C   UNL d   1     -45.121  12.451  22.591  0.00  0.00     0.064 A 
ATOM     21  C   UNL d   1     -45.501  11.871  23.038  0.00  0.00     0.007 A 
ATOM     22  C   UNL d   1     -46.242  12.021  23.373  0.00  0.00     0.019 A 
BRANCH  20  23
ATOM     23  C   UNL d   1     -44.379  12.295  22.258  0.00  0.00     0.300 C 
ATOM     24  O   UNL d   1     -44.008  11.573  22.407  0.00  0.00    -0.259 OA
BRANCH  23  25
ATOM     25  O   UNL d   1     -44.017  12.849  21.783  0.00  0.00    -0.271 OA
BRANCH  25  26
ATOM     26  C   UNL d   1     -43.285  12.700  21.439  0.00  0.00     0.126 C 
ATOM     27  C   UNL d   1     -42.859  13.295  21.082  0.00  0.00     0.029 C 
ENDBRANCH  25  26
ENDBRANCH  23  25
ENDBRANCH  20  23
ENDBRANCH   2  17
TORSDOF 8
ENDMDL
MODEL 3
REMARK VINA RESULT:      -4.2      4.690      8.506
REMARK  8 active torsions:
REMARK  status: ('A' for Active; 'I' for Inactive)
REMARK    1  A    between atoms: C_7  and  N_1 
REMARK    2  A    between atoms: C_23  and  C_5 
REMARK    3  A    between atoms: C_22  and  C_6 
REMARK    4  A    between atoms: C_8  and  C_7 
REMARK       I    between atoms: N_10  and  C_8 
REMARK    5  A    between atoms: C_9  and  C_13 
REMARK    6  A    between atoms: O_19  and  C_9 
REMARK    7  A    between atoms: C_18  and  N_10 
REMARK    8  A    between atoms: C_24  and  O_19 
ROOT
ATOM      1  C   UNL d   1     -40.830  14.255  19.818  0.00  0.00     0.297 C 
ATOM      2  N   UNL d   1     -41.049  14.339  20.612  0.00  0.00    -0.207 NA
ATOM      3  O   UNL d   1     -41.281  13.778  19.318  0.00  0.00    -0.264 OA
ENDROOT
BRANCH   1   4
ATOM      4  C   UNL d   1     -40.173  14.639  19.523  0.00  0.00     0.148 C 
BRANCH   4   5
ATOM      5  N   UNL d   1     -40.038  14.664  18.710  0.00  0.00    -0.235 N 
ATOM      6  C   UNL d   1     -40.360  15.279  18.258  0.00  0.00     0.273 A 
ATOM      7  C   UNL d   1     -40.227  15.303  17.452  0.00  0.00     0.086 A 
ATOM      8  O   UNL d   1     -40.815  15.865  18.624  0.00  0.00    -0.266 OA
ATOM      9  S   UNL d   1     -39.778  14.727  17.082  0.00  0.00    -0.077 SA
ATOM     10  C   UNL d   1     -39.457  14.117  17.525  0.00  0.00     0.086 A 
ATOM     11  C   UNL d   1     -39.583  14.078  18.340  0.00  0.00     0.273 A 
ATOM     12  O   UNL d   1     -39.262  13.466  18.788  0.00  0.00    -0.266 OA
BRANCH   7  13
ATOM     13  C   UNL d   1     -40.551  15.922  17.000  0.00  0.00     0.011 C 
ATOM     14  C   UNL d   1     -41.247  15.801  16.575  0.00  0.00     0.001 C 
ENDBRANCH   7  13
BRANCH  10  15
ATOM     15  C   UNL d   1     -39.004  13.533  17.159  0.00  0.00     0.011 C 
ATOM     16  C   UNL d   1     -38.455  13.743  16.580  0.00  0.00     0.001 C 
ENDBRANCH  10  15
ENDBRANCH   4   5
ENDBRANCH   1   4
BRANCH   2  17
ATOM     17  C   UNL d   1     -41.715  13.947  20.904  0.00  0.00     0.085 A 
ATOM     18  C   UNL d   1     -41.672  13.146  21.096  0.00  0.00     0.019 A 
ATOM     19  C   UNL d   1     -42.344  12.771  21.385  0.00  0.00     0.007 A 
ATOM     20  C   UNL d   1     -43.048  13.176  21.483  0.00  0.00     0.064 A 
ATOM     21  C   UNL d   1     -43.087  13.977  21.290  0.00  0.00     0.007 A 
ATOM     22  C   UNL d   1     -42.420  14.369  20.998  0.00  0.00     0.019 A 
BRANCH  20  23
ATOM     23  C   UNL d   1     -43.719  12.788  21.775  0.00  0.00     0.300 C 
ATOM     24  O   UNL d   1     -43.652  12.017  22.060  0.00  0.00    -0.259 OA
BRANCH  23  25
ATOM     25  O   UNL d   1     -44.441  13.164  21.781  0.00  0.00    -0.271 OA
BRANCH  25  26
ATOM     26  C   UNL d   1     -45.065  12.877  22.233  0.00  0.00     0.126 C 
ATOM     27  C   UNL d   1     -45.828  13.133  22.108  0.00  0.00     0.029 C 
ENDBRANCH  25  26
ENDBRANCH  23  25
ENDBRANCH  20  23
ENDBRANCH   2  17
TORSDOF 8
ENDMDL
MODEL 4
REMARK VINA RESULT:      -3.8      7.575     10.098
REMARK  8 active torsions:
REMARK  status: ('A' for Active; 'I' for Inactive)
REMARK    1  A    between atoms: C_7  and  N_1 
REMARK    2  A    between atoms: C_23  and  C_5 
REMARK    3  A    between atoms: C_22  and  C_6 
REMARK    4  A    between atoms: C_8  and  C_7 
REMARK       I    between atoms: N_10  and  C_8 
REMARK    5  A    between atoms: C_9  and  C_13 
REMARK    6  A    between atoms: O_19  and  C_9 
REMARK    7  A    between atoms: C_18  and  N_10 
REMARK    8  A    between atoms: C_24  and  O_19 
ROOT
ATOM      1  C   UNL d   1     -39.071  15.241  18.525  0.00  0.00     0.297 C 
ATOM      2  N   UNL d   1     -38.631  15.481  17.866  0.00  0.00    -0.207 NA
ATOM      3  O   UNL d   1     -39.374  14.475  18.558  0.00  0.00    -0.264 OA
ENDROOT
BRANCH   1   4
ATOM      4  C   UNL d   1     -39.207  15.755  19.145  0.00  0.00     0.148 C 
BRANCH   4   5
ATOM      5  N   UNL d   1     -39.637  15.505  19.803  0.00  0.00    -0.235 N 
ATOM      6  C   UNL d   1     -40.462  15.587  19.811  0.00  0.00     0.273 A 
ATOM      7  C   UNL d   1     -40.888  15.339  20.463  0.00  0.00     0.086 A 
ATOM      8  O   UNL d   1     -40.850  15.919  19.161  0.00  0.00    -0.266 OA
ATOM      9  S   UNL d   1     -40.512  15.009  21.112  0.00  0.00    -0.077 SA
ATOM     10  C   UNL d   1     -39.696  14.926  21.107  0.00  0.00     0.086 A 
ATOM     11  C   UNL d   1     -39.252  15.171  20.457  0.00  0.00     0.273 A 
ATOM     12  O   UNL d   1     -38.433  15.089  20.450  0.00  0.00    -0.266 OA
BRANCH   7  13
ATOM     13  C   UNL d   1     -41.715  15.422  20.470  0.00  0.00     0.011 C 
ATOM     14  C   UNL d   1     -42.075  15.922  21.019  0.00  0.00     0.001 C 
ENDBRANCH   7  13
BRANCH  10  15
ATOM     15  C   UNL d   1     -39.311  14.595  21.757  0.00  0.00     0.011 C 
ATOM     16  C   UNL d   1     -39.571  13.875  22.065  0.00  0.00     0.001 C 
ENDBRANCH  10  15
ENDBRANCH   4   5
ENDBRANCH   1   4
BRANCH   2  17
ATOM     17  C   UNL d   1     -38.497  14.955  17.242  0.00  0.00     0.085 A 
ATOM     18  C   UNL d   1     -38.780  15.129  16.487  0.00  0.00     0.019 A 
ATOM     19  C   UNL d   1     -38.639  14.597  15.878  0.00  0.00     0.007 A 
ATOM     20  C   UNL d   1     -38.225  13.903  16.008  0.00  0.00     0.064 A 
ATOM     21  C   UNL d   1     -37.943  13.733  16.764  0.00  0.00     0.007 A 
ATOM     22  C   UNL d   1     -38.077  14.258  17.388  0.00  0.00     0.019 A 
BRANCH  20  23
ATOM     23  C   UNL d   1     -38.087  13.373  15.387  0.00  0.00     0.300 C 
ATOM     24  O   UNL d   1     -38.015  12.567  15.546  0.00  0.00    -0.259 OA
BRANCH  23  25
ATOM     25  O   UNL d   1     -38.023  13.644  14.621  0.00  0.00    -0.271 OA
BRANCH  25  26
ATOM     26  C   UNL d   1     -37.973  13.121  13.989  0.00  0.00     0.126 C 
ATOM     27  C   UNL d   1     -38.178  13.352  13.235  0.00  0.00     0.029 C 
ENDBRANCH  25  26
ENDBRANCH  23  25
ENDBRANCH  20  23
ENDBRANCH   2  17
TORSDOF 8
ENDMDL
