MODEL 1
REMARK VINA RESULT:      23.0      0.000      0.000
REMARK  5 active torsions:
REMARK  status: ('A' for Active; 'I' for Inactive)
REMARK    1  A    between atoms: N_6  and  C_1 
REMARK    2  A    between atoms: C_8  and  C_4 
REMARK       I    between atoms: C_7  and  N_6 
REMARK    3  A    between atoms: C_13  and  C_7 
REMARK    4  A    between atoms: O_14  and  C_8 
REMARK    5  A    between atoms: C_18  and  O_14 
ROOT
ATOM      1  C   UNL d   1      46.545 -18.484  43.566  0.00  0.00     0.124 A 
ATOM      2  C   UNL d   1      46.535 -19.317  43.541  0.00  0.00     0.093 A 
ATOM      3  S   UNL d   1      46.523 -18.213  42.789  0.00  0.00    -0.062 SA
ATOM      4  C   UNL d   1      46.499 -18.870  42.291  0.00  0.00     0.095 A 
ATOM      5  C   UNL d   1      46.506 -19.548  42.749  0.00  0.00     0.023 A 
ATOM      6  C   UNL d   1      46.551 -19.822  44.212  0.00  0.00     0.103 C 
ATOM      7  N   UNL d   1      46.566 -20.323  44.859  0.00  0.00    -0.191 NA
ATOM      8  C   UNL d   1      46.488 -20.330  42.472  0.00  0.00     0.001 C 
ENDROOT
BRANCH   1   9
ATOM      9  N   UNL d   1      46.573 -18.024  44.247  0.00  0.00    -0.201 NA
ATOM     10  C   UNL d   1      46.162 -17.307  44.272  0.00  0.00     0.280 C 
ATOM     11  O   UNL d   1      46.195 -16.854  44.954  0.00  0.00    -0.265 OA
BRANCH  10  12
ATOM     12  C   UNL d   1      45.729 -17.052  43.625  0.00  0.00     0.058 C 
ATOM     13  C   UNL d   1      46.090 -16.592  43.046  0.00  0.00     0.005 C 
ATOM     14  C   UNL d   1      44.926 -17.255  43.543  0.00  0.00     0.005 C 
ENDBRANCH  10  12
ENDBRANCH   1   9
BRANCH   4  15
ATOM     15  C   UNL d   1      46.472 -18.847  41.469  0.00  0.00     0.306 C 
ATOM     16  O   UNL d   1      46.647 -19.530  41.021  0.00  0.00    -0.258 OA
BRANCH  15  17
ATOM     17  O   UNL d   1      46.272 -18.148  41.064  0.00  0.00    -0.271 OA
BRANCH  17  18
ATOM     18  C   UNL d   1      46.228 -18.389  40.273  0.00  0.00     0.126 C 
ATOM     19  C   UNL d   1      45.652 -18.069  39.777  0.00  0.00     0.029 C 
ENDBRANCH  17  18
ENDBRANCH  15  17
ENDBRANCH   4  15
TORSDOF 5
ENDMDL
MODEL 2
REMARK VINA RESULT:      24.4      3.247      4.694
REMARK  5 active torsions:
REMARK  status: ('A' for Active; 'I' for Inactive)
REMARK    1  A    between atoms: N_6  and  C_1 
REMARK    2  A    between atoms: C_8  and  C_4 
REMARK       I    between atoms: C_7  and  N_6 
REMARK    3  A    between atoms: C_13  and  C_7 
REMARK    4  A    between atoms: O_14  and  C_8 
REMARK    5  A    between atoms: C_18  and  O_14 
ROOT
ATOM      1  C   UNL d   1      45.558 -14.283  44.849  0.00  0.00     0.124 A 
ATOM      2  C   UNL d   1      44.793 -14.612  44.816  0.00  0.00     0.093 A 
ATOM      3  S   UNL d   1      46.096 -14.899  44.756  0.00  0.00    -0.062 SA
ATOM      4  C   UNL d   1      45.669 -15.599  44.668  0.00  0.00     0.095 A 
ATOM      5  C   UNL d   1      44.870 -15.426  44.704  0.00  0.00     0.023 A 
ATOM      6  C   UNL d   1      44.076 -14.180  44.887  0.00  0.00     0.103 C 
ATOM      7  N   UNL d   1      43.373 -13.768  44.954  0.00  0.00    -0.191 NA
ATOM      8  C   UNL d   1      44.246 -15.969  44.640  0.00  0.00     0.001 C 
ENDROOT
BRANCH   1   9
ATOM      9  N   UNL d   1      45.735 -13.487  44.955  0.00  0.00    -0.201 NA
ATOM     10  C   UNL d   1      45.968 -13.031  44.306  0.00  0.00     0.280 C 
ATOM     11  O   UNL d   1      46.142 -12.239  44.420  0.00  0.00    -0.265 OA
BRANCH  10  12
ATOM     12  C   UNL d   1      46.023 -13.365  43.560  0.00  0.00     0.058 C 
ATOM     13  C   UNL d   1      46.515 -14.014  43.438  0.00  0.00     0.005 C 
ATOM     14  C   UNL d   1      45.587 -13.058  42.922  0.00  0.00     0.005 C 
ENDBRANCH  10  12
ENDBRANCH   1   9
BRANCH   4  15
ATOM     15  C   UNL d   1      45.993 -16.347  44.560  0.00  0.00     0.306 C 
ATOM     16  O   UNL d   1      46.647 -16.456  44.051  0.00  0.00    -0.258 OA
BRANCH  15  17
ATOM     17  O   UNL d   1      45.682 -17.011  44.953  0.00  0.00    -0.271 OA
BRANCH  17  18
ATOM     18  C   UNL d   1      45.891 -17.643  44.460  0.00  0.00     0.126 C 
ATOM     19  C   UNL d   1      46.373 -18.248  44.745  0.00  0.00     0.029 C 
ENDBRANCH  17  18
ENDBRANCH  15  17
ENDBRANCH   4  15
TORSDOF 5
ENDMDL
MODEL 3
REMARK VINA RESULT:      24.5      1.166      2.234
REMARK  5 active torsions:
REMARK  status: ('A' for Active; 'I' for Inactive)
REMARK    1  A    between atoms: N_6  and  C_1 
REMARK    2  A    between atoms: C_8  and  C_4 
REMARK       I    between atoms: C_7  and  N_6 
REMARK    3  A    between atoms: C_13  and  C_7 
REMARK    4  A    between atoms: O_14  and  C_8 
REMARK    5  A    between atoms: C_18  and  O_14 
ROOT
ATOM      1  C   UNL d   1      46.534 -18.673  43.446  0.00  0.00     0.124 A 
ATOM      2  C   UNL d   1      46.296 -17.874  43.442  0.00  0.00     0.093 A 
ATOM      3  S   UNL d   1      46.646 -18.901  42.663  0.00  0.00    -0.062 SA
ATOM      4  C   UNL d   1      46.479 -18.253  42.182  0.00  0.00     0.095 A 
ATOM      5  C   UNL d   1      46.264 -17.621  42.657  0.00  0.00     0.023 A 
ATOM      6  C   UNL d   1      46.121 -17.418  44.125  0.00  0.00     0.103 C 
ATOM      7  N   UNL d   1      45.949 -16.965  44.784  0.00  0.00    -0.191 NA
ATOM      8  C   UNL d   1      46.052 -16.862  42.400  0.00  0.00     0.001 C 
ENDROOT
BRANCH   1   9
ATOM      9  N   UNL d   1      46.637 -19.141  44.115  0.00  0.00    -0.201 NA
ATOM     10  C   UNL d   1      46.208 -19.844  44.190  0.00  0.00     0.280 C 
ATOM     11  O   UNL d   1      46.316 -20.305  44.859  0.00  0.00    -0.265 OA
BRANCH  10  12
ATOM     12  C   UNL d   1      45.684 -20.077  43.605  0.00  0.00     0.058 C 
ATOM     13  C   UNL d   1      45.969 -20.330  42.876  0.00  0.00     0.005 C 
ATOM     14  C   UNL d   1      44.862 -20.061  43.739  0.00  0.00     0.005 C 
ENDBRANCH  10  12
ENDBRANCH   1   9
BRANCH   4  15
ATOM     15  C   UNL d   1      46.522 -18.242  41.361  0.00  0.00     0.306 C 
ATOM     16  O   UNL d   1      46.606 -17.518  40.952  0.00  0.00    -0.258 OA
BRANCH  15  17
ATOM     17  O   UNL d   1      46.483 -18.945  40.919  0.00  0.00    -0.271 OA
BRANCH  17  18
ATOM     18  C   UNL d   1      46.489 -18.681  40.134  0.00  0.00     0.126 C 
ATOM     19  C   UNL d   1      46.466 -19.225  39.515  0.00  0.00     0.029 C 
ENDBRANCH  17  18
ENDBRANCH  15  17
ENDBRANCH   4  15
TORSDOF 5
ENDMDL
