MODEL 1
REMARK VINA RESULT:      20.8      0.000      0.000
REMARK  3 active torsions:
REMARK  status: ('A' for Active; 'I' for Inactive)
REMARK    1  A    between atoms: C_14  and  C_4 
REMARK    2  A    between atoms: C_5  and  S_10 
REMARK    3  A    between atoms: S_10  and  C_14 
ROOT
ATOM      1  N   UNL d   1      58.515  49.684  49.612  0.00  0.00    -0.226 NA
ATOM      2  N   UNL d   1      57.341  49.651  50.302  0.00  0.00    -0.288 N 
ATOM      3  C   UNL d   1      57.671  49.665  49.546  0.00  0.00     0.148 A 
ATOM      4  C   UNL d   1      58.663  49.680  50.427  0.00  0.00     0.107 A 
ATOM      5  C   UNL d   1      57.973  49.661  50.853  0.00  0.00     0.101 A 
ATOM      6  C   UNL d   1      56.521  49.631  50.387  0.00  0.00     0.082 A 
ATOM      7  C   UNL d   1      57.186  49.659  48.863  0.00  0.00     0.037 A 
ATOM      8  C   UNL d   1      56.036  49.625  49.703  0.00  0.00     0.019 A 
ATOM      9  C   UNL d   1      56.356  49.639  48.971  0.00  0.00     0.005 A 
ENDROOT
BRANCH   4  10
ATOM     10  C   UNL d   1      59.415  49.695  50.756  0.00  0.00     0.058 C 
BRANCH  10  11
ATOM     11  S   UNL d   1      59.513  49.659  51.558  0.00  0.00    -0.059 SA
BRANCH  11  12
ATOM     12  C   UNL d   1      60.297  49.630  51.899  0.00  0.00     0.141 A 
ATOM     13  N   UNL d   1      61.047  49.610  51.553  0.00  0.00    -0.230 NA
ATOM     14  C   UNL d   1      61.569  49.586  52.195  0.00  0.00     0.107 A 
ATOM     15  C   UNL d   1      61.175  49.591  52.881  0.00  0.00     0.058 A 
ATOM     16  S   UNL d   1      60.392  49.618  52.708  0.00  0.00    -0.059 SA
ENDBRANCH  11  12
ENDBRANCH  10  11
ENDBRANCH   4  10
TORSDOF 3
ENDMDL
