MODEL 1
REMARK VINA RESULT:      69.4      0.000      0.000
REMARK  7 active torsions:
REMARK  status: ('A' for Active; 'I' for Inactive)
REMARK    1  A    between atoms: P_4  and  C_1 
REMARK    2  A    between atoms: N_7  and  C_3 
REMARK    3  A    between atoms: C_9  and  P_4 
REMARK    4  A    between atoms: C_10  and  P_4 
REMARK    5  A    between atoms: C_11  and  C_5 
REMARK    6  A    between atoms: C_12  and  N_7 
REMARK    7  A    between atoms: C_13  and  C_12 
ROOT
ATOM      1  C   UNL d   1      14.530  14.215  -2.296  0.00  0.00     0.161 A 
ATOM      2  N   UNL d   1      14.734  15.001  -2.469  0.00  0.00    -0.215 NA
ATOM      3  C   UNL d   1      14.074  13.892  -2.961  0.00  0.00     0.205 A 
ATOM      4  C   UNL d   1      14.440  15.199  -3.197  0.00  0.00     0.184 A 
ATOM      5  O   UNL d   1      14.019  14.533  -3.541  0.00  0.00    -0.270 OA
ENDROOT
BRANCH   1   6
ATOM      6  P   UNL d   1      14.614  13.723  -1.768  0.00  0.00     0.195 P 
ATOM      7  O   UNL d   1      15.080  14.353  -1.919  0.00  0.00    -0.305 OA
BRANCH   6   8
ATOM      8  C   UNL d   1      15.203  13.670  -1.180  0.00  0.00     0.038 A 
ATOM      9  C   UNL d   1      15.328  14.298  -0.674  0.00  0.00     0.004 A 
ATOM     10  C   UNL d   1      15.911  14.245  -0.093  0.00  0.00     0.000 A 
ATOM     11  C   UNL d   1      16.359  13.565  -0.029  0.00  0.00     0.000 A 
ATOM     12  C   UNL d   1      16.234  12.936  -0.535  0.00  0.00     0.000 A 
ATOM     13  C   UNL d   1      15.651  12.989  -1.117  0.00  0.00     0.004 A 
ENDBRANCH   6   8
BRANCH   6  14
ATOM     14  C   UNL d   1      14.203  12.943  -1.427  0.00  0.00     0.038 A 
ATOM     15  C   UNL d   1      14.026  12.149  -1.493  0.00  0.00     0.004 A 
ATOM     16  C   UNL d   1      13.594  11.784  -0.921  0.00  0.00     0.000 A 
ATOM     17  C   UNL d   1      13.325  12.215  -0.259  0.00  0.00     0.000 A 
ATOM     18  C   UNL d   1      13.496  12.998  -0.188  0.00  0.00     0.000 A 
ATOM     19  C   UNL d   1      13.934  13.374  -0.765  0.00  0.00     0.004 A 
ENDBRANCH   6  14
ENDBRANCH   1   6
BRANCH   3  20
ATOM     20  N   UNL d   1      13.867  13.159  -2.831  0.00  0.00    -0.219 NA
BRANCH  20  21
ATOM     21  C   UNL d   1      13.529  12.467  -3.143  0.00  0.00     0.101 C 
BRANCH  21  22
ATOM     22  C   UNL d   1      13.474  12.352  -3.942  0.00  0.00     0.019 A 
ATOM     23  C   UNL d   1      14.036  11.893  -4.343  0.00  0.00     0.002 A 
ATOM     24  C   UNL d   1      13.967  11.780  -5.177  0.00  0.00     0.000 A 
ATOM     25  C   UNL d   1      13.347  12.122  -5.599  0.00  0.00     0.000 A 
ATOM     26  C   UNL d   1      12.771  12.592  -5.187  0.00  0.00     0.000 A 
ATOM     27  C   UNL d   1      12.842  12.703  -4.357  0.00  0.00     0.002 A 
ENDBRANCH  21  22
ENDBRANCH  20  21
ENDBRANCH   3  20
BRANCH   4  28
ATOM     28  C   UNL d   1      14.553  15.951  -3.527  0.00  0.00     0.041 A 
ATOM     29  C   UNL d   1      14.836  16.038  -4.316  0.00  0.00     0.004 A 
ATOM     30  C   UNL d   1      14.942  16.811  -4.627  0.00  0.00     0.000 A 
ATOM     31  C   UNL d   1      14.777  17.477  -4.180  0.00  0.00     0.000 A 
ATOM     32  C   UNL d   1      14.492  17.386  -3.387  0.00  0.00     0.000 A 
ATOM     33  C   UNL d   1      14.383  16.608  -3.068  0.00  0.00     0.004 A 
ENDBRANCH   4  28
TORSDOF 7
ENDMDL
MODEL 2
REMARK VINA RESULT:      71.6      0.665      1.154
REMARK  7 active torsions:
REMARK  status: ('A' for Active; 'I' for Inactive)
REMARK    1  A    between atoms: P_4  and  C_1 
REMARK    2  A    between atoms: N_7  and  C_3 
REMARK    3  A    between atoms: C_9  and  P_4 
REMARK    4  A    between atoms: C_10  and  P_4 
REMARK    5  A    between atoms: C_11  and  C_5 
REMARK    6  A    between atoms: C_12  and  N_7 
REMARK    7  A    between atoms: C_13  and  C_12 
ROOT
ATOM      1  C   UNL d   1      14.439  14.013  -1.970  0.00  0.00     0.161 A 
ATOM      2  N   UNL d   1      14.755  14.775  -2.059  0.00  0.00    -0.215 NA
ATOM      3  C   UNL d   1      14.010  13.802  -2.695  0.00  0.00     0.205 A 
ATOM      4  C   UNL d   1      14.556  15.062  -2.790  0.00  0.00     0.184 A 
ATOM      5  O   UNL d   1      14.090  14.484  -3.222  0.00  0.00    -0.270 OA
ENDROOT
BRANCH   1   6
ATOM      6  P   UNL d   1      14.411  13.478  -1.479  0.00  0.00     0.195 P 
ATOM      7  O   UNL d   1      15.045  13.710  -1.905  0.00  0.00    -0.305 OA
BRANCH   6   8
ATOM      8  C   UNL d   1      15.013  12.962  -1.221  0.00  0.00     0.038 A 
ATOM      9  C   UNL d   1      15.257  12.350  -1.704  0.00  0.00     0.004 A 
ATOM     10  C   UNL d   1      15.852  11.839  -1.450  0.00  0.00     0.000 A 
ATOM     11  C   UNL d   1      16.194  11.950  -0.716  0.00  0.00     0.000 A 
ATOM     12  C   UNL d   1      15.951  12.562  -0.232  0.00  0.00     0.000 A 
ATOM     13  C   UNL d   1      15.355  13.073  -0.487  0.00  0.00     0.004 A 
ENDBRANCH   6   8
BRANCH   6  14
ATOM     14  C   UNL d   1      13.800  13.058  -0.893  0.00  0.00     0.038 A 
ATOM     15  C   UNL d   1      13.369  13.058  -0.200  0.00  0.00     0.004 A 
ATOM     16  C   UNL d   1      12.893  12.434  -0.022  0.00  0.00     0.000 A 
ATOM     17  C   UNL d   1      12.838  11.786  -0.544  0.00  0.00     0.000 A 
ATOM     18  C   UNL d   1      13.260  11.780  -1.228  0.00  0.00     0.000 A 
ATOM     19  C   UNL d   1      13.745  12.410  -1.415  0.00  0.00     0.004 A 
ENDBRANCH   6  14
ENDBRANCH   1   6
BRANCH   3  20
ATOM     20  N   UNL d   1      13.702  13.095  -2.644  0.00  0.00    -0.219 NA
BRANCH  20  21
ATOM     21  C   UNL d   1      13.248  12.507  -3.015  0.00  0.00     0.101 C 
BRANCH  21  22
ATOM     22  C   UNL d   1      13.231  12.439  -3.822  0.00  0.00     0.019 A 
ATOM     23  C   UNL d   1      12.783  11.844  -4.186  0.00  0.00     0.002 A 
ATOM     24  C   UNL d   1      12.774  11.783  -5.029  0.00  0.00     0.000 A 
ATOM     25  C   UNL d   1      13.205  12.309  -5.494  0.00  0.00     0.000 A 
ATOM     26  C   UNL d   1      13.664  12.919  -5.120  0.00  0.00     0.000 A 
ATOM     27  C   UNL d   1      13.672  12.977  -4.281  0.00  0.00     0.002 A 
ENDBRANCH  21  22
ENDBRANCH  20  21
ENDBRANCH   3  20
BRANCH   4  28
ATOM     28  C   UNL d   1      14.793  15.814  -3.045  0.00  0.00     0.041 A 
ATOM     29  C   UNL d   1      14.815  16.465  -2.508  0.00  0.00     0.004 A 
ATOM     30  C   UNL d   1      15.058  17.217  -2.792  0.00  0.00     0.000 A 
ATOM     31  C   UNL d   1      15.272  17.330  -3.574  0.00  0.00     0.000 A 
ATOM     32  C   UNL d   1      15.249  16.675  -4.110  0.00  0.00     0.000 A 
ATOM     33  C   UNL d   1      15.004  15.913  -3.830  0.00  0.00     0.004 A 
ENDBRANCH   4  28
TORSDOF 7
ENDMDL
