MODEL 1
REMARK VINA RESULT:      -1.3      0.000      0.000
REMARK  4 active torsions:
REMARK  status: ('A' for Active; 'I' for Inactive)
REMARK    1  A    between atoms: C_2  and  S_1 
REMARK    2  A    between atoms: N_3  and  S_1 
REMARK    3  A    between atoms: C_7  and  N_4 
REMARK    4  A    between atoms: O_16  and  C_13 
ROOT
ATOM      1  N   UNL d   1     -41.760-121.867 -51.696  0.00  0.00    -0.226 N 
ATOM      2  N   UNL d   1     -41.992-122.473 -53.219  0.00  0.00    -0.300 N 
ATOM      3  C   UNL d   1     -41.124-122.240 -52.090  0.00  0.00     0.111 A 
ATOM      4  C   UNL d   1     -42.493-121.801 -52.056  0.00  0.00     0.111 A 
ATOM      5  C   UNL d   1     -42.609-122.104 -52.820  0.00  0.00     0.100 A 
ATOM      6  C   UNL d   1     -41.265-122.535 -52.853  0.00  0.00     0.100 A 
ENDROOT
BRANCH   1   7
ATOM      7  S   UNL d   1     -41.645-121.566 -50.937  0.00  0.00     0.274 S 
ATOM      8  O   UNL d   1     -41.498-120.796 -51.265  0.00  0.00    -0.200 OA
ATOM      9  O   UNL d   1     -41.529-121.262 -50.173  0.00  0.00    -0.200 OA
BRANCH   7  10
ATOM     10  C   UNL d   1     -41.789-122.318 -50.616  0.00  0.00     0.131 A 
ATOM     11  C   UNL d   1     -42.481-122.462 -50.204  0.00  0.00     0.152 A 
ATOM     12  F   UNL d   1     -43.049-121.857 -50.102  0.00  0.00    -0.203 F 
ATOM     13  C   UNL d   1     -42.624-123.210 -49.885  0.00  0.00     0.030 A 
ATOM     14  C   UNL d   1     -42.075-123.817 -49.976  0.00  0.00     0.002 A 
ATOM     15  C   UNL d   1     -41.385-123.662 -50.391  0.00  0.00     0.001 A 
ATOM     16  C   UNL d   1     -41.242-122.914 -50.709  0.00  0.00     0.015 A 
ENDBRANCH   7  10
ENDBRANCH   1   7
BRANCH   2  17
ATOM     17  C   UNL d   1     -42.131-122.765 -53.973  0.00  0.00     0.086 A 
ATOM     18  C   UNL d   1     -42.048-122.240 -54.624  0.00  0.00     0.110 A 
ATOM     19  C   UNL d   1     -42.188-122.539 -55.381  0.00  0.00     0.026 A 
ATOM     20  C   UNL d   1     -42.400-123.309 -55.512  0.00  0.00     0.002 A 
ATOM     21  C   UNL d   1     -42.479-123.815 -54.879  0.00  0.00     0.002 A 
ATOM     22  C   UNL d   1     -42.345-123.544 -54.111  0.00  0.00     0.019 A 
BRANCH  18  23
ATOM     23  O   UNL d   1     -41.828-121.438 -54.494  0.00  0.00    -0.327 OA
ATOM     24  C   UNL d   1     -41.805-120.926 -55.128  0.00  0.00     0.181 C 
ENDBRANCH  18  23
ENDBRANCH   2  17
TORSDOF 4
ENDMDL
MODEL 2
REMARK VINA RESULT:      -0.8      1.343      1.765
REMARK  4 active torsions:
REMARK  status: ('A' for Active; 'I' for Inactive)
REMARK    1  A    between atoms: C_2  and  S_1 
REMARK    2  A    between atoms: N_3  and  S_1 
REMARK    3  A    between atoms: C_7  and  N_4 
REMARK    4  A    between atoms: O_16  and  C_13 
ROOT
ATOM      1  N   UNL d   1     -41.744-123.282 -50.718  0.00  0.00    -0.226 N 
ATOM      2  N   UNL d   1     -41.557-123.203 -52.360  0.00  0.00    -0.300 N 
ATOM      3  C   UNL d   1     -41.222-122.716 -51.044  0.00  0.00     0.111 A 
ATOM      4  C   UNL d   1     -42.161-123.794 -51.203  0.00  0.00     0.111 A 
ATOM      5  C   UNL d   1     -42.067-123.755 -52.027  0.00  0.00     0.100 A 
ATOM      6  C   UNL d   1     -41.145-122.696 -51.871  0.00  0.00     0.100 A 
ENDROOT
BRANCH   1   7
ATOM      7  S   UNL d   1     -41.838-123.322 -49.899  0.00  0.00     0.274 S 
ATOM      8  O   UNL d   1     -41.123-123.777 -49.839  0.00  0.00    -0.200 OA
ATOM      9  O   UNL d   1     -41.932-123.361 -49.075  0.00  0.00    -0.200 OA
BRANCH   7  10
ATOM     10  C   UNL d   1     -42.536-122.877 -49.958  0.00  0.00     0.131 A 
ATOM     11  C   UNL d   1     -42.532-122.080 -49.769  0.00  0.00     0.152 A 
ATOM     12  F   UNL d   1     -41.827-121.707 -49.517  0.00  0.00    -0.203 F 
ATOM     13  C   UNL d   1     -43.226-121.638 -49.827  0.00  0.00     0.030 A 
ATOM     14  C   UNL d   1     -43.928-121.989 -50.074  0.00  0.00     0.002 A 
ATOM     15  C   UNL d   1     -43.922-122.788 -50.260  0.00  0.00     0.001 A 
ATOM     16  C   UNL d   1     -43.228-123.230 -50.202  0.00  0.00     0.015 A 
ENDBRANCH   7  10
ENDBRANCH   1   7
BRANCH   2  17
ATOM     17  C   UNL d   1     -41.480-123.183 -53.177  0.00  0.00     0.086 A 
ATOM     18  C   UNL d   1     -41.708-122.482 -53.580  0.00  0.00     0.110 A 
ATOM     19  C   UNL d   1     -41.629-122.466 -54.402  0.00  0.00     0.026 A 
ATOM     20  C   UNL d   1     -41.344-123.095 -54.824  0.00  0.00     0.002 A 
ATOM     21  C   UNL d   1     -41.124-123.773 -54.430  0.00  0.00     0.002 A 
ATOM     22  C   UNL d   1     -41.192-123.817 -53.609  0.00  0.00     0.019 A 
BRANCH  18  23
ATOM     23  O   UNL d   1     -42.005-121.824 -53.148  0.00  0.00    -0.327 OA
ATOM     24  C   UNL d   1     -42.324-121.194 -53.555  0.00  0.00     0.181 C 
ENDBRANCH  18  23
ENDBRANCH   2  17
TORSDOF 4
ENDMDL
MODEL 3
REMARK VINA RESULT:       1.7      2.138      4.703
REMARK  4 active torsions:
REMARK  status: ('A' for Active; 'I' for Inactive)
REMARK    1  A    between atoms: C_2  and  S_1 
REMARK    2  A    between atoms: N_3  and  S_1 
REMARK    3  A    between atoms: C_7  and  N_4 
REMARK    4  A    between atoms: O_16  and  C_13 
ROOT
ATOM      1  N   UNL d   1     -41.733-123.029 -50.942  0.00  0.00    -0.226 N 
ATOM      2  N   UNL d   1     -41.756-123.148 -49.291  0.00  0.00    -0.300 N 
ATOM      3  C   UNL d   1     -41.178-123.523 -50.559  0.00  0.00     0.111 A 
ATOM      4  C   UNL d   1     -42.284-122.607 -50.508  0.00  0.00     0.111 A 
ATOM      5  C   UNL d   1     -42.296-122.666 -49.680  0.00  0.00     0.100 A 
ATOM      6  C   UNL d   1     -41.209-123.566 -49.730  0.00  0.00     0.100 A 
ENDROOT
BRANCH   1   7
ATOM      7  S   UNL d   1     -41.722-122.970 -51.765  0.00  0.00     0.274 S 
ATOM      8  O   UNL d   1     -41.728-123.817 -51.826  0.00  0.00    -0.200 OA
ATOM      9  O   UNL d   1     -41.710-122.910 -52.592  0.00  0.00    -0.200 OA
BRANCH   7  10
ATOM     10  C   UNL d   1     -41.715-122.142 -51.705  0.00  0.00     0.131 A 
ATOM     11  C   UNL d   1     -42.297-121.700 -52.072  0.00  0.00     0.152 A 
ATOM     12  F   UNL d   1     -42.903-122.074 -52.511  0.00  0.00    -0.203 F 
ATOM     13  C   UNL d   1     -42.290-120.877 -52.013  0.00  0.00     0.030 A 
ATOM     14  C   UNL d   1     -41.701-120.491 -51.586  0.00  0.00     0.002 A 
ATOM     15  C   UNL d   1     -41.123-120.943 -51.221  0.00  0.00     0.001 A 
ATOM     16  C   UNL d   1     -41.130-121.766 -51.281  0.00  0.00     0.015 A 
ENDBRANCH   7  10
ENDBRANCH   1   7
BRANCH   2  17
ATOM     17  C   UNL d   1     -41.787-123.191 -48.473  0.00  0.00     0.086 A 
ATOM     18  C   UNL d   1     -42.497-123.464 -48.115  0.00  0.00     0.110 A 
ATOM     19  C   UNL d   1     -42.523-123.505 -47.291  0.00  0.00     0.026 A 
ATOM     20  C   UNL d   1     -41.896-123.295 -46.825  0.00  0.00     0.002 A 
ATOM     21  C   UNL d   1     -41.209-123.031 -47.174  0.00  0.00     0.002 A 
ATOM     22  C   UNL d   1     -41.154-122.980 -47.996  0.00  0.00     0.019 A 
BRANCH  18  23
ATOM     23  O   UNL d   1     -43.153-123.684 -48.594  0.00  0.00    -0.327 OA
ATOM     24  C   UNL d   1     -43.875-123.815 -48.240  0.00  0.00     0.181 C 
ENDBRANCH  18  23
ENDBRANCH   2  17
TORSDOF 4
ENDMDL
