MODEL 1
REMARK VINA RESULT:      14.0      0.000      0.000
REMARK  4 active torsions:
REMARK  status: ('A' for Active; 'I' for Inactive)
REMARK    1  A    between atoms: N_2  and  S_1 
REMARK    2  A    between atoms: C_3  and  S_1 
REMARK    3  A    between atoms: C_11  and  N_2 
REMARK    4  A    between atoms: C_6  and  C_7 
ROOT
ATOM      1  S   UNL d   1      45.506 -15.838  44.775  0.00  0.00     0.285 S 
ATOM      2  O   UNL d   1      44.688 -15.840  44.687  0.00  0.00    -0.198 OA
ATOM      3  O   UNL d   1      46.339 -15.821  44.861  0.00  0.00    -0.198 OA
ENDROOT
BRANCH   1   4
ATOM      4  N   UNL d   1      45.498 -16.635  44.955  0.00  0.00    -0.158 NA
BRANCH   4   5
ATOM      5  C   UNL d   1      45.747 -17.189  44.401  0.00  0.00     0.094 A 
ATOM      6  C   UNL d   1      46.108 -17.878  44.684  0.00  0.00     0.020 A 
ATOM      7  C   UNL d   1      46.366 -18.450  44.129  0.00  0.00     0.005 A 
ATOM      8  C   UNL d   1      46.258 -18.318  43.322  0.00  0.00     0.039 A 
ATOM      9  C   UNL d   1      45.900 -17.633  43.044  0.00  0.00     0.005 A 
ATOM     10  C   UNL d   1      45.645 -17.069  43.587  0.00  0.00     0.020 A 
BRANCH   8  11
ATOM     11  C   UNL d   1      46.520 -18.898  42.770  0.00  0.00     0.196 C 
ATOM     12  O   UNL d   1      46.641 -19.670  43.035  0.00  0.00    -0.287 OA
ATOM     13  C   UNL d   1      46.647 -18.675  41.987  0.00  0.00     0.045 C 
ENDBRANCH   8  11
ENDBRANCH   4   5
ENDBRANCH   1   4
BRANCH   1  14
ATOM     14  C   UNL d   1      45.520 -14.993  44.584  0.00  0.00     0.105 A 
ATOM     15  C   UNL d   1      44.833 -14.638  44.330  0.00  0.00     0.015 A 
ATOM     16  C   UNL d   1      44.824 -13.833  44.143  0.00  0.00     0.022 A 
ATOM     17  C   UNL d   1      45.510 -13.396  44.215  0.00  0.00     0.103 A 
ATOM     18  C   UNL d   1      46.223 -13.762  44.477  0.00  0.00     0.022 A 
ATOM     19  N   UNL d   1      45.501 -12.568  44.022  0.00  0.00    -0.148 N 
ATOM     20  C   UNL d   1      46.199 -14.573  44.658  0.00  0.00     0.015 A 
ENDBRANCH   1  14
TORSDOF 4
ENDMDL
MODEL 2
REMARK VINA RESULT:      14.3      1.396      4.267
REMARK  4 active torsions:
REMARK  status: ('A' for Active; 'I' for Inactive)
REMARK    1  A    between atoms: N_2  and  S_1 
REMARK    2  A    between atoms: C_3  and  S_1 
REMARK    3  A    between atoms: C_11  and  N_2 
REMARK    4  A    between atoms: C_6  and  C_7 
ROOT
ATOM      1  S   UNL d   1      45.810 -17.207  44.387  0.00  0.00     0.285 S 
ATOM      2  O   UNL d   1      45.304 -16.847  43.846  0.00  0.00    -0.198 OA
ATOM      3  O   UNL d   1      46.328 -17.584  44.926  0.00  0.00    -0.198 OA
ENDROOT
BRANCH   1   4
ATOM      4  N   UNL d   1      45.612 -16.655  44.955  0.00  0.00    -0.158 NA
BRANCH   4   5
ATOM      5  C   UNL d   1      45.608 -15.853  44.772  0.00  0.00     0.094 A 
ATOM      6  C   UNL d   1      44.883 -15.456  44.804  0.00  0.00     0.020 A 
ATOM      7  C   UNL d   1      44.867 -14.639  44.620  0.00  0.00     0.005 A 
ATOM      8  C   UNL d   1      45.564 -14.250  44.412  0.00  0.00     0.039 A 
ATOM      9  C   UNL d   1      46.283 -14.647  44.381  0.00  0.00     0.005 A 
ATOM     10  C   UNL d   1      46.302 -15.450  44.562  0.00  0.00     0.020 A 
BRANCH   8  11
ATOM     11  C   UNL d   1      45.539 -13.429  44.228  0.00  0.00     0.196 C 
ATOM     12  O   UNL d   1      46.149 -12.944  44.498  0.00  0.00    -0.287 OA
ATOM     13  C   UNL d   1      44.907 -13.139  43.786  0.00  0.00     0.045 C 
ENDBRANCH   8  11
ENDBRANCH   4   5
ENDBRANCH   1   4
BRANCH   1  14
ATOM     14  C   UNL d   1      46.023 -17.796  43.788  0.00  0.00     0.105 A 
ATOM     15  C   UNL d   1      46.254 -18.537  44.032  0.00  0.00     0.015 A 
ATOM     16  C   UNL d   1      46.462 -19.113  43.478  0.00  0.00     0.022 A 
ATOM     17  C   UNL d   1      46.433 -18.934  42.681  0.00  0.00     0.103 A 
ATOM     18  C   UNL d   1      46.194 -18.167  42.426  0.00  0.00     0.022 A 
ATOM     19  N   UNL d   1      46.647 -19.526  42.111  0.00  0.00    -0.148 N 
ATOM     20  C   UNL d   1      45.991 -17.609  43.009  0.00  0.00     0.015 A 
ENDBRANCH   1  14
TORSDOF 4
ENDMDL
