MODEL 1
REMARK VINA RESULT:      -3.4      0.000      0.000
REMARK  4 active torsions:
REMARK  status: ('A' for Active; 'I' for Inactive)
REMARK    1  A    between atoms: S_3  and  N_1 
REMARK    2  A    between atoms: C_7  and  C_4 
REMARK    3  A    between atoms: C_11  and  C_5 
REMARK    4  A    between atoms: O_21  and  C_18 
ROOT
ATOM      1  N   UNL d   1      56.347  -0.847  32.590  0.00  0.00    -0.155 N 
ATOM      2  N   UNL d   1      56.882  -0.893  31.970  0.00  0.00    -0.156 NA
ATOM      3  C   UNL d   1      56.244  -0.054  32.787  0.00  0.00     0.102 A 
ATOM      4  C   UNL d   1      57.129  -0.134  31.763  0.00  0.00     0.104 A 
ATOM      5  C   UNL d   1      56.718   0.388  32.288  0.00  0.00     0.041 A 
ENDROOT
BRANCH   4   6
ATOM      6  C   UNL d   1      57.645   0.069  31.191  0.00  0.00     0.020 A 
ATOM      7  C   UNL d   1      57.472  -0.128  30.375  0.00  0.00     0.004 A 
ATOM      8  C   UNL d   1      57.985   0.071  29.784  0.00  0.00     0.024 A 
ATOM      9  C   UNL d   1      58.705   0.477  29.939  0.00  0.00     0.094 A 
ATOM     10  C   UNL d   1      58.872   0.668  30.730  0.00  0.00     0.024 A 
ATOM     11  C   UNL d   1      58.367   0.477  31.354  0.00  0.00     0.004 A 
BRANCH   9  12
ATOM     12  O   UNL d   1      59.235   0.681  29.315  0.00  0.00    -0.328 OA
ATOM     13  C   UNL d   1      59.346   0.144  28.697  0.00  0.00     0.181 C 
ENDBRANCH   9  12
ENDBRANCH   4   6
BRANCH   1  14
ATOM     14  S   UNL d   1      55.973  -1.515  32.953  0.00  0.00     0.266 S 
ATOM     15  O   UNL d   1      56.559  -1.555  33.522  0.00  0.00    -0.203 OA
ATOM     16  O   UNL d   1      55.598  -2.162  33.295  0.00  0.00    -0.203 OA
ATOM     17  C   UNL d   1      55.363  -1.463  32.350  0.00  0.00     0.165 C 
ENDBRANCH   1  14
BRANCH   3  18
ATOM     18  C   UNL d   1      55.746   0.237  33.389  0.00  0.00     0.048 A 
ATOM     19  S   UNL d   1      55.952   0.408  34.147  0.00  0.00    -0.085 SA
ATOM     20  C   UNL d   1      55.294   0.682  34.559  0.00  0.00     0.035 A 
ATOM     21  C   UNL d   1      54.675   0.680  34.051  0.00  0.00     0.007 A 
ATOM     22  C   UNL d   1      54.944   0.409  33.331  0.00  0.00     0.009 A 
ENDBRANCH   3  18
TORSDOF 4
ENDMDL
