MODEL 1
REMARK VINA RESULT:     -10.3      0.000      0.000
REMARK  5 active torsions:
REMARK  status: ('A' for Active; 'I' for Inactive)
REMARK       I    between atoms: C_4  and  N_1 
REMARK    1  A    between atoms: C_8  and  C_3 
REMARK    2  A    between atoms: C_9  and  C_4 
REMARK    3  A    between atoms: S_5  and  N_10 
REMARK    4  A    between atoms: C_11  and  C_6 
REMARK    5  A    between atoms: N_10  and  C_22 
ROOT
ATOM      1  N   UNL d   1      53.070  32.496  53.542  0.00  0.00    -0.193 N 
ATOM      2  N   UNL d   1      52.349  32.594  53.147  0.00  0.00    -0.163 NA
ATOM      3  C   UNL d   1      53.308  33.242  53.818  0.00  0.00     0.090 A 
ATOM      4  C   UNL d   1      53.473  31.782  53.639  0.00  0.00     0.303 C 
ATOM      5  C   UNL d   1      52.143  33.391  53.178  0.00  0.00     0.103 A 
ATOM      6  C   UNL d   1      52.737  33.787  53.593  0.00  0.00     0.040 A 
ATOM      7  O   UNL d   1      54.191  31.777  54.050  0.00  0.00    -0.263 OA
ENDROOT
BRANCH   5   8
ATOM      8  C   UNL d   1      51.468  33.730  52.855  0.00  0.00     0.019 A 
ATOM      9  C   UNL d   1      50.765  33.712  53.272  0.00  0.00     0.003 A 
ATOM     10  C   UNL d   1      50.084  34.053  52.946  0.00  0.00     0.020 A 
ATOM     11  C   UNL d   1      50.116  34.412  52.200  0.00  0.00     0.093 A 
ATOM     12  C   UNL d   1      50.831  34.427  51.786  0.00  0.00     0.020 A 
ATOM     13  C   UNL d   1      51.503  34.090  52.107  0.00  0.00     0.003 A 
BRANCH  11  14
ATOM     14  N   UNL d   1      49.435  34.750  51.883  0.00  0.00    -0.162 NA
BRANCH  14  15
ATOM     15  S   UNL d   1      49.033  34.390  51.269  0.00  0.00     0.266 S 
ATOM     16  O   UNL d   1      48.438  34.354  51.842  0.00  0.00    -0.203 OA
ATOM     17  O   UNL d   1      48.396  34.020  50.894  0.00  0.00    -0.203 OA
ATOM     18  C   UNL d   1      49.609  34.413  50.682  0.00  0.00     0.165 C 
ENDBRANCH  14  15
ENDBRANCH  11  14
ENDBRANCH   5   8
BRANCH   3  19
ATOM     19  C   UNL d   1      53.991  33.397  54.239  0.00  0.00     0.045 A 
ATOM     20  C   UNL d   1      53.925  33.568  55.055  0.00  0.00     0.141 A 
ATOM     21  F   UNL d   1      53.182  33.577  55.414  0.00  0.00    -0.204 F 
ATOM     22  C   UNL d   1      54.613  33.727  55.492  0.00  0.00     0.030 A 
ATOM     23  C   UNL d   1      55.312  33.715  55.138  0.00  0.00     0.002 A 
ATOM     24  C   UNL d   1      55.378  33.544  54.321  0.00  0.00     0.000 A 
ATOM     25  C   UNL d   1      54.739  33.379  53.838  0.00  0.00     0.004 A 
ENDBRANCH   3  19
BRANCH   4  26
ATOM     26  C   UNL d   1      53.165  31.095  53.334  0.00  0.00     0.158 A 
ATOM     27  O   UNL d   1      53.062  30.921  52.517  0.00  0.00    -0.300 OA
ATOM     28  C   UNL d   1      52.733  30.165  52.466  0.00  0.00     0.123 A 
ATOM     29  C   UNL d   1      52.634  29.876  53.227  0.00  0.00     0.029 A 
ATOM     30  C   UNL d   1      52.904  30.459  53.751  0.00  0.00     0.032 A 
ENDBRANCH   4  26
TORSDOF 5
ENDMDL
MODEL 2
REMARK VINA RESULT:      -9.5      1.101      2.748
REMARK  5 active torsions:
REMARK  status: ('A' for Active; 'I' for Inactive)
REMARK       I    between atoms: C_4  and  N_1 
REMARK    1  A    between atoms: C_8  and  C_3 
REMARK    2  A    between atoms: C_9  and  C_4 
REMARK    3  A    between atoms: S_5  and  N_10 
REMARK    4  A    between atoms: C_11  and  C_6 
REMARK    5  A    between atoms: N_10  and  C_22 
ROOT
ATOM      1  N   UNL d   1      53.217  32.213  53.770  0.00  0.00    -0.193 N 
ATOM      2  N   UNL d   1      52.834  32.933  53.631  0.00  0.00    -0.163 NA
ATOM      3  C   UNL d   1      52.732  31.610  53.470  0.00  0.00     0.090 A 
ATOM      4  C   UNL d   1      53.948  32.121  54.141  0.00  0.00     0.303 C 
ATOM      5  C   UNL d   1      52.120  32.778  53.249  0.00  0.00     0.103 A 
ATOM      6  C   UNL d   1      52.062  31.961  53.152  0.00  0.00     0.040 A 
ATOM      7  O   UNL d   1      54.257  31.359  54.239  0.00  0.00    -0.263 OA
ENDROOT
BRANCH   5   8
ATOM      8  C   UNL d   1      51.567  33.336  53.009  0.00  0.00     0.019 A 
ATOM      9  C   UNL d   1      51.743  33.841  52.389  0.00  0.00     0.003 A 
ATOM     10  C   UNL d   1      51.186  34.403  52.147  0.00  0.00     0.020 A 
ATOM     11  C   UNL d   1      50.454  34.455  52.531  0.00  0.00     0.093 A 
ATOM     12  C   UNL d   1      50.285  33.942  53.155  0.00  0.00     0.020 A 
ATOM     13  C   UNL d   1      50.834  33.386  53.396  0.00  0.00     0.003 A 
BRANCH  11  14
ATOM     14  N   UNL d   1      49.905  35.017  52.284  0.00  0.00    -0.162 NA
BRANCH  14  15
ATOM     15  S   UNL d   1      49.181  34.793  51.976  0.00  0.00     0.266 S 
ATOM     16  O   UNL d   1      48.913  35.147  52.675  0.00  0.00    -0.203 OA
ATOM     17  O   UNL d   1      48.359  34.715  51.954  0.00  0.00    -0.203 OA
ATOM     18  C   UNL d   1      49.422  34.436  51.276  0.00  0.00     0.165 C 
ENDBRANCH  14  15
ENDBRANCH  11  14
ENDBRANCH   5   8
BRANCH   3  19
ATOM     19  C   UNL d   1      52.901  30.810  53.492  0.00  0.00     0.045 A 
ATOM     20  C   UNL d   1      53.042  30.414  52.770  0.00  0.00     0.141 A 
ATOM     21  F   UNL d   1      53.009  30.832  52.058  0.00  0.00    -0.204 F 
ATOM     22  C   UNL d   1      53.214  29.602  52.781  0.00  0.00     0.030 A 
ATOM     23  C   UNL d   1      53.243  29.217  53.462  0.00  0.00     0.002 A 
ATOM     24  C   UNL d   1      53.101  29.614  54.186  0.00  0.00     0.000 A 
ATOM     25  C   UNL d   1      52.927  30.411  54.241  0.00  0.00     0.004 A 
ENDBRANCH   3  19
BRANCH   4  26
ATOM     26  C   UNL d   1      54.357  32.771  54.406  0.00  0.00     0.158 A 
ATOM     27  O   UNL d   1      54.892  33.235  53.951  0.00  0.00    -0.300 OA
ATOM     28  C   UNL d   1      55.176  33.835  54.443  0.00  0.00     0.123 A 
ATOM     29  C   UNL d   1      54.829  33.748  55.182  0.00  0.00     0.029 A 
ATOM     30  C   UNL d   1      54.327  33.089  55.143  0.00  0.00     0.032 A 
ENDBRANCH   4  26
TORSDOF 5
ENDMDL
MODEL 3
REMARK VINA RESULT:      -7.9      2.358      4.988
REMARK  5 active torsions:
REMARK  status: ('A' for Active; 'I' for Inactive)
REMARK       I    between atoms: C_4  and  N_1 
REMARK    1  A    between atoms: C_8  and  C_3 
REMARK    2  A    between atoms: C_9  and  C_4 
REMARK    3  A    between atoms: S_5  and  N_10 
REMARK    4  A    between atoms: C_11  and  C_6 
REMARK    5  A    between atoms: N_10  and  C_22 
ROOT
ATOM      1  N   UNL d   1      51.918  33.948  53.380  0.00  0.00    -0.193 N 
ATOM      2  N   UNL d   1      52.437  33.336  53.584  0.00  0.00    -0.163 NA
ATOM      3  C   UNL d   1      51.311  33.619  52.920  0.00  0.00     0.090 A 
ATOM      4  C   UNL d   1      51.998  34.739  53.600  0.00  0.00     0.303 C 
ATOM      5  C   UNL d   1      52.154  32.636  53.253  0.00  0.00     0.103 A 
ATOM      6  C   UNL d   1      51.460  32.815  52.844  0.00  0.00     0.040 A 
ATOM      7  O   UNL d   1      51.429  35.286  53.351  0.00  0.00    -0.263 OA
ENDROOT
BRANCH   5   8
ATOM      8  C   UNL d   1      52.501  31.894  53.318  0.00  0.00     0.019 A 
ATOM      9  C   UNL d   1      53.303  31.832  53.470  0.00  0.00     0.003 A 
ATOM     10  C   UNL d   1      53.652  31.085  53.536  0.00  0.00     0.020 A 
ATOM     11  C   UNL d   1      53.192  30.402  53.448  0.00  0.00     0.093 A 
ATOM     12  C   UNL d   1      52.384  30.473  53.294  0.00  0.00     0.020 A 
ATOM     13  C   UNL d   1      52.037  31.211  53.229  0.00  0.00     0.003 A 
BRANCH  11  14
ATOM     14  N   UNL d   1      53.548  29.662  53.515  0.00  0.00    -0.162 NA
BRANCH  14  15
ATOM     15  S   UNL d   1      53.397  29.178  54.157  0.00  0.00     0.266 S 
ATOM     16  O   UNL d   1      52.946  28.776  53.591  0.00  0.00    -0.203 OA
ATOM     17  O   UNL d   1      53.066  28.539  54.562  0.00  0.00    -0.203 OA
ATOM     18  C   UNL d   1      53.837  29.560  54.737  0.00  0.00     0.165 C 
ENDBRANCH  14  15
ENDBRANCH  11  14
ENDBRANCH   5   8
BRANCH   3  19
ATOM     19  C   UNL d   1      50.681  34.031  52.601  0.00  0.00     0.045 A 
ATOM     20  C   UNL d   1      50.681  34.185  51.779  0.00  0.00     0.141 A 
ATOM     21  F   UNL d   1      51.309  33.922  51.312  0.00  0.00    -0.204 F 
ATOM     22  C   UNL d   1      50.045  34.602  51.446  0.00  0.00     0.030 A 
ATOM     23  C   UNL d   1      49.456  34.845  51.901  0.00  0.00     0.002 A 
ATOM     24  C   UNL d   1      49.456  34.692  52.724  0.00  0.00     0.000 A 
ATOM     25  C   UNL d   1      50.052  34.286  53.110  0.00  0.00     0.004 A 
ENDBRANCH   3  19
BRANCH   4  26
ATOM     26  C   UNL d   1      52.628  34.975  54.056  0.00  0.00     0.158 A 
ATOM     27  O   UNL d   1      52.703  34.867  54.887  0.00  0.00    -0.300 OA
ATOM     28  C   UNL d   1      53.428  35.191  55.113  0.00  0.00     0.123 A 
ATOM     29  C   UNL d   1      53.795  35.492  54.443  0.00  0.00     0.029 A 
ATOM     30  C   UNL d   1      53.291  35.351  53.801  0.00  0.00     0.032 A 
ENDBRANCH   4  26
TORSDOF 5
ENDMDL
