MODEL 1
REMARK VINA RESULT:      75.6      0.000      0.000
REMARK  9 active torsions:
REMARK  status: ('A' for Active; 'I' for Inactive)
REMARK    1  A    between atoms: C_19  and  N_1 
REMARK    2  A    between atoms: S_15  and  C_2 
REMARK    3  A    between atoms: C_7  and  C_10 
REMARK       I    between atoms: N_12  and  C_7 
REMARK    4  A    between atoms: C_20  and  N_12 
REMARK    5  A    between atoms: C_22  and  S_15 
REMARK    6  A    between atoms: C_24  and  C_19 
REMARK    7  A    between atoms: C_21  and  C_20 
REMARK    8  A    between atoms: C_27  and  C_24 
REMARK    9  A    between atoms: C_26  and  C_27 
ROOT
ATOM      1  N   UNL d   1     -51.166  26.261  38.166  0.00  0.00    -0.195 NA
ATOM      2  C   UNL d   1     -51.182  26.557  37.394  0.00  0.00     0.086 C 
ATOM      3  C   UNL d   1     -51.200  26.852  36.625  0.00  0.00     0.170 C 
ENDROOT
BRANCH   3   4
ATOM      4  S   UNL d   1     -50.822  26.447  36.020  0.00  0.00    -0.060 SA
BRANCH   4   5
ATOM      5  C   UNL d   1     -50.331  26.866  35.474  0.00  0.00     0.178 A 
ATOM      6  N   UNL d   1     -50.345  26.677  34.670  0.00  0.00    -0.253 N 
ATOM      7  C   UNL d   1     -49.867  27.086  34.142  0.00  0.00     0.268 A 
ATOM      8  C   UNL d   1     -49.368  27.692  34.424  0.00  0.00     0.074 A 
ATOM      9  O   UNL d   1     -49.876  26.902  33.337  0.00  0.00    -0.267 OA
ATOM     10  C   UNL d   1     -49.354  27.879  35.219  0.00  0.00     0.088 A 
ATOM     11  C   UNL d   1     -48.887  28.104  33.892  0.00  0.00     0.006 A 
ATOM     12  C   UNL d   1     -48.859  28.480  35.492  0.00  0.00     0.024 A 
ATOM     13  N   UNL d   1     -49.834  27.469  35.747  0.00  0.00    -0.222 NA
ATOM     14  C   UNL d   1     -48.380  28.889  34.964  0.00  0.00     0.059 A 
ATOM     15  C   UNL d   1     -48.394  28.702  34.169  0.00  0.00     0.005 A 
BRANCH   6  16
ATOM     16  C   UNL d   1     -50.850  26.066  34.399  0.00  0.00     0.085 C 
BRANCH  16  17
ATOM     17  C   UNL d   1     -50.973  25.988  33.587  0.00  0.00     0.019 C 
BRANCH  17  18
ATOM     18  C   UNL d   1     -51.414  25.336  33.309  0.00  0.00     0.002 C 
BRANCH  18  19
ATOM     19  C   UNL d   1     -51.131  24.561  33.452  0.00  0.00     0.000 C 
ATOM     20  C   UNL d   1     -51.625  23.923  33.306  0.00  0.00     0.000 C 
ENDBRANCH  18  19
ENDBRANCH  17  18
ENDBRANCH  16  17
ENDBRANCH   6  16
BRANCH  14  21
ATOM     21  C   UNL d   1     -47.886  29.489  35.238  0.00  0.00     0.279 C 
ATOM     22  N   UNL d   1     -47.937  30.249  34.924  0.00  0.00    -0.204 NA
ATOM     23  O   UNL d   1     -47.334  29.331  35.831  0.00  0.00    -0.265 OA
BRANCH  22  24
ATOM     24  C   UNL d   1     -47.440  30.850  35.200  0.00  0.00     0.127 C 
BRANCH  24  25
ATOM     25  C   UNL d   1     -47.470  31.604  34.852  0.00  0.00     0.119 A 
ATOM     26  O   UNL d   1     -47.758  32.287  35.208  0.00  0.00    -0.304 OA
ATOM     27  C   UNL d   1     -47.684  32.909  34.667  0.00  0.00     0.123 A 
ATOM     28  C   UNL d   1     -47.346  32.602  33.976  0.00  0.00     0.029 A 
ATOM     29  C   UNL d   1     -47.217  31.800  34.093  0.00  0.00     0.028 A 
ENDBRANCH  24  25
ENDBRANCH  22  24
ENDBRANCH  14  21
ENDBRANCH   4   5
ENDBRANCH   3   4
TORSDOF 9
ENDMDL
