MODEL 1
REMARK VINA RESULT:      -8.7      0.000      0.000
REMARK  4 active torsions:
REMARK  status: ('A' for Active; 'I' for Inactive)
REMARK    1  A    between atoms: C_7  and  C_1 
REMARK    2  A    between atoms: S_4  and  O_12 
REMARK    3  A    between atoms: O_12  and  C_10 
REMARK    4  A    between atoms: C_25  and  C_13 
ROOT
ATOM      1  C   UNL d   1     -46.925  13.353  22.771  0.00  0.00     0.064 A 
ATOM      2  C   UNL d   1     -48.294  13.492  22.399  0.00  0.00     0.062 A 
ATOM      3  C   UNL d   1     -47.576  13.096  22.338  0.00  0.00     0.199 A 
ATOM      4  C   UNL d   1     -46.992  14.015  23.273  0.00  0.00     0.126 A 
ATOM      5  C   UNL d   1     -48.364  14.148  22.894  0.00  0.00     0.105 A 
ATOM      6  O   UNL d   1     -47.721  14.416  23.333  0.00  0.00    -0.305 OA
ATOM      7  C   UNL d   1     -48.945  13.239  21.968  0.00  0.00     0.007 A 
ATOM      8  C   UNL d   1     -49.728  14.290  22.525  0.00  0.00     0.115 A 
ATOM      9  C   UNL d   1     -49.077  14.546  22.959  0.00  0.00     0.050 A 
ATOM     10  C   UNL d   1     -49.662  13.635  22.029  0.00  0.00     0.024 A 
ATOM     11  O   UNL d   1     -47.510  12.448  21.847  0.00  0.00    -0.286 OA
ENDROOT
BRANCH   1  12
ATOM     12  C   UNL d   1     -46.207  12.954  22.708  0.00  0.00     0.007 A 
ATOM     13  C   UNL d   1     -46.080  12.274  23.161  0.00  0.00     0.027 A 
ATOM     14  C   UNL d   1     -45.363  11.874  23.098  0.00  0.00     0.123 A 
ATOM     15  O   UNL d   1     -45.234  11.186  23.556  0.00  0.00    -0.301 OA
ATOM     16  C   UNL d   1     -44.773  12.156  22.582  0.00  0.00     0.123 A 
ATOM     17  C   UNL d   1     -44.506  10.788  23.486  0.00  0.00     0.149 A 
ATOM     18  C   UNL d   1     -43.921  11.067  22.975  0.00  0.00     0.149 A 
ATOM     19  O   UNL d   1     -44.050  11.751  22.521  0.00  0.00    -0.301 OA
ATOM     20  C   UNL d   1     -44.907  12.825  22.141  0.00  0.00     0.027 A 
ATOM     21  C   UNL d   1     -45.623  13.233  22.197  0.00  0.00     0.002 A 
ENDBRANCH   1  12
BRANCH  10  22
ATOM     22  C   UNL d   1     -50.313  13.377  21.595  0.00  0.00     0.002 C 
ATOM     23  C   UNL d   1     -50.323  12.622  21.264  0.00  0.00     0.000 C 
ENDBRANCH  10  22
BRANCH   8  24
ATOM     24  O   UNL d   1     -50.445  14.688  22.588  0.00  0.00    -0.230 OA
BRANCH  24  25
ATOM     25  S   UNL d   1     -50.530  15.304  23.132  0.00  0.00     0.285 S 
ATOM     26  O   UNL d   1     -50.808  14.772  23.698  0.00  0.00    -0.197 OA
ATOM     27  O   UNL d   1     -50.252  15.839  22.569  0.00  0.00    -0.197 OA
ATOM     28  C   UNL d   1     -50.613  15.922  23.671  0.00  0.00     0.172 C 
ENDBRANCH  24  25
ENDBRANCH   8  24
TORSDOF 4
ENDMDL
MODEL 2
REMARK VINA RESULT:      -6.0      8.815     10.071
REMARK  4 active torsions:
REMARK  status: ('A' for Active; 'I' for Inactive)
REMARK    1  A    between atoms: C_7  and  C_1 
REMARK    2  A    between atoms: S_4  and  O_12 
REMARK    3  A    between atoms: O_12  and  C_10 
REMARK    4  A    between atoms: C_25  and  C_13 
ROOT
ATOM      1  C   UNL d   1     -38.782  14.480  19.989  0.00  0.00     0.064 A 
ATOM      2  C   UNL d   1     -39.410  14.708  18.731  0.00  0.00     0.062 A 
ATOM      3  C   UNL d   1     -39.438  14.718  19.552  0.00  0.00     0.199 A 
ATOM      4  C   UNL d   1     -38.089  14.229  19.601  0.00  0.00     0.126 A 
ATOM      5  C   UNL d   1     -38.725  14.461  18.342  0.00  0.00     0.105 A 
ATOM      6  O   UNL d   1     -38.063  14.220  18.767  0.00  0.00    -0.305 OA
ATOM      7  C   UNL d   1     -40.062  14.945  18.291  0.00  0.00     0.007 A 
ATOM      8  C   UNL d   1     -39.348  14.687  17.085  0.00  0.00     0.115 A 
ATOM      9  C   UNL d   1     -38.693  14.449  17.524  0.00  0.00     0.050 A 
ATOM     10  C   UNL d   1     -40.034  14.935  17.470  0.00  0.00     0.024 A 
ATOM     11  O   UNL d   1     -40.116  14.963  19.932  0.00  0.00    -0.286 OA
ENDROOT
BRANCH   1  12
ATOM     12  C   UNL d   1     -38.813  14.490  20.813  0.00  0.00     0.007 A 
ATOM     13  C   UNL d   1     -38.562  15.166  21.219  0.00  0.00     0.027 A 
ATOM     14  C   UNL d   1     -38.593  15.177  22.042  0.00  0.00     0.123 A 
ATOM     15  O   UNL d   1     -38.339  15.860  22.454  0.00  0.00    -0.301 OA
ATOM     16  C   UNL d   1     -38.875  14.513  22.457  0.00  0.00     0.123 A 
ATOM     17  C   UNL d   1     -38.374  15.863  23.285  0.00  0.00     0.149 A 
ATOM     18  C   UNL d   1     -38.653  15.205  23.697  0.00  0.00     0.149 A 
ATOM     19  O   UNL d   1     -38.905  14.527  23.288  0.00  0.00    -0.301 OA
ATOM     20  C   UNL d   1     -39.120  13.853  22.049  0.00  0.00     0.027 A 
ATOM     21  C   UNL d   1     -39.092  13.833  21.224  0.00  0.00     0.002 A 
ENDBRANCH   1  12
BRANCH  10  22
ATOM     22  C   UNL d   1     -40.690  15.173  17.033  0.00  0.00     0.002 C 
ATOM     23  C   UNL d   1     -41.248  15.685  17.360  0.00  0.00     0.000 C 
ENDBRANCH  10  22
BRANCH   8  24
ATOM     24  O   UNL d   1     -39.317  14.677  16.263  0.00  0.00    -0.230 OA
BRANCH  24  25
ATOM     25  S   UNL d   1     -38.636  14.416  15.879  0.00  0.00     0.285 S 
ATOM     26  O   UNL d   1     -38.906  13.637  15.916  0.00  0.00    -0.197 OA
ATOM     27  O   UNL d   1     -38.361  15.193  15.839  0.00  0.00    -0.197 OA
ATOM     28  C   UNL d   1     -37.952  14.160  15.494  0.00  0.00     0.172 C 
ENDBRANCH  24  25
ENDBRANCH   8  24
TORSDOF 4
ENDMDL
MODEL 3
REMARK VINA RESULT:      -5.9      8.411      9.337
REMARK  4 active torsions:
REMARK  status: ('A' for Active; 'I' for Inactive)
REMARK    1  A    between atoms: C_7  and  C_1 
REMARK    2  A    between atoms: S_4  and  O_12 
REMARK    3  A    between atoms: O_12  and  C_10 
REMARK    4  A    between atoms: C_25  and  C_13 
ROOT
ATOM      1  C   UNL d   1     -39.550  14.853  20.270  0.00  0.00     0.064 A 
ATOM      2  C   UNL d   1     -39.466  14.676  18.858  0.00  0.00     0.062 A 
ATOM      3  C   UNL d   1     -39.131  14.605  19.606  0.00  0.00     0.199 A 
ATOM      4  C   UNL d   1     -40.313  15.176  20.186  0.00  0.00     0.126 A 
ATOM      5  C   UNL d   1     -40.221  14.996  18.772  0.00  0.00     0.105 A 
ATOM      6  O   UNL d   1     -40.650  15.247  19.427  0.00  0.00    -0.305 OA
ATOM      7  C   UNL d   1     -39.051  14.430  18.194  0.00  0.00     0.007 A 
ATOM      8  C   UNL d   1     -40.141  14.821  17.364  0.00  0.00     0.115 A 
ATOM      9  C   UNL d   1     -40.559  15.068  18.029  0.00  0.00     0.050 A 
ATOM     10  C   UNL d   1     -39.385  14.501  17.446  0.00  0.00     0.024 A 
ATOM     11  O   UNL d   1     -38.383  14.289  19.687  0.00  0.00    -0.286 OA
ENDROOT
BRANCH   1  12
ATOM     12  C   UNL d   1     -39.211  14.780  21.018  0.00  0.00     0.007 A 
ATOM     13  C   UNL d   1     -39.249  14.054  21.411  0.00  0.00     0.027 A 
ATOM     14  C   UNL d   1     -38.911  13.980  22.158  0.00  0.00     0.123 A 
ATOM     15  O   UNL d   1     -38.949  13.245  22.557  0.00  0.00    -0.301 OA
ATOM     16  C   UNL d   1     -38.536  14.634  22.512  0.00  0.00     0.123 A 
ATOM     17  C   UNL d   1     -38.605  13.181  23.312  0.00  0.00     0.149 A 
ATOM     18  C   UNL d   1     -38.233  13.828  23.662  0.00  0.00     0.149 A 
ATOM     19  O   UNL d   1     -38.196  14.557  23.266  0.00  0.00    -0.301 OA
ATOM     20  C   UNL d   1     -38.504  15.345  22.117  0.00  0.00     0.027 A 
ATOM     21  C   UNL d   1     -38.840  15.427  21.367  0.00  0.00     0.002 A 
ENDBRANCH   1  12
BRANCH  10  22
ATOM     22  C   UNL d   1     -38.967  14.253  16.782  0.00  0.00     0.002 C 
ATOM     23  C   UNL d   1     -38.467  13.598  16.823  0.00  0.00     0.000 C 
ENDBRANCH  10  22
BRANCH   8  24
ATOM     24  O   UNL d   1     -40.479  14.893  16.617  0.00  0.00    -0.230 OA
BRANCH  24  25
ATOM     25  S   UNL d   1     -41.113  15.408  16.498  0.00  0.00     0.285 S 
ATOM     26  O   UNL d   1     -40.627  15.914  16.064  0.00  0.00    -0.197 OA
ATOM     27  O   UNL d   1     -41.602  14.905  16.931  0.00  0.00    -0.197 OA
ATOM     28  C   UNL d   1     -41.749  15.919  16.382  0.00  0.00     0.172 C 
ENDBRANCH  24  25
ENDBRANCH   8  24
TORSDOF 4
ENDMDL
MODEL 4
REMARK VINA RESULT:      -5.9      1.052      1.716
REMARK  4 active torsions:
REMARK  status: ('A' for Active; 'I' for Inactive)
REMARK    1  A    between atoms: C_7  and  C_1 
REMARK    2  A    between atoms: S_4  and  O_12 
REMARK    3  A    between atoms: O_12  and  C_10 
REMARK    4  A    between atoms: C_25  and  C_13 
ROOT
ATOM      1  C   UNL d   1     -46.597  12.389  22.940  0.00  0.00     0.064 A 
ATOM      2  C   UNL d   1     -47.484  13.502  22.882  0.00  0.00     0.062 A 
ATOM      3  C   UNL d   1     -46.720  13.200  22.878  0.00  0.00     0.199 A 
ATOM      4  C   UNL d   1     -47.247  11.872  23.008  0.00  0.00     0.126 A 
ATOM      5  C   UNL d   1     -48.130  12.993  22.949  0.00  0.00     0.105 A 
ATOM      6  O   UNL d   1     -48.022  12.181  23.012  0.00  0.00    -0.305 OA
ATOM      7  C   UNL d   1     -47.610  14.311  22.820  0.00  0.00     0.007 A 
ATOM      8  C   UNL d   1     -49.018  14.101  22.892  0.00  0.00     0.115 A 
ATOM      9  C   UNL d   1     -48.894  13.290  22.954  0.00  0.00     0.050 A 
ATOM     10  C   UNL d   1     -48.375  14.613  22.824  0.00  0.00     0.024 A 
ATOM     11  O   UNL d   1     -46.084  13.707  22.811  0.00  0.00    -0.286 OA
ENDROOT
BRANCH   1  12
ATOM     12  C   UNL d   1     -45.830  12.089  22.935  0.00  0.00     0.007 A 
ATOM     13  C   UNL d   1     -45.672  11.372  23.317  0.00  0.00     0.027 A 
ATOM     14  C   UNL d   1     -44.905  11.072  23.312  0.00  0.00     0.123 A 
ATOM     15  O   UNL d   1     -44.745  10.347  23.698  0.00  0.00    -0.301 OA
ATOM     16  C   UNL d   1     -44.296  11.490  22.927  0.00  0.00     0.123 A 
ATOM     17  C   UNL d   1     -43.967  10.051  23.688  0.00  0.00     0.149 A 
ATOM     18  C   UNL d   1     -43.364  10.465  23.306  0.00  0.00     0.149 A 
ATOM     19  O   UNL d   1     -43.524  11.185  22.924  0.00  0.00    -0.301 OA
ATOM     20  C   UNL d   1     -44.461  12.194  22.555  0.00  0.00     0.027 A 
ATOM     21  C   UNL d   1     -45.227  12.503  22.554  0.00  0.00     0.002 A 
ENDBRANCH   1  12
BRANCH  10  22
ATOM     22  C   UNL d   1     -48.498  15.425  22.762  0.00  0.00     0.002 C 
ATOM     23  C   UNL d   1     -47.968  15.897  22.341  0.00  0.00     0.000 C 
ENDBRANCH  10  22
BRANCH   8  24
ATOM     24  O   UNL d   1     -49.784  14.401  22.896  0.00  0.00    -0.230 OA
BRANCH  24  25
ATOM     25  S   UNL d   1     -50.424  13.901  22.748  0.00  0.00     0.285 S 
ATOM     26  O   UNL d   1     -50.304  13.981  21.935  0.00  0.00    -0.197 OA
ATOM     27  O   UNL d   1     -50.548  13.818  23.559  0.00  0.00    -0.197 OA
ATOM     28  C   UNL d   1     -51.064  13.401  22.604  0.00  0.00     0.172 C 
ENDBRANCH  24  25
ENDBRANCH   8  24
TORSDOF 4
ENDMDL
MODEL 5
REMARK VINA RESULT:      -5.9      1.877      5.412
REMARK  4 active torsions:
REMARK  status: ('A' for Active; 'I' for Inactive)
REMARK    1  A    between atoms: C_7  and  C_1 
REMARK    2  A    between atoms: S_4  and  O_12 
REMARK    3  A    between atoms: O_12  and  C_10 
REMARK    4  A    between atoms: C_25  and  C_13 
ROOT
ATOM      1  C   UNL d   1     -46.908  13.247  22.853  0.00  0.00     0.064 A 
ATOM      2  C   UNL d   1     -45.610  12.822  22.448  0.00  0.00     0.062 A 
ATOM      3  C   UNL d   1     -46.249  13.333  22.368  0.00  0.00     0.199 A 
ATOM      4  C   UNL d   1     -46.930  12.642  23.426  0.00  0.00     0.126 A 
ATOM      5  C   UNL d   1     -45.628  12.222  23.014  0.00  0.00     0.105 A 
ATOM      6  O   UNL d   1     -46.280  12.125  23.505  0.00  0.00    -0.305 OA
ATOM      7  C   UNL d   1     -44.950  12.905  21.966  0.00  0.00     0.007 A 
ATOM      8  C   UNL d   1     -44.333  11.795  22.613  0.00  0.00     0.115 A 
ATOM      9  C   UNL d   1     -44.993  11.710  23.097  0.00  0.00     0.050 A 
ATOM     10  C   UNL d   1     -44.311  12.394  22.046  0.00  0.00     0.024 A 
ATOM     11  O   UNL d   1     -46.227  13.925  21.807  0.00  0.00    -0.286 OA
ENDROOT
BRANCH   1  12
ATOM     12  C   UNL d   1     -47.547  13.761  22.771  0.00  0.00     0.007 A 
ATOM     13  C   UNL d   1     -48.279  13.461  22.531  0.00  0.00     0.027 A 
ATOM     14  C   UNL d   1     -48.918  13.974  22.448  0.00  0.00     0.123 A 
ATOM     15  O   UNL d   1     -49.660  13.672  22.205  0.00  0.00    -0.301 OA
ATOM     16  C   UNL d   1     -48.824  14.786  22.605  0.00  0.00     0.123 A 
ATOM     17  C   UNL d   1     -50.300  14.198  22.124  0.00  0.00     0.149 A 
ATOM     18  C   UNL d   1     -50.207  15.002  22.280  0.00  0.00     0.149 A 
ATOM     19  O   UNL d   1     -49.470  15.301  22.521  0.00  0.00    -0.301 OA
ATOM     20  C   UNL d   1     -48.100  15.072  22.841  0.00  0.00     0.027 A 
ATOM     21  C   UNL d   1     -47.453  14.565  22.926  0.00  0.00     0.002 A 
ENDBRANCH   1  12
BRANCH  10  22
ATOM     22  C   UNL d   1     -43.652  12.480  21.561  0.00  0.00     0.002 C 
ATOM     23  C   UNL d   1     -43.550  13.163  21.110  0.00  0.00     0.000 C 
ENDBRANCH  10  22
BRANCH   8  24
ATOM     24  O   UNL d   1     -43.695  11.282  22.695  0.00  0.00    -0.230 OA
BRANCH  24  25
ATOM     25  S   UNL d   1     -43.751  10.630  23.197  0.00  0.00     0.285 S 
ATOM     26  O   UNL d   1     -43.184  10.960  23.697  0.00  0.00    -0.197 OA
ATOM     27  O   UNL d   1     -44.318  10.296  22.699  0.00  0.00    -0.197 OA
ATOM     28  C   UNL d   1     -43.811   9.976  23.696  0.00  0.00     0.172 C 
ENDBRANCH  24  25
ENDBRANCH   8  24
TORSDOF 4
ENDMDL
