MODEL 1
REMARK VINA RESULT:      -9.9      0.000      0.000
REMARK  4 active torsions:
REMARK  status: ('A' for Active; 'I' for Inactive)
REMARK    1  A    between atoms: C_10  and  C_3 
REMARK    2  A    between atoms: C_11  and  N_5 
REMARK    3  A    between atoms: O_17  and  C_10 
REMARK    4  A    between atoms: C_21  and  O_17 
ROOT
ATOM      1  C   UNL d   1      53.478  33.626  54.409  0.00  0.00     0.086 A 
ATOM      2  C   UNL d   1      53.774  32.875  54.254  0.00  0.00     0.038 A 
ATOM      3  C   UNL d   1      53.397  32.388  53.706  0.00  0.00     0.165 A 
ATOM      4  C   UNL d   1      52.802  33.894  54.014  0.00  0.00     0.282 A 
ATOM      5  N   UNL d   1      52.426  33.410  53.467  0.00  0.00    -0.194 N 
ATOM      6  N   UNL d   1      52.721  32.656  53.311  0.00  0.00    -0.157 NA
ATOM      7  C   UNL d   1      53.968  33.976  54.975  0.00  0.00     0.137 A 
ATOM      8  C   UNL d   1      54.443  32.766  54.725  0.00  0.00     0.039 A 
ATOM      9  S   UNL d   1      54.560  33.441  55.166  0.00  0.00    -0.066 SA
ATOM     10  O   UNL d   1      52.500  34.655  54.168  0.00  0.00    -0.265 OA
ATOM     11  N   UNL d   1      53.892  34.736  55.307  0.00  0.00    -0.141 N 
ENDROOT
BRANCH   5  12
ATOM     12  C   UNL d   1      51.753  33.677  53.075  0.00  0.00     0.086 A 
ATOM     13  C   UNL d   1      51.825  34.058  52.347  0.00  0.00     0.019 A 
ATOM     14  C   UNL d   1      51.146  34.328  51.950  0.00  0.00     0.002 A 
ATOM     15  C   UNL d   1      50.401  34.213  52.286  0.00  0.00     0.000 A 
ATOM     16  C   UNL d   1      50.331  33.833  53.011  0.00  0.00     0.002 A 
ATOM     17  C   UNL d   1      49.729  34.480  51.893  0.00  0.00     0.000 C 
ATOM     18  C   UNL d   1      51.010  33.564  53.407  0.00  0.00     0.019 A 
ENDBRANCH   5  12
BRANCH   3  19
ATOM     19  C   UNL d   1      53.698  31.627  53.552  0.00  0.00     0.320 C 
ATOM     20  O   UNL d   1      54.382  31.543  53.106  0.00  0.00    -0.257 OA
BRANCH  19  21
ATOM     21  O   UNL d   1      53.311  30.958  53.847  0.00  0.00    -0.270 OA
BRANCH  21  22
ATOM     22  C   UNL d   1      53.456  30.220  53.516  0.00  0.00     0.126 C 
ATOM     23  C   UNL d   1      53.081  29.545  53.824  0.00  0.00     0.029 C 
ENDBRANCH  21  22
ENDBRANCH  19  21
ENDBRANCH   3  19
TORSDOF 4
ENDMDL
MODEL 2
REMARK VINA RESULT:      -9.2      1.394      2.500
REMARK  4 active torsions:
REMARK  status: ('A' for Active; 'I' for Inactive)
REMARK    1  A    between atoms: C_10  and  C_3 
REMARK    2  A    between atoms: C_11  and  N_5 
REMARK    3  A    between atoms: O_17  and  C_10 
REMARK    4  A    between atoms: C_21  and  O_17 
ROOT
ATOM      1  C   UNL d   1      52.905  31.405  53.258  0.00  0.00     0.086 A 
ATOM      2  C   UNL d   1      53.619  31.703  53.532  0.00  0.00     0.038 A 
ATOM      3  C   UNL d   1      53.718  32.517  53.625  0.00  0.00     0.165 A 
ATOM      4  C   UNL d   1      52.283  31.920  53.075  0.00  0.00     0.282 A 
ATOM      5  N   UNL d   1      52.379  32.730  53.167  0.00  0.00    -0.194 N 
ATOM      6  N   UNL d   1      53.096  33.032  53.443  0.00  0.00    -0.157 NA
ATOM      7  C   UNL d   1      52.975  30.581  53.223  0.00  0.00     0.137 A 
ATOM      8  C   UNL d   1      54.125  31.065  53.665  0.00  0.00     0.039 A 
ATOM      9  S   UNL d   1      53.729  30.379  53.475  0.00  0.00    -0.066 SA
ATOM     10  O   UNL d   1      51.558  31.619  52.797  0.00  0.00    -0.265 OA
ATOM     11  N   UNL d   1      52.395  30.036  52.979  0.00  0.00    -0.141 N 
ENDROOT
BRANCH   5  12
ATOM     12  C   UNL d   1      51.761  33.242  52.985  0.00  0.00     0.086 A 
ATOM     13  C   UNL d   1      51.775  33.670  52.280  0.00  0.00     0.019 A 
ATOM     14  C   UNL d   1      51.151  34.187  52.096  0.00  0.00     0.002 A 
ATOM     15  C   UNL d   1      50.518  34.272  52.620  0.00  0.00     0.000 A 
ATOM     16  C   UNL d   1      50.507  33.844  53.322  0.00  0.00     0.002 A 
ATOM     17  C   UNL d   1      49.900  34.784  52.438  0.00  0.00     0.000 C 
ATOM     18  C   UNL d   1      51.131  33.328  53.505  0.00  0.00     0.019 A 
ENDBRANCH   5  12
BRANCH   3  19
ATOM     19  C   UNL d   1      54.442  32.817  53.904  0.00  0.00     0.320 C 
ATOM     20  O   UNL d   1      55.085  32.866  53.394  0.00  0.00    -0.257 OA
BRANCH  19  21
ATOM     21  O   UNL d   1      54.517  33.065  54.690  0.00  0.00    -0.270 OA
BRANCH  21  22
ATOM     22  C   UNL d   1      55.104  33.600  54.898  0.00  0.00     0.126 C 
ATOM     23  C   UNL d   1      55.130  33.910  55.670  0.00  0.00     0.029 C 
ENDBRANCH  21  22
ENDBRANCH  19  21
ENDBRANCH   3  19
TORSDOF 4
ENDMDL
MODEL 3
REMARK VINA RESULT:      -8.5      1.141      3.490
REMARK  4 active torsions:
REMARK  status: ('A' for Active; 'I' for Inactive)
REMARK    1  A    between atoms: C_10  and  C_3 
REMARK    2  A    between atoms: C_11  and  N_5 
REMARK    3  A    between atoms: O_17  and  C_10 
REMARK    4  A    between atoms: C_21  and  O_17 
ROOT
ATOM      1  C   UNL d   1      53.068  33.807  54.077  0.00  0.00     0.086 A 
ATOM      2  C   UNL d   1      52.548  34.199  53.576  0.00  0.00     0.038 A 
ATOM      3  C   UNL d   1      52.128  33.779  53.005  0.00  0.00     0.165 A 
ATOM      4  C   UNL d   1      53.171  32.988  54.008  0.00  0.00     0.282 A 
ATOM      5  N   UNL d   1      52.753  32.568  53.439  0.00  0.00    -0.194 N 
ATOM      6  N   UNL d   1      52.231  32.960  52.936  0.00  0.00    -0.157 NA
ATOM      7  C   UNL d   1      53.402  34.370  54.582  0.00  0.00     0.137 A 
ATOM      8  C   UNL d   1      52.563  35.001  53.775  0.00  0.00     0.039 A 
ATOM      9  S   UNL d   1      53.087  35.103  54.391  0.00  0.00    -0.066 SA
ATOM     10  O   UNL d   1      53.697  32.588  54.513  0.00  0.00    -0.265 OA
ATOM     11  N   UNL d   1      53.960  34.237  55.185  0.00  0.00    -0.141 N 
ENDROOT
BRANCH   5  12
ATOM     12  C   UNL d   1      52.855  31.754  53.371  0.00  0.00     0.086 A 
ATOM     13  C   UNL d   1      52.220  31.246  53.510  0.00  0.00     0.019 A 
ATOM     14  C   UNL d   1      52.323  30.424  53.441  0.00  0.00     0.002 A 
ATOM     15  C   UNL d   1      53.061  30.117  53.234  0.00  0.00     0.000 A 
ATOM     16  C   UNL d   1      53.692  30.625  53.096  0.00  0.00     0.002 A 
ATOM     17  C   UNL d   1      53.163  29.304  53.165  0.00  0.00     0.000 C 
ATOM     18  C   UNL d   1      53.589  31.447  53.165  0.00  0.00     0.019 A 
ENDBRANCH   5  12
BRANCH   3  19
ATOM     19  C   UNL d   1      51.602  34.179  52.499  0.00  0.00     0.320 C 
ATOM     20  O   UNL d   1      51.881  34.516  51.805  0.00  0.00    -0.257 OA
BRANCH  19  21
ATOM     21  O   UNL d   1      50.799  34.237  52.694  0.00  0.00    -0.270 OA
BRANCH  21  22
ATOM     22  C   UNL d   1      50.245  34.398  52.110  0.00  0.00     0.126 C 
ATOM     23  C   UNL d   1      49.449  34.527  52.315  0.00  0.00     0.029 C 
ENDBRANCH  21  22
ENDBRANCH  19  21
ENDBRANCH   3  19
TORSDOF 4
ENDMDL
MODEL 4
REMARK VINA RESULT:      -7.5      1.558      3.523
REMARK  4 active torsions:
REMARK  status: ('A' for Active; 'I' for Inactive)
REMARK    1  A    between atoms: C_10  and  C_3 
REMARK    2  A    between atoms: C_11  and  N_5 
REMARK    3  A    between atoms: O_17  and  C_10 
REMARK    4  A    between atoms: C_21  and  O_17 
ROOT
ATOM      1  C   UNL d   1      52.287  33.577  53.003  0.00  0.00     0.086 A 
ATOM      2  C   UNL d   1      52.720  33.960  53.586  0.00  0.00     0.038 A 
ATOM      3  C   UNL d   1      53.195  33.525  54.101  0.00  0.00     0.165 A 
ATOM      4  C   UNL d   1      52.326  32.753  52.932  0.00  0.00     0.282 A 
ATOM      5  N   UNL d   1      52.799  32.318  53.444  0.00  0.00    -0.194 N 
ATOM      6  N   UNL d   1      53.234  32.701  54.030  0.00  0.00    -0.157 NA
ATOM      7  C   UNL d   1      51.871  34.153  52.581  0.00  0.00     0.137 A 
ATOM      8  C   UNL d   1      52.570  34.769  53.521  0.00  0.00     0.039 A 
ATOM      9  S   UNL d   1      52.050  34.885  52.904  0.00  0.00    -0.066 SA
ATOM     10  O   UNL d   1      51.888  32.362  52.342  0.00  0.00    -0.265 OA
ATOM     11  N   UNL d   1      51.357  34.033  51.937  0.00  0.00    -0.141 N 
ENDROOT
BRANCH   5  12
ATOM     12  C   UNL d   1      52.838  31.499  53.374  0.00  0.00     0.086 A 
ATOM     13  C   UNL d   1      53.537  31.140  53.121  0.00  0.00     0.019 A 
ATOM     14  C   UNL d   1      53.576  30.313  53.049  0.00  0.00     0.002 A 
ATOM     15  C   UNL d   1      52.917  29.852  53.231  0.00  0.00     0.000 A 
ATOM     16  C   UNL d   1      52.222  30.211  53.483  0.00  0.00     0.002 A 
ATOM     17  C   UNL d   1      52.956  29.033  53.161  0.00  0.00     0.000 C 
ATOM     18  C   UNL d   1      52.182  31.038  53.554  0.00  0.00     0.019 A 
ENDBRANCH   5  12
BRANCH   3  19
ATOM     19  C   UNL d   1      53.633  33.916  54.691  0.00  0.00     0.320 C 
ATOM     20  O   UNL d   1      53.244  34.249  55.334  0.00  0.00    -0.257 OA
BRANCH  19  21
ATOM     21  O   UNL d   1      54.457  33.971  54.632  0.00  0.00    -0.270 OA
BRANCH  21  22
ATOM     22  C   UNL d   1      54.920  33.952  55.309  0.00  0.00     0.126 C 
ATOM     23  C   UNL d   1      55.749  33.983  55.248  0.00  0.00     0.029 C 
ENDBRANCH  21  22
ENDBRANCH  19  21
ENDBRANCH   3  19
TORSDOF 4
ENDMDL
MODEL 5
REMARK VINA RESULT:      -7.4      1.433      3.268
REMARK  4 active torsions:
REMARK  status: ('A' for Active; 'I' for Inactive)
REMARK    1  A    between atoms: C_10  and  C_3 
REMARK    2  A    between atoms: C_11  and  N_5 
REMARK    3  A    between atoms: O_17  and  C_10 
REMARK    4  A    between atoms: C_21  and  O_17 
ROOT
ATOM      1  C   UNL d   1      52.071  33.285  53.266  0.00  0.00     0.086 A 
ATOM      2  C   UNL d   1      52.043  32.503  53.015  0.00  0.00     0.038 A 
ATOM      3  C   UNL d   1      52.663  31.990  53.192  0.00  0.00     0.165 A 
ATOM      4  C   UNL d   1      52.722  33.559  53.697  0.00  0.00     0.282 A 
ATOM      5  N   UNL d   1      53.341  33.049  53.875  0.00  0.00    -0.194 N 
ATOM      6  N   UNL d   1      53.315  32.264  53.624  0.00  0.00    -0.157 NA
ATOM      7  C   UNL d   1      51.378  33.656  53.007  0.00  0.00     0.137 A 
ATOM      8  C   UNL d   1      51.335  32.395  52.604  0.00  0.00     0.039 A 
ATOM      9  S   UNL d   1      50.930  33.102  52.600  0.00  0.00    -0.066 SA
ATOM     10  O   UNL d   1      52.753  34.350  53.953  0.00  0.00    -0.265 OA
ATOM     11  N   UNL d   1      51.156  34.449  53.127  0.00  0.00    -0.141 N 
ENDROOT
BRANCH   5  12
ATOM     12  C   UNL d   1      53.989  33.321  54.304  0.00  0.00     0.086 A 
ATOM     13  C   UNL d   1      53.929  33.423  55.120  0.00  0.00     0.019 A 
ATOM     14  C   UNL d   1      54.582  33.697  55.553  0.00  0.00     0.002 A 
ATOM     15  C   UNL d   1      55.291  33.868  55.166  0.00  0.00     0.000 A 
ATOM     16  C   UNL d   1      55.349  33.766  54.353  0.00  0.00     0.002 A 
ATOM     17  C   UNL d   1      55.938  34.140  55.595  0.00  0.00     0.000 C 
ATOM     18  C   UNL d   1      54.695  33.491  53.920  0.00  0.00     0.019 A 
ENDBRANCH   5  12
BRANCH   3  19
ATOM     19  C   UNL d   1      52.632  31.199  52.937  0.00  0.00     0.320 C 
ATOM     20  O   UNL d   1      52.630  31.030  52.133  0.00  0.00    -0.257 OA
BRANCH  19  21
ATOM     21  O   UNL d   1      52.604  30.583  53.490  0.00  0.00    -0.270 OA
BRANCH  21  22
ATOM     22  C   UNL d   1      52.870  29.834  53.285  0.00  0.00     0.126 C 
ATOM     23  C   UNL d   1      53.029  29.272  53.877  0.00  0.00     0.029 C 
ENDBRANCH  21  22
ENDBRANCH  19  21
ENDBRANCH   3  19
TORSDOF 4
ENDMDL
MODEL 6
REMARK VINA RESULT:      -7.3      1.652      4.002
REMARK  4 active torsions:
REMARK  status: ('A' for Active; 'I' for Inactive)
REMARK    1  A    between atoms: C_10  and  C_3 
REMARK    2  A    between atoms: C_11  and  N_5 
REMARK    3  A    between atoms: O_17  and  C_10 
REMARK    4  A    between atoms: C_21  and  O_17 
ROOT
ATOM      1  C   UNL d   1      53.133  31.266  53.431  0.00  0.00     0.086 A 
ATOM      2  C   UNL d   1      52.446  31.630  53.168  0.00  0.00     0.038 A 
ATOM      3  C   UNL d   1      52.329  32.436  53.297  0.00  0.00     0.165 A 
ATOM      4  C   UNL d   1      53.711  31.708  53.827  0.00  0.00     0.282 A 
ATOM      5  N   UNL d   1      53.596  32.511  53.957  0.00  0.00    -0.194 N 
ATOM      6  N   UNL d   1      52.907  32.878  53.693  0.00  0.00    -0.157 NA
ATOM      7  C   UNL d   1      53.090  30.467  53.223  0.00  0.00     0.137 A 
ATOM      8  C   UNL d   1      51.982  31.055  52.799  0.00  0.00     0.039 A 
ATOM      9  S   UNL d   1      52.378  30.344  52.833  0.00  0.00    -0.066 SA
ATOM     10  O   UNL d   1      54.408  31.342  54.096  0.00  0.00    -0.265 OA
ATOM     11  N   UNL d   1      53.656  29.875  53.372  0.00  0.00    -0.141 N 
ENDROOT
BRANCH   5  12
ATOM     12  C   UNL d   1      54.170  32.951  54.350  0.00  0.00     0.086 A 
ATOM     13  C   UNL d   1      54.125  33.048  55.169  0.00  0.00     0.019 A 
ATOM     14  C   UNL d   1      54.705  33.492  55.566  0.00  0.00     0.002 A 
ATOM     15  C   UNL d   1      55.324  33.835  55.142  0.00  0.00     0.000 A 
ATOM     16  C   UNL d   1      55.367  33.736  54.327  0.00  0.00     0.002 A 
ATOM     17  C   UNL d   1      55.898  34.274  55.535  0.00  0.00     0.000 C 
ATOM     18  C   UNL d   1      54.788  33.292  53.930  0.00  0.00     0.019 A 
ENDBRANCH   5  12
BRANCH   3  19
ATOM     19  C   UNL d   1      51.632  32.802  53.029  0.00  0.00     0.320 C 
ATOM     20  O   UNL d   1      50.920  32.649  53.408  0.00  0.00    -0.257 OA
BRANCH  19  21
ATOM     21  O   UNL d   1      51.654  33.319  52.383  0.00  0.00    -0.270 OA
BRANCH  21  22
ATOM     22  C   UNL d   1      51.080  33.900  52.301  0.00  0.00     0.126 C 
ATOM     23  C   UNL d   1      51.067  34.381  51.622  0.00  0.00     0.029 C 
ENDBRANCH  21  22
ENDBRANCH  19  21
ENDBRANCH   3  19
TORSDOF 4
ENDMDL
