MODEL 1
REMARK VINA RESULT:      -7.0      0.000      0.000
REMARK  3 active torsions:
REMARK  status: ('A' for Active; 'I' for Inactive)
REMARK    1  A    between atoms: N_4  and  C_1 
REMARK    2  A    between atoms: C_5  and  C_3 
REMARK       I    between atoms: C_8  and  N_4 
REMARK    3  A    between atoms: C_9  and  C_8 
ROOT
ATOM      1  C   UNL d   1      57.941  -0.200  30.501  0.00  0.00     0.204 A 
ATOM      2  S   UNL d   1      57.647  -0.578  31.078  0.00  0.00    -0.031 SA
ATOM      3  C   UNL d   1      56.957  -0.115  31.402  0.00  0.00     0.119 A 
ATOM      4  N   UNL d   1      57.500   0.538  30.370  0.00  0.00    -0.123 NA
ATOM      5  N   UNL d   1      56.929   0.565  30.910  0.00  0.00    -0.143 NA
ENDROOT
BRANCH   3   6
ATOM      6  C   UNL d   1      56.500  -0.319  32.006  0.00  0.00     0.081 A 
ATOM      7  C   UNL d   1      56.219   0.653  32.322  0.00  0.00     0.023 A 
ATOM      8  C   UNL d   1      55.715   0.669  32.975  0.00  0.00     0.045 A 
ATOM      9  C   UNL d   1      55.482  -0.096  33.317  0.00  0.00    -0.022 A 
ATOM     10  C   UNL d   1      55.183  -0.123  33.708  0.00  0.00    -0.022 A 
ATOM     11  C   UNL d   1      55.681  -0.838  33.096  0.00  0.00    -0.008 A 
ATOM     12  C   UNL d   1      56.303  -1.060  32.299  0.00  0.00    -0.017 A 
ATOM     13  C   UNL d   1      55.457  -1.525  33.423  0.00  0.00    -0.001 A 
ATOM     14  C   UNL d   1      55.538  -0.728  33.277  0.00  0.00    -0.008 A 
ATOM     15  C   UNL d   1      56.042  -0.744  32.623  0.00  0.00    -0.017 A 
ENDBRANCH   3   6
BRANCH   1  16
ATOM     16  N   UNL d   1      58.571  -0.348  29.996  0.00  0.00    -0.248 N 
ATOM     17  C   UNL d   1      59.321  -0.020  30.088  0.00  0.00     0.289 C 
ATOM     18  O   UNL d   1      59.457   0.498  30.734  0.00  0.00    -0.264 OA
ATOM     19  C   UNL d   1      58.457  -0.833  29.385  0.00  0.00     0.104 C 
BRANCH  17  20
ATOM     20  C   UNL d   1      59.935  -0.192  29.559  0.00  0.00     0.156 A 
ATOM     21  O   UNL d   1      60.039  -0.796  29.000  0.00  0.00    -0.300 OA
ATOM     22  C   UNL d   1      60.798  -0.661  28.629  0.00  0.00     0.123 A 
ATOM     23  C   UNL d   1      61.130  -0.016  28.944  0.00  0.00     0.029 A 
ATOM     24  C   UNL d   1      60.621   0.285  29.513  0.00  0.00     0.032 A 
ENDBRANCH  17  20
ENDBRANCH   1  16
TORSDOF 3
ENDMDL
MODEL 2
REMARK VINA RESULT:      -5.9      1.555      4.923
REMARK  3 active torsions:
REMARK  status: ('A' for Active; 'I' for Inactive)
REMARK    1  A    between atoms: N_4  and  C_1 
REMARK    2  A    between atoms: C_5  and  C_3 
REMARK       I    between atoms: C_8  and  N_4 
REMARK    3  A    between atoms: C_9  and  C_8 
ROOT
ATOM      1  C   UNL d   1      57.473  -0.309  30.891  0.00  0.00     0.204 A 
ATOM      2  S   UNL d   1      57.856  -0.931  30.721  0.00  0.00    -0.031 SA
ATOM      3  C   UNL d   1      58.215  -0.834  29.910  0.00  0.00     0.119 A 
ATOM      4  N   UNL d   1      57.525   0.263  30.239  0.00  0.00    -0.123 NA
ATOM      5  N   UNL d   1      57.964  -0.067  29.676  0.00  0.00    -0.143 NA
ENDROOT
BRANCH   3   6
ATOM      6  C   UNL d   1      58.656  -1.357  29.528  0.00  0.00     0.081 A 
ATOM      7  C   UNL d   1      59.496  -0.740  29.334  0.00  0.00     0.023 A 
ATOM      8  C   UNL d   1      60.107  -1.111  28.922  0.00  0.00     0.045 A 
ATOM      9  C   UNL d   1      59.989  -1.945  28.702  0.00  0.00    -0.022 A 
ATOM     10  C   UNL d   1      60.334  -2.197  28.456  0.00  0.00    -0.022 A 
ATOM     11  C   UNL d   1      59.367  -2.428  28.837  0.00  0.00    -0.008 A 
ATOM     12  C   UNL d   1      58.508  -2.143  29.339  0.00  0.00    -0.017 A 
ATOM     13  C   UNL d   1      59.280  -3.188  28.628  0.00  0.00    -0.001 A 
ATOM     14  C   UNL d   1      59.596  -2.444  28.724  0.00  0.00    -0.008 A 
ATOM     15  C   UNL d   1      58.985  -2.072  29.136  0.00  0.00    -0.017 A 
ENDBRANCH   3   6
BRANCH   1  16
ATOM     16  N   UNL d   1      57.036  -0.082  31.547  0.00  0.00    -0.248 N 
ATOM     17  C   UNL d   1      56.617  -0.608  32.025  0.00  0.00     0.289 C 
ATOM     18  O   UNL d   1      56.633  -1.425  31.834  0.00  0.00    -0.264 OA
ATOM     19  C   UNL d   1      57.012   0.682  31.738  0.00  0.00     0.104 C 
BRANCH  17  20
ATOM     20  C   UNL d   1      56.186  -0.344  32.681  0.00  0.00     0.156 A 
ATOM     21  O   UNL d   1      56.278   0.308  33.185  0.00  0.00    -0.300 OA
ATOM     22  C   UNL d   1      55.645   0.268  33.760  0.00  0.00     0.123 A 
ATOM     23  C   UNL d   1      55.200  -0.369  33.610  0.00  0.00     0.029 A 
ATOM     24  C   UNL d   1      55.512  -0.756  32.958  0.00  0.00     0.032 A 
ENDBRANCH  17  20
ENDBRANCH   1  16
TORSDOF 3
ENDMDL
MODEL 3
REMARK VINA RESULT:      -5.5      1.068      1.466
REMARK  3 active torsions:
REMARK  status: ('A' for Active; 'I' for Inactive)
REMARK    1  A    between atoms: N_4  and  C_1 
REMARK    2  A    between atoms: C_5  and  C_3 
REMARK       I    between atoms: C_8  and  N_4 
REMARK    3  A    between atoms: C_9  and  C_8 
ROOT
ATOM      1  C   UNL d   1      57.360  -0.298  31.319  0.00  0.00     0.204 A 
ATOM      2  S   UNL d   1      56.971   0.153  31.774  0.00  0.00    -0.031 SA
ATOM      3  C   UNL d   1      56.512  -0.349  32.352  0.00  0.00     0.119 A 
ATOM      4  N   UNL d   1      57.216  -1.130  31.527  0.00  0.00    -0.123 NA
ATOM      5  N   UNL d   1      56.717  -1.134  32.134  0.00  0.00    -0.143 NA
ENDROOT
BRANCH   3   6
ATOM      6  C   UNL d   1      56.036  -0.092  32.920  0.00  0.00     0.081 A 
ATOM      7  C   UNL d   1      56.770   0.112  33.656  0.00  0.00     0.023 A 
ATOM      8  C   UNL d   1      56.470   0.405  34.367  0.00  0.00     0.045 A 
ATOM      9  C   UNL d   1      55.608   0.509  34.423  0.00  0.00    -0.022 A 
ATOM     10  C   UNL d   1      55.396   0.682  34.833  0.00  0.00    -0.022 A 
ATOM     11  C   UNL d   1      55.038   0.362  33.883  0.00  0.00    -0.008 A 
ATOM     12  C   UNL d   1      55.219  -0.008  32.933  0.00  0.00    -0.017 A 
ATOM     13  C   UNL d   1      54.255   0.464  33.954  0.00  0.00    -0.001 A 
ATOM     14  C   UNL d   1      55.052   0.450  34.122  0.00  0.00    -0.008 A 
ATOM     15  C   UNL d   1      55.351   0.157  33.411  0.00  0.00    -0.017 A 
ENDBRANCH   3   6
BRANCH   1  16
ATOM     16  N   UNL d   1      57.871  -0.157  30.693  0.00  0.00    -0.248 N 
ATOM     17  C   UNL d   1      58.543   0.317  30.746  0.00  0.00     0.289 C 
ATOM     18  O   UNL d   1      58.723   0.680  31.481  0.00  0.00    -0.264 OA
ATOM     19  C   UNL d   1      57.715  -0.492  29.997  0.00  0.00     0.104 C 
BRANCH  17  20
ATOM     20  C   UNL d   1      59.038   0.439  30.092  0.00  0.00     0.156 A 
ATOM     21  O   UNL d   1      58.884   0.517  29.281  0.00  0.00    -0.300 OA
ATOM     22  C   UNL d   1      59.639   0.632  28.896  0.00  0.00     0.123 A 
ATOM     23  C   UNL d   1      60.212   0.623  29.441  0.00  0.00     0.029 A 
ATOM     24  C   UNL d   1      59.868   0.507  30.176  0.00  0.00     0.032 A 
ENDBRANCH  17  20
ENDBRANCH   1  16
TORSDOF 3
ENDMDL
MODEL 4
REMARK VINA RESULT:      -4.5      2.049      5.107
REMARK  3 active torsions:
REMARK  status: ('A' for Active; 'I' for Inactive)
REMARK    1  A    between atoms: N_4  and  C_1 
REMARK    2  A    between atoms: C_5  and  C_3 
REMARK       I    between atoms: C_8  and  N_4 
REMARK    3  A    between atoms: C_9  and  C_8 
ROOT
ATOM      1  C   UNL d   1      56.712  -0.160  32.372  0.00  0.00     0.204 A 
ATOM      2  S   UNL d   1      57.113   0.170  31.831  0.00  0.00    -0.031 SA
ATOM      3  C   UNL d   1      57.332  -0.444  31.221  0.00  0.00     0.119 A 
ATOM      4  N   UNL d   1      56.616  -1.007  32.199  0.00  0.00    -0.123 NA
ATOM      5  N   UNL d   1      56.988  -1.149  31.521  0.00  0.00    -0.143 NA
ENDROOT
BRANCH   3   6
ATOM      6  C   UNL d   1      57.750  -0.326  30.568  0.00  0.00     0.081 A 
ATOM      7  C   UNL d   1      57.992  -1.335  30.355  0.00  0.00     0.023 A 
ATOM      8  C   UNL d   1      58.450  -1.443  29.676  0.00  0.00     0.045 A 
ATOM      9  C   UNL d   1      58.672  -0.730  29.229  0.00  0.00    -0.022 A 
ATOM     10  C   UNL d   1      58.944  -0.758  28.820  0.00  0.00    -0.022 A 
ATOM     11  C   UNL d   1      58.501   0.038  29.371  0.00  0.00    -0.008 A 
ATOM     12  C   UNL d   1      57.939   0.369  30.175  0.00  0.00    -0.017 A 
ATOM     13  C   UNL d   1      58.714   0.675  28.949  0.00  0.00    -0.001 A 
ATOM     14  C   UNL d   1      58.630  -0.097  29.196  0.00  0.00    -0.008 A 
ATOM     15  C   UNL d   1      58.172   0.011  29.875  0.00  0.00    -0.017 A 
ENDBRANCH   3   6
BRANCH   1  16
ATOM     16  N   UNL d   1      56.366   0.118  33.061  0.00  0.00    -0.248 N 
ATOM     17  C   UNL d   1      55.611  -0.094  33.315  0.00  0.00     0.289 C 
ATOM     18  O   UNL d   1      55.164  -0.627  32.845  0.00  0.00    -0.264 OA
ATOM     19  C   UNL d   1      56.775   0.619  33.512  0.00  0.00     0.104 C 
BRANCH  17  20
ATOM     20  C   UNL d   1      55.292   0.207  34.018  0.00  0.00     0.156 A 
ATOM     21  O   UNL d   1      55.629   0.383  34.755  0.00  0.00    -0.300 OA
ATOM     22  C   UNL d   1      54.998   0.679  35.251  0.00  0.00     0.123 A 
ATOM     23  C   UNL d   1      54.323   0.682  34.838  0.00  0.00     0.029 A 
ATOM     24  C   UNL d   1      54.480   0.398  34.085  0.00  0.00     0.032 A 
ENDBRANCH  17  20
ENDBRANCH   1  16
TORSDOF 3
ENDMDL
