MODEL 1
REMARK VINA RESULT:      -6.6      0.000      0.000
REMARK  3 active torsions:
REMARK  status: ('A' for Active; 'I' for Inactive)
REMARK    1  A    between atoms: N_2  and  S_1 
REMARK    2  A    between atoms: C_3  and  S_1 
REMARK    3  A    between atoms: C_5  and  N_4 
ROOT
ATOM      1  N   UNL d   1     -47.360  12.840  22.957  0.00  0.00    -0.226 N 
ATOM      2  N   UNL d   1     -48.839  13.572  22.960  0.00  0.00    -0.301 N 
ATOM      3  C   UNL d   1     -47.665  13.159  22.251  0.00  0.00     0.111 A 
ATOM      4  C   UNL d   1     -47.795  12.890  23.651  0.00  0.00     0.111 A 
ATOM      5  C   UNL d   1     -48.534  13.256  23.653  0.00  0.00     0.100 A 
ATOM      6  C   UNL d   1     -48.404  13.525  22.252  0.00  0.00     0.100 A 
ENDROOT
BRANCH   1   7
ATOM      7  S   UNL d   1     -46.621  12.473  22.956  0.00  0.00     0.271 S 
ATOM      8  O   UNL d   1     -46.967  11.776  22.686  0.00  0.00    -0.200 OA
ATOM      9  O   UNL d   1     -46.274  13.173  23.226  0.00  0.00    -0.200 OA
BRANCH   7  10
ATOM     10  C   UNL d   1     -45.882  12.107  22.954  0.00  0.00     0.104 A 
ATOM     11  C   UNL d   1     -45.780  11.383  23.325  0.00  0.00     0.015 A 
ATOM     12  C   UNL d   1     -45.041  11.017  23.323  0.00  0.00     0.028 A 
ATOM     13  C   UNL d   1     -44.943  10.287  23.698  0.00  0.00     0.002 C 
ATOM     14  C   UNL d   1     -44.405  11.376  22.951  0.00  0.00     0.140 A 
ATOM     15  C   UNL d   1     -44.501  12.111  22.574  0.00  0.00     0.030 A 
ATOM     16  F   UNL d   1     -43.665  11.010  22.950  0.00  0.00    -0.204 F 
ATOM     17  C   UNL d   1     -45.240  12.477  22.575  0.00  0.00     0.015 A 
ENDBRANCH   7  10
ENDBRANCH   1   7
BRANCH   2  18
ATOM     18  C   UNL d   1     -49.575  13.936  22.962  0.00  0.00     0.064 A 
ATOM     19  C   UNL d   1     -49.630  14.754  22.944  0.00  0.00     0.016 A 
ATOM     20  C   UNL d   1     -50.370  15.121  22.945  0.00  0.00     0.001 A 
ATOM     21  C   UNL d   1     -48.942  15.214  22.924  0.00  0.00     0.002 C 
ATOM     22  C   UNL d   1     -51.051  14.667  22.964  0.00  0.00     0.000 A 
ATOM     23  C   UNL d   1     -51.005  13.838  22.983  0.00  0.00     0.001 A 
ATOM     24  C   UNL d   1     -50.265  13.472  22.981  0.00  0.00     0.016 A 
ATOM     25  C   UNL d   1     -50.210  12.652  23.000  0.00  0.00     0.002 C 
ENDBRANCH   2  18
TORSDOF 3
ENDMDL
MODEL 2
REMARK VINA RESULT:      -6.3      2.073      5.105
REMARK  3 active torsions:
REMARK  status: ('A' for Active; 'I' for Inactive)
REMARK    1  A    between atoms: N_2  and  S_1 
REMARK    2  A    between atoms: C_3  and  S_1 
REMARK    3  A    between atoms: C_5  and  N_4 
ROOT
ATOM      1  N   UNL d   1     -47.644  13.382  22.775  0.00  0.00    -0.226 N 
ATOM      2  N   UNL d   1     -46.275  12.466  22.871  0.00  0.00    -0.301 N 
ATOM      3  C   UNL d   1     -47.064  13.565  23.343  0.00  0.00     0.111 A 
ATOM      4  C   UNL d   1     -47.534  12.749  22.265  0.00  0.00     0.111 A 
ATOM      5  C   UNL d   1     -46.849  12.290  22.313  0.00  0.00     0.100 A 
ATOM      6  C   UNL d   1     -46.379  13.107  23.392  0.00  0.00     0.100 A 
ENDROOT
BRANCH   1   7
ATOM      7  S   UNL d   1     -48.328  13.840  22.726  0.00  0.00     0.271 S 
ATOM      8  O   UNL d   1     -48.676  13.382  23.316  0.00  0.00    -0.200 OA
ATOM      9  O   UNL d   1     -47.979  14.299  22.135  0.00  0.00    -0.200 OA
BRANCH   7  10
ATOM     10  C   UNL d   1     -49.012  14.298  22.678  0.00  0.00     0.104 A 
ATOM     11  C   UNL d   1     -49.677  14.007  22.295  0.00  0.00     0.015 A 
ATOM     12  C   UNL d   1     -50.360  14.465  22.247  0.00  0.00     0.028 A 
ATOM     13  C   UNL d   1     -51.028  14.168  21.860  0.00  0.00     0.002 C 
ATOM     14  C   UNL d   1     -50.380  15.213  22.581  0.00  0.00     0.140 A 
ATOM     15  C   UNL d   1     -49.709  15.515  22.971  0.00  0.00     0.030 A 
ATOM     16  F   UNL d   1     -51.064  15.672  22.532  0.00  0.00    -0.204 F 
ATOM     17  C   UNL d   1     -49.025  15.057  23.019  0.00  0.00     0.015 A 
ENDBRANCH   7  10
ENDBRANCH   1   7
BRANCH   2  18
ATOM     18  C   UNL d   1     -45.594  12.010  22.920  0.00  0.00     0.064 A 
ATOM     19  C   UNL d   1     -45.600  11.300  23.331  0.00  0.00     0.016 A 
ATOM     20  C   UNL d   1     -44.916  10.842  23.379  0.00  0.00     0.001 A 
ATOM     21  C   UNL d   1     -46.296  11.043  23.697  0.00  0.00     0.002 C 
ATOM     22  C   UNL d   1     -44.227  11.095  23.016  0.00  0.00     0.000 A 
ATOM     23  C   UNL d   1     -44.211  11.813  22.598  0.00  0.00     0.001 A 
ATOM     24  C   UNL d   1     -44.895  12.271  22.550  0.00  0.00     0.016 A 
ATOM     25  C   UNL d   1     -44.888  12.982  22.138  0.00  0.00     0.002 C 
ENDBRANCH   2  18
TORSDOF 3
ENDMDL
MODEL 3
REMARK VINA RESULT:      -5.7      9.028     10.547
REMARK  3 active torsions:
REMARK  status: ('A' for Active; 'I' for Inactive)
REMARK    1  A    between atoms: N_2  and  S_1 
REMARK    2  A    between atoms: C_3  and  S_1 
REMARK    3  A    between atoms: C_5  and  N_4 
ROOT
ATOM      1  N   UNL d   1     -38.800  14.666  19.322  0.00  0.00    -0.226 N 
ATOM      2  N   UNL d   1     -38.541  14.290  17.737  0.00  0.00    -0.301 N 
ATOM      3  C   UNL d   1     -39.414  14.330  18.872  0.00  0.00     0.111 A 
ATOM      4  C   UNL d   1     -38.069  14.809  18.978  0.00  0.00     0.111 A 
ATOM      5  C   UNL d   1     -37.939  14.621  18.185  0.00  0.00     0.100 A 
ATOM      6  C   UNL d   1     -39.285  14.142  18.079  0.00  0.00     0.100 A 
ENDROOT
BRANCH   1   7
ATOM      7  S   UNL d   1     -38.929  14.854  20.115  0.00  0.00     0.271 S 
ATOM      8  O   UNL d   1     -39.601  14.377  20.119  0.00  0.00    -0.200 OA
ATOM      9  O   UNL d   1     -38.255  15.332  20.112  0.00  0.00    -0.200 OA
BRANCH   7  10
ATOM     10  C   UNL d   1     -39.058  15.042  20.908  0.00  0.00     0.104 A 
ATOM     11  C   UNL d   1     -38.775  14.550  21.500  0.00  0.00     0.015 A 
ATOM     12  C   UNL d   1     -38.904  14.737  22.291  0.00  0.00     0.028 A 
ATOM     13  C   UNL d   1     -38.617  14.239  22.885  0.00  0.00     0.002 C 
ATOM     14  C   UNL d   1     -39.317  15.417  22.492  0.00  0.00     0.140 A 
ATOM     15  C   UNL d   1     -39.607  15.921  21.896  0.00  0.00     0.030 A 
ATOM     16  F   UNL d   1     -39.446  15.605  23.284  0.00  0.00    -0.204 F 
ATOM     17  C   UNL d   1     -39.478  15.733  21.104  0.00  0.00     0.015 A 
ENDBRANCH   7  10
ENDBRANCH   1   7
BRANCH   2  18
ATOM     18  C   UNL d   1     -38.412  14.103  16.948  0.00  0.00     0.064 A 
ATOM     19  C   UNL d   1     -38.129  13.361  16.740  0.00  0.00     0.016 A 
ATOM     20  C   UNL d   1     -38.000  13.173  15.947  0.00  0.00     0.001 A 
ATOM     21  C   UNL d   1     -37.973  12.800  17.328  0.00  0.00     0.002 C 
ATOM     22  C   UNL d   1     -38.154  13.727  15.364  0.00  0.00     0.000 A 
ATOM     23  C   UNL d   1     -38.441  14.481  15.565  0.00  0.00     0.001 A 
ATOM     24  C   UNL d   1     -38.570  14.669  16.358  0.00  0.00     0.016 A 
ATOM     25  C   UNL d   1     -38.854  15.411  16.565  0.00  0.00     0.002 C 
ENDBRANCH   2  18
TORSDOF 3
ENDMDL
MODEL 4
REMARK VINA RESULT:      -5.4      8.541      9.426
REMARK  3 active torsions:
REMARK  status: ('A' for Active; 'I' for Inactive)
REMARK    1  A    between atoms: N_2  and  S_1 
REMARK    2  A    between atoms: C_3  and  S_1 
REMARK    3  A    between atoms: C_5  and  N_4 
ROOT
ATOM      1  N   UNL d   1     -39.489  15.041  19.873  0.00  0.00    -0.226 N 
ATOM      2  N   UNL d   1     -40.016  15.360  18.342  0.00  0.00    -0.301 N 
ATOM      3  C   UNL d   1     -39.288  15.763  19.509  0.00  0.00     0.111 A 
ATOM      4  C   UNL d   1     -39.947  14.492  19.471  0.00  0.00     0.111 A 
ATOM      5  C   UNL d   1     -40.210  14.651  18.706  0.00  0.00     0.100 A 
ATOM      6  C   UNL d   1     -39.552  15.922  18.744  0.00  0.00     0.100 A 
ENDROOT
BRANCH   1   7
ATOM      7  S   UNL d   1     -39.225  14.882  20.638  0.00  0.00     0.271 S 
ATOM      8  O   UNL d   1     -38.457  14.791  20.355  0.00  0.00    -0.200 OA
ATOM      9  O   UNL d   1     -39.995  14.973  20.922  0.00  0.00    -0.200 OA
BRANCH   7  10
ATOM     10  C   UNL d   1     -38.962  14.722  21.404  0.00  0.00     0.104 A 
ATOM     11  C   UNL d   1     -38.801  15.338  21.921  0.00  0.00     0.015 A 
ATOM     12  C   UNL d   1     -38.538  15.179  22.685  0.00  0.00     0.028 A 
ATOM     13  C   UNL d   1     -38.377  15.803  23.204  0.00  0.00     0.002 C 
ATOM     14  C   UNL d   1     -38.435  14.404  22.933  0.00  0.00     0.140 A 
ATOM     15  C   UNL d   1     -38.596  13.774  22.413  0.00  0.00     0.030 A 
ATOM     16  F   UNL d   1     -38.172  14.245  23.698  0.00  0.00    -0.204 F 
ATOM     17  C   UNL d   1     -38.859  13.934  21.648  0.00  0.00     0.015 A 
ENDBRANCH   7  10
ENDBRANCH   1   7
BRANCH   2  18
ATOM     18  C   UNL d   1     -40.278  15.519  17.581  0.00  0.00     0.064 A 
ATOM     19  C   UNL d   1     -39.768  15.437  16.943  0.00  0.00     0.016 A 
ATOM     20  C   UNL d   1     -40.032  15.597  16.178  0.00  0.00     0.001 A 
ATOM     21  C   UNL d   1     -38.987  15.195  17.069  0.00  0.00     0.002 C 
ATOM     22  C   UNL d   1     -40.805  15.837  16.052  0.00  0.00     0.000 A 
ATOM     23  C   UNL d   1     -41.328  15.922  16.692  0.00  0.00     0.001 A 
ATOM     24  C   UNL d   1     -41.065  15.763  17.457  0.00  0.00     0.016 A 
ATOM     25  C   UNL d   1     -41.575  15.844  18.095  0.00  0.00     0.002 C 
ENDBRANCH   2  18
TORSDOF 3
ENDMDL
