MODEL 1
REMARK VINA RESULT:      32.7      0.000      0.000
REMARK  5 active torsions:
REMARK  status: ('A' for Active; 'I' for Inactive)
REMARK    1  A    between atoms: N_2  and  S_1 
REMARK    2  A    between atoms: C_3  and  S_1 
REMARK    3  A    between atoms: C_8  and  N_2 
REMARK    4  A    between atoms: C_12  and  C_8 
REMARK    5  A    between atoms: O_13  and  C_9 
ROOT
ATOM      1  S   UNL d   1      59.214  49.631  51.371  0.00  0.00     0.285 S 
ATOM      2  O   UNL d   1      59.516  49.561  50.606  0.00  0.00    -0.198 OA
ATOM      3  O   UNL d   1      58.909  49.702  52.144  0.00  0.00    -0.198 OA
ENDROOT
BRANCH   1   4
ATOM      4  N   UNL d   1      58.447  49.622  51.068  0.00  0.00    -0.157 NA
BRANCH   4   5
ATOM      5  C   UNL d   1      58.310  49.367  50.298  0.00  0.00     0.112 C 
BRANCH   5   6
ATOM      6  C   UNL d   1      57.555  49.426  49.971  0.00  0.00     0.020 A 
ATOM      7  C   UNL d   1      57.451  49.331  49.162  0.00  0.00     0.002 A 
ATOM      8  C   UNL d   1      56.696  49.390  48.835  0.00  0.00     0.000 A 
ATOM      9  C   UNL d   1      56.049  49.544  49.319  0.00  0.00     0.000 A 
ATOM     10  C   UNL d   1      56.163  49.638  50.133  0.00  0.00     0.000 A 
ATOM     11  C   UNL d   1      56.918  49.579  50.460  0.00  0.00     0.002 A 
ENDBRANCH   5   6
ENDBRANCH   4   5
ENDBRANCH   1   4
BRANCH   1  12
ATOM     12  C   UNL d   1      59.982  49.640  51.673  0.00  0.00     0.105 A 
ATOM     13  C   UNL d   1      60.105  49.678  52.486  0.00  0.00     0.015 A 
ATOM     14  C   UNL d   1      60.876  49.688  52.790  0.00  0.00     0.025 A 
ATOM     15  C   UNL d   1      61.521  49.658  52.279  0.00  0.00     0.094 A 
ATOM     16  C   UNL d   1      61.402  49.620  51.458  0.00  0.00     0.025 A 
ATOM     17  C   UNL d   1      60.630  49.611  51.154  0.00  0.00     0.015 A 
BRANCH  15  18
ATOM     18  O   UNL d   1      62.288  49.668  52.581  0.00  0.00    -0.328 OA
ATOM     19  C   UNL d   1      62.881  49.214  52.217  0.00  0.00     0.181 C 
ENDBRANCH  15  18
ENDBRANCH   1  12
TORSDOF 5
ENDMDL
