MODEL 1
REMARK VINA RESULT:      47.2      0.000      0.000
REMARK  5 active torsions:
REMARK  status: ('A' for Active; 'I' for Inactive)
REMARK    1  A    between atoms: C_6  and  N_2 
REMARK    2  A    between atoms: C_8  and  C_6 
REMARK    3  A    between atoms: C_13  and  C_8 
REMARK    4  A    between atoms: C_9  and  O_12 
REMARK    5  A    between atoms: O_12  and  C_13 
ROOT
ATOM      1  N   UNL d   1      60.278  49.661  50.190  0.00  0.00    -0.227 NA
ATOM      2  N   UNL d   1      59.788  49.545  51.430  0.00  0.00    -0.289 N 
ATOM      3  C   UNL d   1      60.502  49.595  50.995  0.00  0.00     0.148 A 
ATOM      4  C   UNL d   1      59.154  49.579  50.913  0.00  0.00     0.083 A 
ATOM      5  C   UNL d   1      59.471  49.653  50.111  0.00  0.00     0.099 A 
ATOM      6  C   UNL d   1      61.277  49.583  51.300  0.00  0.00     0.041 C 
ATOM      7  C   UNL d   1      58.352  49.553  51.046  0.00  0.00     0.019 A 
ATOM      8  C   UNL d   1      58.904  49.696  49.501  0.00  0.00     0.021 A 
ATOM      9  C   UNL d   1      57.860  49.599  50.403  0.00  0.00     0.002 A 
ATOM     10  C   UNL d   1      58.156  49.669  49.655  0.00  0.00     0.002 A 
ENDROOT
BRANCH   2  11
ATOM     11  C   UNL d   1      59.894  49.479  52.219  0.00  0.00     0.084 C 
BRANCH  11  12
ATOM     12  C   UNL d   1      59.312  49.685  52.766  0.00  0.00     0.046 C 
BRANCH  12  13
ATOM     13  C   UNL d   1      59.212  49.303  53.483  0.00  0.00     0.124 C 
BRANCH  13  14
ATOM     14  O   UNL d   1      59.163  49.698  54.196  0.00  0.00    -0.305 OA
BRANCH  14  15
ATOM     15  C   UNL d   1      58.493  49.687  54.676  0.00  0.00     0.100 A 
ATOM     16  C   UNL d   1      57.742  49.658  54.306  0.00  0.00     0.025 A 
ATOM     17  C   UNL d   1      57.045  49.646  54.773  0.00  0.00     0.002 A 
ATOM     18  C   UNL d   1      57.099  49.664  55.608  0.00  0.00     0.000 A 
ATOM     19  C   UNL d   1      57.850  49.693  55.978  0.00  0.00     0.002 A 
ATOM     20  C   UNL d   1      58.520  49.704  55.500  0.00  0.00     0.025 A 
ENDBRANCH  14  15
ENDBRANCH  13  14
ENDBRANCH  12  13
ENDBRANCH  11  12
ENDBRANCH   2  11
TORSDOF 5
ENDMDL
MODEL 2
REMARK VINA RESULT:      48.1      1.874      3.929
REMARK  5 active torsions:
REMARK  status: ('A' for Active; 'I' for Inactive)
REMARK    1  A    between atoms: C_6  and  N_2 
REMARK    2  A    between atoms: C_8  and  C_6 
REMARK    3  A    between atoms: C_13  and  C_8 
REMARK    4  A    between atoms: C_9  and  O_12 
REMARK    5  A    between atoms: O_12  and  C_13 
ROOT
ATOM      1  N   UNL d   1      56.141  49.356  50.988  0.00  0.00    -0.227 NA
ATOM      2  N   UNL d   1      57.460  49.578  50.939  0.00  0.00    -0.289 N 
ATOM      3  C   UNL d   1      56.788  49.432  50.461  0.00  0.00     0.148 A 
ATOM      4  C   UNL d   1      57.233  49.590  51.725  0.00  0.00     0.083 A 
ATOM      5  C   UNL d   1      56.380  49.446  51.757  0.00  0.00     0.099 A 
ATOM      6  C   UNL d   1      56.767  49.375  49.630  0.00  0.00     0.041 C 
ATOM      7  C   UNL d   1      57.663  49.708  52.406  0.00  0.00     0.019 A 
ATOM      8  C   UNL d   1      56.043  49.438  52.520  0.00  0.00     0.021 A 
ATOM      9  C   UNL d   1      57.268  49.686  53.113  0.00  0.00     0.002 A 
ATOM     10  C   UNL d   1      56.472  49.552  53.142  0.00  0.00     0.002 A 
ENDROOT
BRANCH   2  11
ATOM     11  C   UNL d   1      58.138  49.667  50.526  0.00  0.00     0.084 C 
BRANCH  11  12
ATOM     12  C   UNL d   1      58.880  49.672  50.884  0.00  0.00     0.046 C 
BRANCH  12  13
ATOM     13  C   UNL d   1      59.576  49.509  50.484  0.00  0.00     0.124 C 
BRANCH  13  14
ATOM     14  O   UNL d   1      60.064  48.883  50.674  0.00  0.00    -0.305 OA
BRANCH  14  15
ATOM     15  C   UNL d   1      60.688  48.941  51.210  0.00  0.00     0.100 A 
ATOM     16  C   UNL d   1      61.089  48.238  51.427  0.00  0.00     0.025 A 
ATOM     17  C   UNL d   1      61.727  48.271  51.970  0.00  0.00     0.002 A 
ATOM     18  C   UNL d   1      61.963  49.004  52.296  0.00  0.00     0.000 A 
ATOM     19  C   UNL d   1      61.562  49.707  52.080  0.00  0.00     0.002 A 
ATOM     20  C   UNL d   1      60.939  49.651  51.545  0.00  0.00     0.025 A 
ENDBRANCH  14  15
ENDBRANCH  13  14
ENDBRANCH  12  13
ENDBRANCH  11  12
ENDBRANCH   2  11
TORSDOF 5
ENDMDL
MODEL 3
REMARK VINA RESULT:      49.3      2.560      4.588
REMARK  5 active torsions:
REMARK  status: ('A' for Active; 'I' for Inactive)
REMARK    1  A    between atoms: C_6  and  N_2 
REMARK    2  A    between atoms: C_8  and  C_6 
REMARK    3  A    between atoms: C_13  and  C_8 
REMARK    4  A    between atoms: C_9  and  O_12 
REMARK    5  A    between atoms: O_12  and  C_13 
ROOT
ATOM      1  N   UNL d   1      59.647  49.689  52.147  0.00  0.00    -0.227 NA
ATOM      2  N   UNL d   1      60.289  49.632  50.974  0.00  0.00    -0.289 N 
ATOM      3  C   UNL d   1      60.410  49.656  51.803  0.00  0.00     0.148 A 
ATOM      4  C   UNL d   1      59.486  49.649  50.819  0.00  0.00     0.083 A 
ATOM      5  C   UNL d   1      59.071  49.686  51.577  0.00  0.00     0.099 A 
ATOM      6  C   UNL d   1      61.141  49.649  52.203  0.00  0.00     0.041 C 
ATOM      7  C   UNL d   1      59.075  49.638  50.117  0.00  0.00     0.019 A 
ATOM      8  C   UNL d   1      58.238  49.708  51.533  0.00  0.00     0.021 A 
ATOM      9  C   UNL d   1      58.267  49.661  50.151  0.00  0.00     0.002 A 
ATOM     10  C   UNL d   1      57.879  49.696  50.859  0.00  0.00     0.002 A 
ENDROOT
BRANCH   2  11
ATOM     11  C   UNL d   1      60.965  49.599  50.550  0.00  0.00     0.084 C 
BRANCH  11  12
ATOM     12  C   UNL d   1      61.137  48.980  50.033  0.00  0.00     0.046 C 
BRANCH  12  13
ATOM     13  C   UNL d   1      61.372  48.237  50.282  0.00  0.00     0.124 C 
BRANCH  13  14
ATOM     14  O   UNL d   1      61.806  47.726  49.816  0.00  0.00    -0.305 OA
BRANCH  14  15
ATOM     15  C   UNL d   1      61.704  46.907  49.822  0.00  0.00     0.100 A 
ATOM     16  C   UNL d   1      62.105  46.454  49.243  0.00  0.00     0.025 A 
ATOM     17  C   UNL d   1      62.017  45.620  49.229  0.00  0.00     0.002 A 
ATOM     18  C   UNL d   1      61.530  45.240  49.794  0.00  0.00     0.000 A 
ATOM     19  C   UNL d   1      61.129  45.693  50.374  0.00  0.00     0.002 A 
ATOM     20  C   UNL d   1      61.230  46.510  50.368  0.00  0.00     0.025 A 
ENDBRANCH  14  15
ENDBRANCH  13  14
ENDBRANCH  12  13
ENDBRANCH  11  12
ENDBRANCH   2  11
TORSDOF 5
ENDMDL
