MODEL 1
REMARK VINA RESULT:      -5.0      0.000      0.000
REMARK  4 active torsions:
REMARK  status: ('A' for Active; 'I' for Inactive)
REMARK    1  A    between atoms: C_9  and  C_3 
REMARK    2  A    between atoms: C_6  and  C_10 
REMARK    3  A    between atoms: S_7  and  C_9 
REMARK    4  A    between atoms: C_10  and  S_7 
ROOT
ATOM      1  N   UNL d   1     -41.978-121.937 -53.057  0.00  0.00    -0.218 NA
ATOM      2  N   UNL d   1     -41.148-122.947 -53.244  0.00  0.00    -0.218 NA
ATOM      3  C   UNL d   1     -41.503-122.480 -52.663  0.00  0.00     0.206 A 
ATOM      4  C   UNL d   1     -41.919-122.062 -53.853  0.00  0.00     0.101 A 
ATOM      5  C   UNL d   1     -41.400-122.693 -53.969  0.00  0.00     0.101 A 
ATOM      6  C   UNL d   1     -42.248-121.712 -54.505  0.00  0.00     0.021 A 
ATOM      7  C   UNL d   1     -41.230-122.951 -54.734  0.00  0.00     0.021 A 
ATOM      8  C   UNL d   1     -42.096-121.947 -55.266  0.00  0.00     0.002 A 
ATOM      9  C   UNL d   1     -41.577-122.578 -55.383  0.00  0.00     0.002 A 
ENDROOT
BRANCH   3  10
ATOM     10  C   UNL d   1     -41.401-122.547 -51.847  0.00  0.00    -0.027 C 
BRANCH  10  11
ATOM     11  S   UNL d   1     -41.299-122.614 -51.031  0.00  0.00    -0.041 SA
BRANCH  11  12
ATOM     12  C   UNL d   1     -41.832-123.057 -50.583  0.00  0.00     0.043 C 
BRANCH  12  13
ATOM     13  C   UNL d   1     -41.775-123.064 -49.760  0.00  0.00     0.007 C 
ATOM     14  C   UNL d   1     -42.372-122.718 -49.302  0.00  0.00     0.001 C 
ATOM     15  C   UNL d   1     -41.122-123.415 -49.396  0.00  0.00     0.001 C 
ENDBRANCH  12  13
ENDBRANCH  11  12
ENDBRANCH  10  11
ENDBRANCH   3  10
TORSDOF 4
ENDMDL
MODEL 2
REMARK VINA RESULT:      -4.5      1.016      4.218
REMARK  4 active torsions:
REMARK  status: ('A' for Active; 'I' for Inactive)
REMARK    1  A    between atoms: C_9  and  C_3 
REMARK    2  A    between atoms: C_6  and  C_10 
REMARK    3  A    between atoms: S_7  and  C_9 
REMARK    4  A    between atoms: C_10  and  S_7 
ROOT
ATOM      1  N   UNL d   1     -41.920-122.366 -51.476  0.00  0.00    -0.218 NA
ATOM      2  N   UNL d   1     -41.123-123.416 -51.553  0.00  0.00    -0.218 NA
ATOM      3  C   UNL d   1     -41.462-122.807 -51.997  0.00  0.00     0.206 A 
ATOM      4  C   UNL d   1     -41.867-122.689 -50.738  0.00  0.00     0.101 A 
ATOM      5  C   UNL d   1     -41.368-123.345 -50.786  0.00  0.00     0.101 A 
ATOM      6  C   UNL d   1     -42.186-122.503 -50.017  0.00  0.00     0.021 A 
ATOM      7  C   UNL d   1     -41.208-123.791 -50.112  0.00  0.00     0.021 A 
ATOM      8  C   UNL d   1     -42.043-122.927 -49.340  0.00  0.00     0.002 A 
ATOM      9  C   UNL d   1     -41.545-123.582 -49.388  0.00  0.00     0.002 A 
ENDROOT
BRANCH   3  10
ATOM     10  C   UNL d   1     -41.360-122.670 -52.804  0.00  0.00    -0.027 C 
BRANCH  10  11
ATOM     11  S   UNL d   1     -41.259-122.533 -53.611  0.00  0.00    -0.041 SA
BRANCH  11  12
ATOM     12  C   UNL d   1     -41.916-122.402 -54.094  0.00  0.00     0.043 C 
BRANCH  12  13
ATOM     13  C   UNL d   1     -41.819-122.319 -54.909  0.00  0.00     0.007 C 
ATOM     14  C   UNL d   1     -41.148-122.636 -55.278  0.00  0.00     0.001 C 
ATOM     15  C   UNL d   1     -42.390-121.922 -55.353  0.00  0.00     0.001 C 
ENDBRANCH  12  13
ENDBRANCH  11  12
ENDBRANCH  10  11
ENDBRANCH   3  10
TORSDOF 4
ENDMDL
MODEL 3
REMARK VINA RESULT:      -3.7      1.424      4.545
REMARK  4 active torsions:
REMARK  status: ('A' for Active; 'I' for Inactive)
REMARK    1  A    between atoms: C_9  and  C_3 
REMARK    2  A    between atoms: C_6  and  C_10 
REMARK    3  A    between atoms: S_7  and  C_9 
REMARK    4  A    between atoms: C_10  and  S_7 
ROOT
ATOM      1  N   UNL d   1     -42.427-123.477 -50.505  0.00  0.00    -0.218 NA
ATOM      2  N   UNL d   1     -41.268-123.025 -50.061  0.00  0.00    -0.218 NA
ATOM      3  C   UNL d   1     -41.683-123.225 -50.747  0.00  0.00     0.206 A 
ATOM      4  C   UNL d   1     -42.472-123.435 -49.700  0.00  0.00     0.101 A 
ATOM      5  C   UNL d   1     -41.748-123.152 -49.422  0.00  0.00     0.101 A 
ATOM      6  C   UNL d   1     -43.050-123.605 -49.158  0.00  0.00     0.021 A 
ATOM      7  C   UNL d   1     -41.628-123.050 -48.613  0.00  0.00     0.021 A 
ATOM      8  C   UNL d   1     -42.956-123.513 -48.357  0.00  0.00     0.002 A 
ATOM      9  C   UNL d   1     -42.232-123.230 -48.080  0.00  0.00     0.002 A 
ENDROOT
BRANCH   3  10
ATOM     10  C   UNL d   1     -41.404-123.180 -51.522  0.00  0.00    -0.027 C 
BRANCH  10  11
ATOM     11  S   UNL d   1     -41.125-123.135 -52.297  0.00  0.00    -0.041 SA
BRANCH  11  12
ATOM     12  C   UNL d   1     -41.651-122.999 -52.918  0.00  0.00     0.043 C 
BRANCH  12  13
ATOM     13  C   UNL d   1     -41.391-123.056 -53.699  0.00  0.00     0.007 C 
ATOM     14  C   UNL d   1     -41.137-122.376 -54.099  0.00  0.00     0.001 C 
ATOM     15  C   UNL d   1     -41.386-123.788 -54.079  0.00  0.00     0.001 C 
ENDBRANCH  12  13
ENDBRANCH  11  12
ENDBRANCH  10  11
ENDBRANCH   3  10
TORSDOF 4
ENDMDL
