MODEL 1
REMARK VINA RESULT:      -7.6      0.000      0.000
REMARK  3 active torsions:
REMARK  status: ('A' for Active; 'I' for Inactive)
REMARK    1  A    between atoms: N_5  and  C_1 
REMARK    2  A    between atoms: C_8  and  C_2 
REMARK       I    between atoms: C_7  and  N_5 
REMARK       I    between atoms: N_9  and  C_7 
REMARK    3  A    between atoms: C_13  and  N_9 
ROOT
ATOM      1  C   UNL d   1      53.045  33.703  53.658  0.00  0.00     0.120 A 
ATOM      2  C   UNL d   1      52.641  34.409  53.521  0.00  0.00     0.084 A 
ATOM      3  S   UNL d   1      53.514  33.839  54.307  0.00  0.00    -0.068 SA
ATOM      4  C   UNL d   1      52.871  34.936  54.076  0.00  0.00     0.013 A 
ATOM      5  C   UNL d   1      53.399  34.595  54.553  0.00  0.00     0.031 A 
ATOM      6  C   UNL d   1      52.598  35.734  54.149  0.00  0.00     0.001 C 
ATOM      7  C   UNL d   1      53.763  34.980  55.200  0.00  0.00     0.007 C 
ENDROOT
BRANCH   1   8
ATOM      8  N   UNL d   1      52.928  32.528  52.910  0.00  0.00    -0.184 NA
ATOM      9  C   UNL d   1      53.010  31.802  53.260  0.00  0.00     0.369 C 
ATOM     10  N   UNL d   1      52.944  31.097  52.830  0.00  0.00    -0.191 NA
ATOM     11  O   UNL d   1      53.166  31.766  54.070  0.00  0.00    -0.242 OA
BRANCH  10  12
ATOM     12  C   UNL d   1      53.029  30.377  53.195  0.00  0.00     0.086 A 
ATOM     13  C   UNL d   1      52.376  29.871  53.279  0.00  0.00     0.019 A 
ATOM     14  C   UNL d   1      52.449  29.155  53.639  0.00  0.00     0.002 A 
ATOM     15  C   UNL d   1      53.184  28.913  53.931  0.00  0.00     0.000 A 
ATOM     16  C   UNL d   1      53.849  29.414  53.852  0.00  0.00     0.002 A 
ATOM     17  C   UNL d   1      53.746  30.143  53.479  0.00  0.00     0.019 A 
ENDBRANCH  10  12
ENDBRANCH   1   8
BRANCH   2  18
ATOM     18  C   UNL d   1      52.092  34.541  52.911  0.00  0.00     0.299 C 
ATOM     19  O   UNL d   1      52.350  34.758  52.152  0.00  0.00    -0.264 OA
ATOM     20  N   UNL d   1      51.275  34.459  53.048  0.00  0.00    -0.102 N 
ENDBRANCH   2  18
TORSDOF 3
ENDMDL
MODEL 2
REMARK VINA RESULT:      -7.5      1.797      4.522
REMARK  3 active torsions:
REMARK  status: ('A' for Active; 'I' for Inactive)
REMARK    1  A    between atoms: N_5  and  C_1 
REMARK    2  A    between atoms: C_8  and  C_2 
REMARK       I    between atoms: C_7  and  N_5 
REMARK       I    between atoms: N_9  and  C_7 
REMARK    3  A    between atoms: C_13  and  N_9 
ROOT
ATOM      1  C   UNL d   1      52.841  32.015  53.151  0.00  0.00     0.120 A 
ATOM      2  C   UNL d   1      53.502  31.772  53.581  0.00  0.00     0.084 A 
ATOM      3  S   UNL d   1      52.481  31.333  52.895  0.00  0.00    -0.068 SA
ATOM      4  C   UNL d   1      53.521  30.973  53.571  0.00  0.00     0.013 A 
ATOM      5  C   UNL d   1      52.906  30.704  53.158  0.00  0.00     0.031 A 
ATOM      6  C   UNL d   1      54.105  30.485  53.943  0.00  0.00     0.001 C 
ATOM      7  C   UNL d   1      52.746  29.893  53.030  0.00  0.00     0.007 C 
ENDROOT
BRANCH   1   8
ATOM      8  N   UNL d   1      52.444  33.336  52.926  0.00  0.00    -0.184 NA
ATOM      9  C   UNL d   1      51.666  33.520  52.799  0.00  0.00     0.369 C 
ATOM     10  N   UNL d   1      51.415  34.299  52.664  0.00  0.00    -0.191 NA
ATOM     11  O   UNL d   1      51.107  32.913  52.805  0.00  0.00    -0.242 OA
BRANCH  10  12
ATOM     12  C   UNL d   1      50.632  34.469  52.539  0.00  0.00     0.086 A 
ATOM     13  C   UNL d   1      50.167  34.774  53.155  0.00  0.00     0.019 A 
ATOM     14  C   UNL d   1      49.388  34.946  53.043  0.00  0.00     0.002 A 
ATOM     15  C   UNL d   1      49.041  34.819  52.303  0.00  0.00     0.000 A 
ATOM     16  C   UNL d   1      49.500  34.512  51.674  0.00  0.00     0.002 A 
ATOM     17  C   UNL d   1      50.295  34.345  51.817  0.00  0.00     0.019 A 
ENDBRANCH  10  12
ENDBRANCH   1   8
BRANCH   2  18
ATOM     18  C   UNL d   1      54.047  32.276  53.954  0.00  0.00     0.299 C 
ATOM     19  O   UNL d   1      54.694  32.582  53.533  0.00  0.00    -0.264 OA
ATOM     20  N   UNL d   1      53.957  32.483  54.755  0.00  0.00    -0.102 N 
ENDBRANCH   2  18
TORSDOF 3
ENDMDL
MODEL 3
REMARK VINA RESULT:      -6.6      3.899      5.170
REMARK  3 active torsions:
REMARK  status: ('A' for Active; 'I' for Inactive)
REMARK    1  A    between atoms: N_5  and  C_1 
REMARK    2  A    between atoms: C_8  and  C_2 
REMARK       I    between atoms: C_7  and  N_5 
REMARK       I    between atoms: N_9  and  C_7 
REMARK    3  A    between atoms: C_13  and  N_9 
ROOT
ATOM      1  C   UNL d   1      48.156  35.688  52.947  0.00  0.00     0.120 A 
ATOM      2  C   UNL d   1      47.431  35.924  52.632  0.00  0.00     0.084 A 
ATOM      3  S   UNL d   1      48.162  35.958  53.714  0.00  0.00    -0.068 SA
ATOM      4  C   UNL d   1      47.031  36.317  53.202  0.00  0.00     0.013 A 
ATOM      5  C   UNL d   1      47.469  36.340  53.857  0.00  0.00     0.031 A 
ATOM      6  C   UNL d   1      46.260  36.659  53.123  0.00  0.00     0.001 C 
ATOM      7  C   UNL d   1      47.230  36.708  54.569  0.00  0.00     0.007 C 
ENDROOT
BRANCH   1   8
ATOM      8  N   UNL d   1      49.152  34.973  52.278  0.00  0.00    -0.184 NA
ATOM      9  C   UNL d   1      49.821  34.731  52.665  0.00  0.00     0.369 C 
ATOM     10  N   UNL d   1      50.421  34.306  52.281  0.00  0.00    -0.191 NA
ATOM     11  O   UNL d   1      49.907  34.913  53.466  0.00  0.00    -0.242 OA
BRANCH  10  12
ATOM     12  C   UNL d   1      51.086  34.069  52.682  0.00  0.00     0.086 A 
ATOM     13  C   UNL d   1      51.099  33.338  53.075  0.00  0.00     0.019 A 
ATOM     14  C   UNL d   1      51.752  33.093  53.476  0.00  0.00     0.002 A 
ATOM     15  C   UNL d   1      52.425  33.573  53.500  0.00  0.00     0.000 A 
ATOM     16  C   UNL d   1      52.424  34.312  53.108  0.00  0.00     0.002 A 
ATOM     17  C   UNL d   1      51.741  34.539  52.704  0.00  0.00     0.019 A 
ENDBRANCH  10  12
ENDBRANCH   1   8
BRANCH   2  18
ATOM     18  C   UNL d   1      47.169  35.774  51.858  0.00  0.00     0.299 C 
ATOM     19  O   UNL d   1      46.709  35.103  51.691  0.00  0.00    -0.264 OA
ATOM     20  N   UNL d   1      47.362  36.292  51.236  0.00  0.00    -0.102 N 
ENDBRANCH   2  18
TORSDOF 3
ENDMDL
MODEL 4
REMARK VINA RESULT:      -6.5      1.921      4.066
REMARK  3 active torsions:
REMARK  status: ('A' for Active; 'I' for Inactive)
REMARK    1  A    between atoms: N_5  and  C_1 
REMARK    2  A    between atoms: C_8  and  C_2 
REMARK       I    between atoms: C_7  and  N_5 
REMARK       I    between atoms: N_9  and  C_7 
REMARK    3  A    between atoms: C_13  and  N_9 
ROOT
ATOM      1  C   UNL d   1      53.054  33.581  54.208  0.00  0.00     0.120 A 
ATOM      2  C   UNL d   1      53.734  33.132  54.332  0.00  0.00     0.084 A 
ATOM      3  S   UNL d   1      53.202  34.305  54.549  0.00  0.00    -0.068 SA
ATOM      4  C   UNL d   1      54.258  33.583  54.732  0.00  0.00     0.013 A 
ATOM      5  C   UNL d   1      53.941  34.292  54.865  0.00  0.00     0.031 A 
ATOM      6  C   UNL d   1      55.033  33.346  54.978  0.00  0.00     0.001 C 
ATOM      7  C   UNL d   1      54.330  34.912  55.270  0.00  0.00     0.007 C 
ENDROOT
BRANCH   1   8
ATOM      8  N   UNL d   1      51.897  33.162  53.546  0.00  0.00    -0.184 NA
ATOM      9  C   UNL d   1      51.368  33.700  53.253  0.00  0.00     0.369 C 
ATOM     10  N   UNL d   1      50.677  33.467  52.858  0.00  0.00    -0.191 NA
ATOM     11  O   UNL d   1      51.522  34.505  53.352  0.00  0.00    -0.242 OA
BRANCH  10  12
ATOM     12  C   UNL d   1      50.156  34.017  52.570  0.00  0.00     0.086 A 
ATOM     13  C   UNL d   1      50.051  34.105  51.751  0.00  0.00     0.019 A 
ATOM     14  C   UNL d   1      49.537  34.648  51.453  0.00  0.00     0.002 A 
ATOM     15  C   UNL d   1      49.102  35.129  51.967  0.00  0.00     0.000 A 
ATOM     16  C   UNL d   1      49.199  35.050  52.794  0.00  0.00     0.002 A 
ATOM     17  C   UNL d   1      49.733  34.485  53.072  0.00  0.00     0.019 A 
ENDBRANCH  10  12
ENDBRANCH   1   8
BRANCH   2  18
ATOM     18  C   UNL d   1      53.847  32.347  54.082  0.00  0.00     0.299 C 
ATOM     19  O   UNL d   1      53.606  31.713  54.562  0.00  0.00    -0.264 OA
ATOM     20  N   UNL d   1      54.202  32.181  53.348  0.00  0.00    -0.102 N 
ENDBRANCH   2  18
TORSDOF 3
ENDMDL
MODEL 5
REMARK VINA RESULT:      -4.8     10.513     11.836
REMARK  3 active torsions:
REMARK  status: ('A' for Active; 'I' for Inactive)
REMARK    1  A    between atoms: N_5  and  C_1 
REMARK    2  A    between atoms: C_8  and  C_2 
REMARK       I    between atoms: C_7  and  N_5 
REMARK       I    between atoms: N_9  and  C_7 
REMARK    3  A    between atoms: C_13  and  N_9 
ROOT
ATOM      1  C   UNL d   1      44.666  26.431  58.199  0.00  0.00     0.120 A 
ATOM      2  C   UNL d   1      44.879  27.109  57.779  0.00  0.00     0.084 A 
ATOM      3  S   UNL d   1      44.565  26.671  58.969  0.00  0.00    -0.068 SA
ATOM      4  C   UNL d   1      44.900  27.720  58.293  0.00  0.00     0.013 A 
ATOM      5  C   UNL d   1      44.711  27.461  59.012  0.00  0.00     0.031 A 
ATOM      6  C   UNL d   1      45.094  28.523  58.103  0.00  0.00     0.001 C 
ATOM      7  C   UNL d   1      44.675  27.947  59.692  0.00  0.00     0.007 C 
ENDROOT
BRANCH   1   8
ATOM      8  N   UNL d   1      44.517  25.147  57.671  0.00  0.00    -0.184 NA
ATOM      9  C   UNL d   1      44.686  24.491  58.116  0.00  0.00     0.369 C 
ATOM     10  N   UNL d   1      44.602  23.723  57.817  0.00  0.00    -0.191 NA
ATOM     11  O   UNL d   1      44.949  24.594  58.892  0.00  0.00    -0.242 OA
BRANCH  10  12
ATOM     12  C   UNL d   1      44.775  23.076  58.275  0.00  0.00     0.086 A 
ATOM     13  C   UNL d   1      45.432  22.601  58.095  0.00  0.00     0.019 A 
ATOM     14  C   UNL d   1      45.613  21.957  58.543  0.00  0.00     0.002 A 
ATOM     15  C   UNL d   1      45.142  21.760  59.193  0.00  0.00     0.000 A 
ATOM     16  C   UNL d   1      44.477  22.231  59.383  0.00  0.00     0.002 A 
ATOM     17  C   UNL d   1      44.314  22.886  58.908  0.00  0.00     0.019 A 
ENDBRANCH  10  12
ENDBRANCH   1   8
BRANCH   2  18
ATOM     18  C   UNL d   1      45.042  27.141  56.965  0.00  0.00     0.299 C 
ATOM     19  O   UNL d   1      45.810  26.994  56.683  0.00  0.00    -0.264 OA
ATOM     20  N   UNL d   1      44.442  27.320  56.417  0.00  0.00    -0.102 N 
ENDBRANCH   2  18
TORSDOF 3
ENDMDL
MODEL 6
REMARK VINA RESULT:      -4.7     10.436     11.198
REMARK  3 active torsions:
REMARK  status: ('A' for Active; 'I' for Inactive)
REMARK    1  A    between atoms: N_5  and  C_1 
REMARK    2  A    between atoms: C_8  and  C_2 
REMARK       I    between atoms: C_7  and  N_5 
REMARK       I    between atoms: N_9  and  C_7 
REMARK    3  A    between atoms: C_13  and  N_9 
ROOT
ATOM      1  C   UNL d   1      44.710  30.188  58.573  0.00  0.00     0.120 A 
ATOM      2  C   UNL d   1      44.777  29.684  57.923  0.00  0.00     0.084 A 
ATOM      3  S   UNL d   1      44.543  30.922  58.267  0.00  0.00    -0.068 SA
ATOM      4  C   UNL d   1      44.652  30.117  57.263  0.00  0.00     0.013 A 
ATOM      5  C   UNL d   1      44.510  30.865  57.466  0.00  0.00     0.031 A 
ATOM      6  C   UNL d   1      44.667  29.826  56.467  0.00  0.00     0.001 C 
ATOM      7  C   UNL d   1      44.354  31.478  56.920  0.00  0.00     0.007 C 
ENDROOT
BRANCH   1   8
ATOM      8  N   UNL d   1      44.858  29.826  59.914  0.00  0.00    -0.184 NA
ATOM      9  C   UNL d   1      44.705  30.356  60.507  0.00  0.00     0.369 C 
ATOM     10  N   UNL d   1      44.788  30.157  61.308  0.00  0.00    -0.191 NA
ATOM     11  O   UNL d   1      44.458  31.118  60.306  0.00  0.00    -0.242 OA
BRANCH  10  12
ATOM     12  C   UNL d   1      44.631  30.698  61.891  0.00  0.00     0.086 A 
ATOM     13  C   UNL d   1      44.620  30.464  62.687  0.00  0.00     0.019 A 
ATOM     14  C   UNL d   1      44.465  30.993  63.274  0.00  0.00     0.002 A 
ATOM     15  C   UNL d   1      44.314  31.784  63.087  0.00  0.00     0.000 A 
ATOM     16  C   UNL d   1      44.322  32.032  62.288  0.00  0.00     0.002 A 
ATOM     17  C   UNL d   1      44.484  31.469  61.706  0.00  0.00     0.019 A 
ENDBRANCH  10  12
ENDBRANCH   1   8
BRANCH   2  18
ATOM     18  C   UNL d   1      44.945  28.871  57.957  0.00  0.00     0.299 C 
ATOM     19  O   UNL d   1      45.722  28.607  58.084  0.00  0.00    -0.264 OA
ATOM     20  N   UNL d   1      44.340  28.307  57.865  0.00  0.00    -0.102 N 
ENDBRANCH   2  18
TORSDOF 3
ENDMDL
