MODEL 1
REMARK VINA RESULT:       0.4      0.000      0.000
REMARK  5 active torsions:
REMARK  status: ('A' for Active; 'I' for Inactive)
REMARK    1  A    between atoms: C_3  and  C_1 
REMARK    2  A    between atoms: N_2  and  C_10 
REMARK    3  A    between atoms: N_6  and  C_3 
REMARK    4  A    between atoms: C_11  and  C_5 
REMARK    5  A    between atoms: C_20  and  N_7 
ROOT
ATOM      1  C   UNL d   1     -42.347-122.084 -51.846  0.00  0.00     0.126 A 
ATOM      2  O   UNL d   1     -42.512-122.392 -52.594  0.00  0.00    -0.305 OA
ATOM      3  C   UNL d   1     -41.815-122.373 -53.043  0.00  0.00     0.100 A 
ATOM      4  C   UNL d   1     -41.548-121.876 -51.832  0.00  0.00     0.029 A 
ATOM      5  C   UNL d   1     -41.216-122.050 -52.562  0.00  0.00     0.027 A 
ENDROOT
BRANCH   1   6
ATOM      6  C   UNL d   1     -42.902-121.994 -51.191  0.00  0.00     0.143 C 
ATOM      7  S   UNL d   1     -43.630-121.627 -51.322  0.00  0.00    -0.057 SA
BRANCH   6   8
ATOM      8  N   UNL d   1     -42.682-122.287 -50.430  0.00  0.00    -0.291 N 
ATOM      9  C   UNL d   1     -42.702-123.087 -50.253  0.00  0.00     0.100 A 
ATOM     10  C   UNL d   1     -42.484-123.340 -49.508  0.00  0.00     0.100 A 
ATOM     11  N   UNL d   1     -42.245-122.829 -48.930  0.00  0.00    -0.301 N 
ATOM     12  C   UNL d   1     -42.217-122.001 -49.091  0.00  0.00     0.100 A 
ATOM     13  C   UNL d   1     -42.438-121.731 -49.847  0.00  0.00     0.100 A 
BRANCH  11  14
ATOM     14  C   UNL d   1     -42.028-123.109 -48.180  0.00  0.00     0.064 A 
ATOM     15  C   UNL d   1     -42.521-122.969 -47.546  0.00  0.00     0.018 A 
ATOM     16  C   UNL d   1     -42.329-123.236 -46.790  0.00  0.00     0.002 A 
ATOM     17  C   UNL d   1     -41.630-123.651 -46.676  0.00  0.00     0.000 A 
ATOM     18  C   UNL d   1     -41.123-123.798 -47.318  0.00  0.00     0.002 A 
ATOM     19  C   UNL d   1     -41.328-123.524 -48.066  0.00  0.00     0.018 A 
ENDBRANCH  11  14
ENDBRANCH   6   8
ENDBRANCH   1   6
BRANCH   3  20
ATOM     20  C   UNL d   1     -41.649-122.607 -53.822  0.00  0.00     0.024 A 
ATOM     21  C   UNL d   1     -41.824-122.099 -54.456  0.00  0.00     0.025 A 
ATOM     22  C   UNL d   1     -41.658-122.332 -55.230  0.00  0.00     0.127 A 
ATOM     23  C   UNL d   1     -41.315-123.076 -55.387  0.00  0.00     0.024 A 
ATOM     24  C   UNL d   1     -41.146-123.573 -54.748  0.00  0.00     0.002 A 
ATOM     25  C   UNL d   1     -41.311-123.341 -53.974  0.00  0.00     0.002 A 
BRANCH  22  26
ATOM     26  N   UNL d   1     -41.834-121.827 -55.843  0.00  0.00    -0.114 N 
ATOM     27  O   UNL d   1     -42.580-121.765 -56.232  0.00  0.00    -0.532 OA
ATOM     28  O   UNL d   1     -41.285-121.299 -56.166  0.00  0.00    -0.532 OA
ENDBRANCH  22  26
ENDBRANCH   3  20
TORSDOF 5
ENDMDL
MODEL 2
REMARK VINA RESULT:       0.7      2.025      6.121
REMARK  5 active torsions:
REMARK  status: ('A' for Active; 'I' for Inactive)
REMARK    1  A    between atoms: C_3  and  C_1 
REMARK    2  A    between atoms: N_2  and  C_10 
REMARK    3  A    between atoms: N_6  and  C_3 
REMARK    4  A    between atoms: C_11  and  C_5 
REMARK    5  A    between atoms: C_20  and  N_7 
ROOT
ATOM      1  C   UNL d   1     -41.876-121.859 -50.853  0.00  0.00     0.126 A 
ATOM      2  O   UNL d   1     -41.477-122.093 -50.169  0.00  0.00    -0.305 OA
ATOM      3  C   UNL d   1     -41.987-122.571 -49.722  0.00  0.00     0.100 A 
ATOM      4  C   UNL d   1     -42.632-122.191 -50.829  0.00  0.00     0.029 A 
ATOM      5  C   UNL d   1     -42.706-122.629 -50.139  0.00  0.00     0.027 A 
ENDROOT
BRANCH   1   6
ATOM      6  C   UNL d   1     -41.566-121.357 -51.483  0.00  0.00     0.143 C 
ATOM      7  S   UNL d   1     -41.125-120.687 -51.291  0.00  0.00    -0.057 SA
BRANCH   6   8
ATOM      8  N   UNL d   1     -41.725-121.570 -52.285  0.00  0.00    -0.291 N 
ATOM      9  C   UNL d   1     -42.247-121.142 -52.750  0.00  0.00     0.100 A 
ATOM     10  C   UNL d   1     -42.380-121.372 -53.522  0.00  0.00     0.100 A 
ATOM     11  N   UNL d   1     -42.014-122.012 -53.852  0.00  0.00    -0.301 N 
ATOM     12  C   UNL d   1     -41.473-122.466 -53.392  0.00  0.00     0.100 A 
ATOM     13  C   UNL d   1     -41.329-122.241 -52.603  0.00  0.00     0.100 A 
BRANCH  11  14
ATOM     14  C   UNL d   1     -42.166-122.227 -54.639  0.00  0.00     0.064 A 
ATOM     15  C   UNL d   1     -41.995-121.696 -55.235  0.00  0.00     0.018 A 
ATOM     16  C   UNL d   1     -42.135-121.884 -56.025  0.00  0.00     0.002 A 
ATOM     17  C   UNL d   1     -42.452-122.617 -56.214  0.00  0.00     0.000 A 
ATOM     18  C   UNL d   1     -42.628-123.163 -55.612  0.00  0.00     0.002 A 
ATOM     19  C   UNL d   1     -42.482-122.961 -54.828  0.00  0.00     0.018 A 
ENDBRANCH  11  14
ENDBRANCH   6   8
ENDBRANCH   1   6
BRANCH   3  20
ATOM     20  C   UNL d   1     -41.891-122.959 -48.994  0.00  0.00     0.024 A 
ATOM     21  C   UNL d   1     -42.461-122.872 -48.397  0.00  0.00     0.025 A 
ATOM     22  C   UNL d   1     -42.365-123.258 -47.674  0.00  0.00     0.127 A 
ATOM     23  C   UNL d   1     -41.697-123.738 -47.532  0.00  0.00     0.024 A 
ATOM     24  C   UNL d   1     -41.136-123.817 -48.135  0.00  0.00     0.002 A 
ATOM     25  C   UNL d   1     -41.232-123.432 -48.858  0.00  0.00     0.002 A 
BRANCH  22  26
ATOM     26  N   UNL d   1     -42.929-123.165 -47.096  0.00  0.00    -0.114 N 
ATOM     27  O   UNL d   1     -43.476-123.756 -46.842  0.00  0.00    -0.532 OA
ATOM     28  O   UNL d   1     -43.036-122.461 -46.676  0.00  0.00    -0.532 OA
ENDBRANCH  22  26
ENDBRANCH   3  20
TORSDOF 5
ENDMDL
