MODEL 1
REMARK VINA RESULT:       6.2      0.000      0.000
REMARK  9 active torsions:
REMARK  status: ('A' for Active; 'I' for Inactive)
REMARK    1  A    between atoms: C_7  and  N_1 
REMARK    2  A    between atoms: C_8  and  C_3 
REMARK    3  A    between atoms: O_9  and  C_6 
REMARK    4  A    between atoms: O_19  and  C_8 
REMARK    5  A    between atoms: C_18  and  O_9 
REMARK    6  A    between atoms: C_10  and  C_18 
REMARK       I    between atoms: N_11  and  C_10 
REMARK    7  A    between atoms: C_14  and  N_11 
REMARK    8  A    between atoms: C_28  and  O_19 
REMARK    9  A    between atoms: O_23  and  C_20 
ROOT
ATOM      1  N   UNL d   1     -42.420-123.178 -49.122  0.00  0.00    -0.194 N 
ATOM      2  N   UNL d   1     -43.039-122.819 -49.536  0.00  0.00    -0.155 NA
ATOM      3  C   UNL d   1     -42.972-122.707 -50.347  0.00  0.00     0.187 A 
ATOM      4  C   UNL d   1     -41.741-123.422 -49.522  0.00  0.00     0.282 A 
ATOM      5  C   UNL d   1     -41.681-123.307 -50.337  0.00  0.00     0.089 A 
ATOM      6  C   UNL d   1     -42.293-122.951 -50.747  0.00  0.00     0.130 A 
ATOM      7  O   UNL d   1     -41.126-123.780 -49.110  0.00  0.00    -0.265 OA
ENDROOT
BRANCH   6   8
ATOM      8  O   UNL d   1     -42.233-122.835 -51.562  0.00  0.00    -0.298 OA
BRANCH   8   9
ATOM      9  C   UNL d   1     -41.496-122.800 -51.922  0.00  0.00     0.185 C 
BRANCH   9  10
ATOM     10  C   UNL d   1     -41.447-122.671 -52.738  0.00  0.00     0.304 C 
ATOM     11  N   UNL d   1     -41.583-123.293 -53.259  0.00  0.00    -0.206 NA
ATOM     12  O   UNL d   1     -41.263-121.925 -53.023  0.00  0.00    -0.263 OA
BRANCH  11  13
ATOM     13  C   UNL d   1     -41.533-123.164 -54.075  0.00  0.00     0.087 A 
ATOM     14  C   UNL d   1     -41.827-122.480 -54.403  0.00  0.00     0.043 A 
ATOM     15  C   UNL d   1     -41.784-122.340 -55.208  0.00  0.00     0.096 A 
ATOM     16  C   UNL d   1     -41.435-122.907 -55.697  0.00  0.00     0.024 A 
ATOM     17  C   UNL d   1     -41.136-123.602 -55.369  0.00  0.00     0.004 A 
ATOM     18  C   UNL d   1     -41.184-123.730 -54.562  0.00  0.00     0.019 A 
BRANCH  15  19
ATOM     19  O   UNL d   1     -42.085-121.647 -55.523  0.00  0.00    -0.328 OA
ATOM     20  C   UNL d   1     -42.418-121.656 -56.280  0.00  0.00     0.181 C 
ENDBRANCH  15  19
ENDBRANCH  11  13
ENDBRANCH   9  10
ENDBRANCH   8   9
ENDBRANCH   6   8
BRANCH   3  21
ATOM     21  C   UNL d   1     -43.584-122.351 -50.757  0.00  0.00     0.322 C 
ATOM     22  O   UNL d   1     -44.043-122.793 -51.281  0.00  0.00    -0.257 OA
BRANCH  21  23
ATOM     23  O   UNL d   1     -43.750-121.545 -50.651  0.00  0.00    -0.270 OA
BRANCH  23  24
ATOM     24  C   UNL d   1     -44.520-121.290 -50.539  0.00  0.00     0.126 C 
ATOM     25  C   UNL d   1     -44.709-120.823 -49.886  0.00  0.00     0.029 C 
ENDBRANCH  23  24
ENDBRANCH  21  23
ENDBRANCH   3  21
BRANCH   1  26
ATOM     26  C   UNL d   1     -42.484-123.292 -48.309  0.00  0.00     0.097 A 
ATOM     27  C   UNL d   1     -43.185-123.615 -47.987  0.00  0.00     0.075 A 
ATOM     28 CL   UNL d   1     -43.804-123.816 -48.483  0.00  0.00    -0.081 Cl
ATOM     29  C   UNL d   1     -43.240-123.725 -47.178  0.00  0.00     0.013 A 
ATOM     30  C   UNL d   1     -42.615-123.522 -46.678  0.00  0.00     0.001 A 
ATOM     31  C   UNL d   1     -41.920-123.201 -47.005  0.00  0.00     0.002 A 
ATOM     32  C   UNL d   1     -41.860-123.089 -47.820  0.00  0.00     0.020 A 
ENDBRANCH   1  26
TORSDOF 9
ENDMDL
