MODEL 1
REMARK VINA RESULT:       9.8      0.000      0.000
REMARK  5 active torsions:
REMARK  status: ('A' for Active; 'I' for Inactive)
REMARK    1  A    between atoms: C_2  and  S_1 
REMARK    2  A    between atoms: C_12  and  S_1 
REMARK    3  A    between atoms: N_5  and  C_3 
REMARK    4  A    between atoms: C_18  and  N_7 
REMARK    5  A    between atoms: O_22  and  C_20 
ROOT
ATOM      1  C   UNL d   1      30.019  16.213 -23.631  0.00  0.00     0.123 A 
ATOM      2  C   UNL d   1      29.788  16.986 -23.815  0.00  0.00     0.078 A 
ATOM      3  C   UNL d   1      28.989  17.171 -23.883  0.00  0.00     0.036 A 
ATOM      4  C   UNL d   1      29.448  15.629 -23.516  0.00  0.00     0.112 A 
ATOM      5  N   UNL d   1      28.646  15.817 -23.585  0.00  0.00    -0.243 NA
ATOM      6  C   UNL d   1      28.418  16.586 -23.768  0.00  0.00     0.083 A 
ATOM      7  C   UNL d   1      28.761  17.941 -24.066  0.00  0.00     0.027 A 
ATOM      8  C   UNL d   1      27.618  16.772 -23.836  0.00  0.00     0.021 A 
ATOM      9  C   UNL d   1      27.955  18.132 -24.136  0.00  0.00     0.094 A 
ATOM     10  C   UNL d   1      27.384  17.547 -24.021  0.00  0.00     0.026 A 
ENDROOT
BRANCH   2  11
ATOM     11  N   UNL d   1      30.365  17.576 -23.931  0.00  0.00    -0.301 N 
ATOM     12  C   UNL d   1      30.610  17.766 -24.701  0.00  0.00     0.100 A 
ATOM     13  C   UNL d   1      31.185  18.355 -24.808  0.00  0.00     0.100 A 
ATOM     14  N   UNL d   1      31.510  18.748 -24.157  0.00  0.00    -0.301 N 
ATOM     15  C   UNL d   1      31.261  18.554 -23.387  0.00  0.00     0.100 A 
ATOM     16  C   UNL d   1      30.689  17.968 -23.280  0.00  0.00     0.100 A 
BRANCH  14  17
ATOM     17  C   UNL d   1      32.081  19.332 -24.272  0.00  0.00     0.064 A 
ATOM     18  C   UNL d   1      32.080  19.778 -24.973  0.00  0.00     0.018 A 
ATOM     19  C   UNL d   1      32.649  20.363 -25.092  0.00  0.00     0.002 A 
ATOM     20  C   UNL d   1      33.218  20.503 -24.514  0.00  0.00     0.000 A 
ATOM     21  C   UNL d   1      33.218  20.058 -23.817  0.00  0.00     0.002 A 
ATOM     22  C   UNL d   1      32.647  19.474 -23.702  0.00  0.00     0.018 A 
ENDBRANCH  14  17
ENDBRANCH   2  11
BRANCH   1  23
ATOM     23  S   UNL d   1      30.824  16.023 -23.562  0.00  0.00     0.213 S 
ATOM     24  O   UNL d   1      30.823  15.730 -24.335  0.00  0.00    -0.217 OA
ATOM     25  O   UNL d   1      30.830  16.317 -22.781  0.00  0.00    -0.217 OA
BRANCH  23  26
ATOM     26  C   UNL d   1      31.626  15.834 -23.492  0.00  0.00     0.088 A 
ATOM     27  C   UNL d   1      31.990  15.817 -22.751  0.00  0.00     0.011 A 
ATOM     28  C   UNL d   1      32.788  15.630 -22.679  0.00  0.00     0.001 A 
ATOM     29  C   UNL d   1      33.241  15.453 -23.357  0.00  0.00     0.000 A 
ATOM     30  C   UNL d   1      32.876  15.469 -24.101  0.00  0.00     0.001 A 
ATOM     31  C   UNL d   1      32.069  15.660 -24.164  0.00  0.00     0.011 A 
ENDBRANCH  23  26
ENDBRANCH   1  23
BRANCH   9  32
ATOM     32  O   UNL d   1      27.733  18.907 -24.320  0.00  0.00    -0.328 OA
ATOM     33  C   UNL d   1      27.815  19.180 -25.097  0.00  0.00     0.181 C 
ENDBRANCH   9  32
TORSDOF 5
ENDMDL
