MODEL 1
REMARK VINA RESULT:      -6.2      0.000      0.000
REMARK  6 active torsions:
REMARK  status: ('A' for Active; 'I' for Inactive)
REMARK       I    between atoms: C_3  and  N_1 
REMARK    1  A    between atoms: C_5  and  N_1 
REMARK    2  A    between atoms: C_2  and  C_3 
REMARK    3  A    between atoms: N_9  and  C_5 
REMARK    4  A    between atoms: C_13  and  N_9 
REMARK    5  A    between atoms: C_11  and  C_13 
REMARK    6  A    between atoms: C_15  and  C_11 
ROOT
ATOM      1  C   UNL d   1     -41.414-122.468 -51.464  0.00  0.00     0.224 C 
ATOM      2  S   UNL d   1     -41.123-121.696 -51.535  0.00  0.00    -0.037 SA
ENDROOT
BRANCH   1   3
ATOM      3  N   UNL d   1     -41.517-122.801 -50.715  0.00  0.00    -0.177 NA
ATOM      4  C   UNL d   1     -42.162-122.566 -50.246  0.00  0.00     0.304 C 
ATOM      5  O   UNL d   1     -42.691-122.009 -50.523  0.00  0.00    -0.263 OA
BRANCH   4   6
ATOM      6  C   UNL d   1     -42.264-122.898 -49.499  0.00  0.00     0.158 A 
ATOM      7  O   UNL d   1     -41.670-123.044 -48.945  0.00  0.00    -0.296 OA
ATOM      8  C   UNL d   1     -42.007-123.376 -48.281  0.00  0.00     0.134 A 
ATOM      9 BR   UNL d   1     -41.615-123.607 -47.598  0.00  0.00    -0.022 Br
ATOM     10  C   UNL d   1     -42.817-123.439 -48.416  0.00  0.00     0.034 A 
ATOM     11  C   UNL d   1     -42.978-123.141 -49.176  0.00  0.00     0.032 A 
ENDBRANCH   4   6
ENDBRANCH   1   3
BRANCH   1  12
ATOM     12  N   UNL d   1     -41.599-122.897 -52.142  0.00  0.00    -0.212 NA
BRANCH  12  13
ATOM     13  C   UNL d   1     -41.448-122.574 -52.876  0.00  0.00     0.143 C 
BRANCH  13  14
ATOM     14  C   UNL d   1     -41.637-123.000 -53.554  0.00  0.00     0.215 C 
ATOM     15  O   UNL d   1     -41.713-123.817 -53.534  0.00  0.00    -0.285 OA
BRANCH  14  16
ATOM     16  C   UNL d   1     -41.756-122.606 -54.274  0.00  0.00     0.041 A 
ATOM     17  C   UNL d   1     -42.466-122.201 -54.403  0.00  0.00     0.003 A 
ATOM     18  C   UNL d   1     -42.592-121.807 -55.117  0.00  0.00     0.000 A 
ATOM     19  C   UNL d   1     -42.005-121.817 -55.705  0.00  0.00     0.000 A 
ATOM     20  C   UNL d   1     -41.295-122.221 -55.575  0.00  0.00     0.000 A 
ATOM     21  C   UNL d   1     -41.173-122.616 -54.856  0.00  0.00     0.003 A 
ENDBRANCH  14  16
ENDBRANCH  13  14
ENDBRANCH  12  13
ENDBRANCH   1  12
TORSDOF 6
ENDMDL
MODEL 2
REMARK VINA RESULT:      -5.8      2.047      5.353
REMARK  6 active torsions:
REMARK  status: ('A' for Active; 'I' for Inactive)
REMARK       I    between atoms: C_3  and  N_1 
REMARK    1  A    between atoms: C_5  and  N_1 
REMARK    2  A    between atoms: C_2  and  C_3 
REMARK    3  A    between atoms: N_9  and  C_5 
REMARK    4  A    between atoms: C_13  and  N_9 
REMARK    5  A    between atoms: C_11  and  C_13 
REMARK    6  A    between atoms: C_15  and  C_11 
ROOT
ATOM      1  C   UNL d   1     -41.734-122.316 -51.435  0.00  0.00     0.224 C 
ATOM      2  S   UNL d   1     -41.125-121.804 -51.202  0.00  0.00    -0.037 SA
ENDROOT
BRANCH   1   3
ATOM      3  N   UNL d   1     -41.803-122.539 -52.226  0.00  0.00    -0.177 NA
ATOM      4  C   UNL d   1     -41.606-121.996 -52.825  0.00  0.00     0.304 C 
ATOM      5  O   UNL d   1     -41.346-121.247 -52.632  0.00  0.00    -0.263 OA
BRANCH   4   6
ATOM      6  C   UNL d   1     -41.674-122.219 -53.615  0.00  0.00     0.158 A 
ATOM      7  O   UNL d   1     -42.147-121.855 -54.185  0.00  0.00    -0.296 OA
ATOM      8  C   UNL d   1     -42.053-122.247 -54.893  0.00  0.00     0.134 A 
ATOM      9 BR   UNL d   1     -42.421-122.067 -55.605  0.00  0.00    -0.022 Br
ATOM     10  C   UNL d   1     -41.519-122.862 -54.770  0.00  0.00     0.034 A 
ATOM     11  C   UNL d   1     -41.282-122.845 -53.972  0.00  0.00     0.032 A 
ENDBRANCH   4   6
ENDBRANCH   1   3
BRANCH   1  12
ATOM     12  N   UNL d   1     -42.265-122.597 -50.872  0.00  0.00    -0.212 NA
BRANCH  12  13
ATOM     13  C   UNL d   1     -41.983-122.916 -50.176  0.00  0.00     0.143 C 
BRANCH  13  14
ATOM     14  C   UNL d   1     -42.511-123.110 -49.575  0.00  0.00     0.215 C 
ATOM     15  O   UNL d   1     -43.320-123.135 -49.712  0.00  0.00    -0.285 OA
BRANCH  14  16
ATOM     16  C   UNL d   1     -42.230-123.284 -48.814  0.00  0.00     0.041 A 
ATOM     17  C   UNL d   1     -41.460-123.569 -48.721  0.00  0.00     0.003 A 
ATOM     18  C   UNL d   1     -41.173-123.745 -47.968  0.00  0.00     0.000 A 
ATOM     19  C   UNL d   1     -41.659-123.635 -47.303  0.00  0.00     0.000 A 
ATOM     20  C   UNL d   1     -42.430-123.349 -47.397  0.00  0.00     0.000 A 
ATOM     21  C   UNL d   1     -42.713-123.174 -48.156  0.00  0.00     0.003 A 
ENDBRANCH  14  16
ENDBRANCH  13  14
ENDBRANCH  12  13
ENDBRANCH   1  12
TORSDOF 6
ENDMDL
