MODEL 1
REMARK VINA RESULT:     -11.2      0.000      0.000
REMARK  5 active torsions:
REMARK  status: ('A' for Active; 'I' for Inactive)
REMARK    1  A    between atoms: N_8  and  S_1 
REMARK    2  A    between atoms: C_18  and  S_1 
REMARK    3  A    between atoms: C_13  and  C_3 
REMARK    4  A    between atoms: C_5  and  C_11 
REMARK    5  A    between atoms: C_17  and  N_8 
ROOT
ATOM      1  N   UNL d   1      51.908  32.116  52.791  0.00  0.00    -0.246 NA
ATOM      2  C   UNL d   1      53.191  32.656  53.685  0.00  0.00     0.003 A 
ATOM      3  C   UNL d   1      53.137  31.859  53.474  0.00  0.00     0.018 A 
ATOM      4  C   UNL d   1      51.959  32.913  53.000  0.00  0.00     0.081 A 
ATOM      5  C   UNL d   1      52.599  33.182  53.446  0.00  0.00     0.019 A 
ATOM      6  C   UNL d   1      52.497  31.589  53.028  0.00  0.00     0.081 A 
ATOM      7  C   UNL d   1      53.728  31.333  53.712  0.00  0.00     0.002 A 
ATOM      8  C   UNL d   1      52.446  30.793  52.818  0.00  0.00     0.019 A 
ATOM      9  C   UNL d   1      53.675  30.535  53.501  0.00  0.00     0.000 A 
ATOM     10  C   UNL d   1      53.035  30.266  53.055  0.00  0.00     0.002 A 
ATOM     11  C   UNL d   1      54.245  30.061  53.738  0.00  0.00     0.000 C 
ENDROOT
BRANCH   4  12
ATOM     12  C   UNL d   1      51.370  33.439  52.763  0.00  0.00     0.018 A 
ATOM     13  C   UNL d   1      51.469  33.890  52.081  0.00  0.00     0.003 A 
ATOM     14  C   UNL d   1      50.880  34.416  51.844  0.00  0.00     0.020 A 
ATOM     15  C   UNL d   1      50.191  34.492  52.292  0.00  0.00     0.094 A 
ATOM     16  C   UNL d   1      50.091  34.041  52.974  0.00  0.00     0.020 A 
ATOM     17  C   UNL d   1      50.681  33.515  53.211  0.00  0.00     0.003 A 
BRANCH  15  18
ATOM     18  N   UNL d   1      49.602  35.018  52.055  0.00  0.00    -0.158 NA
BRANCH  18  19
ATOM     19  S   UNL d   1      48.968  34.751  51.599  0.00  0.00     0.286 S 
ATOM     20  O   UNL d   1      48.374  34.501  51.172  0.00  0.00    -0.198 OA
ATOM     21  O   UNL d   1      49.497  34.406  51.065  0.00  0.00    -0.198 OA
BRANCH  19  22
ATOM     22  C   UNL d   1      48.440  35.096  52.132  0.00  0.00     0.117 C 
ATOM     23  C   UNL d   1      47.810  35.364  51.673  0.00  0.00     0.014 C 
ENDBRANCH  19  22
ENDBRANCH  18  19
ENDBRANCH  15  18
ENDBRANCH   4  12
BRANCH   2  24
ATOM     24  C   UNL d   1      53.822  32.921  54.125  0.00  0.00     0.000 A 
ATOM     25  C   UNL d   1      54.511  33.169  53.747  0.00  0.00     0.000 A 
ATOM     26  C   UNL d   1      55.152  33.439  54.194  0.00  0.00     0.000 A 
ATOM     27  C   UNL d   1      55.103  33.461  55.018  0.00  0.00     0.000 A 
ATOM     28  C   UNL d   1      54.411  33.212  55.395  0.00  0.00     0.000 A 
ATOM     29  C   UNL d   1      53.770  32.942  54.948  0.00  0.00     0.000 A 
ENDBRANCH   2  24
TORSDOF 5
ENDMDL
MODEL 2
REMARK VINA RESULT:      -9.4      0.788      2.224
REMARK  5 active torsions:
REMARK  status: ('A' for Active; 'I' for Inactive)
REMARK    1  A    between atoms: N_8  and  S_1 
REMARK    2  A    between atoms: C_18  and  S_1 
REMARK    3  A    between atoms: C_13  and  C_3 
REMARK    4  A    between atoms: C_5  and  C_11 
REMARK    5  A    between atoms: C_17  and  N_8 
ROOT
ATOM      1  N   UNL d   1      52.219  34.241  53.536  0.00  0.00    -0.246 NA
ATOM      2  C   UNL d   1      52.583  32.637  53.364  0.00  0.00     0.003 A 
ATOM      3  C   UNL d   1      53.033  33.114  53.866  0.00  0.00     0.018 A 
ATOM      4  C   UNL d   1      51.767  33.767  53.033  0.00  0.00     0.081 A 
ATOM      5  C   UNL d   1      51.948  32.966  52.947  0.00  0.00     0.019 A 
ATOM      6  C   UNL d   1      52.852  33.914  53.951  0.00  0.00     0.081 A 
ATOM      7  C   UNL d   1      53.667  32.784  54.281  0.00  0.00     0.002 A 
ATOM      8  C   UNL d   1      53.303  34.388  54.453  0.00  0.00     0.019 A 
ATOM      9  C   UNL d   1      54.118  33.261  54.784  0.00  0.00     0.000 A 
ATOM     10  C   UNL d   1      53.937  34.061  54.870  0.00  0.00     0.002 A 
ATOM     11  C   UNL d   1      54.709  32.925  55.164  0.00  0.00     0.000 C 
ENDROOT
BRANCH   4  12
ATOM     12  C   UNL d   1      51.134  34.094  52.617  0.00  0.00     0.018 A 
ATOM     13  C   UNL d   1      51.176  34.174  51.798  0.00  0.00     0.003 A 
ATOM     14  C   UNL d   1      50.543  34.501  51.382  0.00  0.00     0.020 A 
ATOM     15  C   UNL d   1      49.868  34.748  51.787  0.00  0.00     0.094 A 
ATOM     16  C   UNL d   1      49.826  34.668  52.606  0.00  0.00     0.020 A 
ATOM     17  C   UNL d   1      50.459  34.340  53.022  0.00  0.00     0.003 A 
BRANCH  15  18
ATOM     18  N   UNL d   1      49.235  35.075  51.371  0.00  0.00    -0.158 NA
BRANCH  18  19
ATOM     19  S   UNL d   1      48.618  34.593  51.111  0.00  0.00     0.286 S 
ATOM     20  O   UNL d   1      48.041  34.141  50.867  0.00  0.00    -0.198 OA
ATOM     21  O   UNL d   1      49.156  34.143  50.672  0.00  0.00    -0.198 OA
BRANCH  19  22
ATOM     22  C   UNL d   1      48.082  35.041  51.549  0.00  0.00     0.117 C 
ATOM     23  C   UNL d   1      47.437  35.161  51.049  0.00  0.00     0.014 C 
ENDBRANCH  19  22
ENDBRANCH  18  19
ENDBRANCH  15  18
ENDBRANCH   4  12
BRANCH   2  24
ATOM     24  C   UNL d   1      52.761  31.847  53.279  0.00  0.00     0.000 A 
ATOM     25  C   UNL d   1      52.286  31.277  53.638  0.00  0.00     0.000 A 
ATOM     26  C   UNL d   1      52.468  30.475  53.552  0.00  0.00     0.000 A 
ATOM     27  C   UNL d   1      53.124  30.244  53.107  0.00  0.00     0.000 A 
ATOM     28  C   UNL d   1      53.599  30.817  52.748  0.00  0.00     0.000 A 
ATOM     29  C   UNL d   1      53.418  31.620  52.834  0.00  0.00     0.000 A 
ENDBRANCH   2  24
TORSDOF 5
ENDMDL
