MODEL 1
REMARK VINA RESULT:      -5.2      0.000      0.000
REMARK  3 active torsions:
REMARK  status: ('A' for Active; 'I' for Inactive)
REMARK    1  A    between atoms: C_7  and  C_1 
REMARK    2  A    between atoms: O_14  and  C_7 
REMARK    3  A    between atoms: C_17  and  O_14 
ROOT
ATOM      1  C   UNL d   1     -41.655-122.703 -52.030  0.00  0.00     0.127 A 
ATOM      2  C   UNL d   1     -41.303-123.443 -52.030  0.00  0.00     0.305 A 
ATOM      3  C   UNL d   1     -41.834-122.336 -52.746  0.00  0.00     0.013 A 
ATOM      4  C   UNL d   1     -41.662-122.707 -53.462  0.00  0.00     0.023 A 
ATOM      5  O   UNL d   1     -41.130-123.814 -52.746  0.00  0.00    -0.273 OA
ATOM      6  C   UNL d   1     -41.310-123.446 -53.462  0.00  0.00     0.103 A 
ATOM      7  C   UNL d   1     -41.842-122.339 -54.162  0.00  0.00     0.002 A 
ATOM      8  O   UNL d   1     -41.123-123.810 -51.296  0.00  0.00    -0.259 OA
ATOM      9  C   UNL d   1     -41.138-123.817 -54.162  0.00  0.00     0.025 A 
ATOM     10  C   UNL d   1     -41.669-122.710 -54.878  0.00  0.00     0.000 A 
ATOM     11  C   UNL d   1     -41.317-123.450 -54.878  0.00  0.00     0.002 A 
ATOM     12  C   UNL d   1     -42.198-121.592 -54.162  0.00  0.00     0.000 A 
ATOM     13  C   UNL d   1     -41.849-122.343 -55.594  0.00  0.00     0.000 A 
ATOM     14  C   UNL d   1     -42.383-121.213 -54.865  0.00  0.00     0.000 A 
ATOM     15  C   UNL d   1     -42.207-121.592 -55.594  0.00  0.00     0.000 A 
ENDROOT
BRANCH   1  16
ATOM     16  C   UNL d   1     -41.836-122.313 -51.296  0.00  0.00     0.305 C 
ATOM     17  O   UNL d   1     -41.354-121.714 -51.016  0.00  0.00    -0.259 OA
BRANCH  16  18
ATOM     18  O   UNL d   1     -42.492-122.540 -50.879  0.00  0.00    -0.271 OA
BRANCH  18  19
ATOM     19  C   UNL d   1     -42.733-122.103 -50.222  0.00  0.00     0.126 C 
ATOM     20  C   UNL d   1     -43.360-122.384 -49.669  0.00  0.00     0.029 C 
ENDBRANCH  18  19
ENDBRANCH  16  18
ENDBRANCH   1  16
TORSDOF 3
ENDMDL
