MODEL 1
REMARK VINA RESULT:      -6.3      0.000      0.000
REMARK  4 active torsions:
REMARK  status: ('A' for Active; 'I' for Inactive)
REMARK    1  A    between atoms: N_2  and  C_1 
REMARK       I    between atoms: C_3  and  N_2 
REMARK    2  A    between atoms: C_6  and  C_3 
REMARK    3  A    between atoms: C_11  and  C_7 
REMARK    4  A    between atoms: C_10  and  C_11 
ROOT
ATOM      1  C   UNL d   1     -41.382-122.759 -52.224  0.00  0.00     0.197 A 
ATOM      2  N   UNL d   1     -41.242-123.551 -52.150  0.00  0.00    -0.219 NA
ATOM      3  S   UNL d   1     -41.375-122.419 -51.462  0.00  0.00    -0.047 SA
ATOM      4  C   UNL d   1     -41.228-123.029 -50.928  0.00  0.00     0.051 A 
ATOM      5  C   UNL d   1     -41.144-123.732 -51.337  0.00  0.00     0.108 A 
ENDROOT
BRANCH   1   6
ATOM      6  N   UNL d   1     -41.510-122.356 -52.945  0.00  0.00    -0.182 NA
ATOM      7  C   UNL d   1     -41.744-122.759 -53.618  0.00  0.00     0.287 C 
ATOM      8  O   UNL d   1     -41.850-123.563 -53.575  0.00  0.00    -0.265 OA
BRANCH   7   9
ATOM      9  C   UNL d   1     -41.867-122.366 -54.313  0.00  0.00     0.087 A 
ATOM     10  S   UNL d   1     -41.484-122.597 -54.984  0.00  0.00    -0.082 SA
ATOM     11  C   UNL d   1     -41.728-122.086 -55.598  0.00  0.00     0.036 A 
ATOM     12  C   UNL d   1     -42.236-121.568 -55.310  0.00  0.00     0.008 A 
ATOM     13  C   UNL d   1     -42.346-121.718 -54.499  0.00  0.00     0.012 A 
ENDBRANCH   7   9
ENDBRANCH   1   6
BRANCH   4  14
ATOM     14  C   UNL d   1     -41.156-123.052 -50.120  0.00  0.00     0.009 C 
BRANCH  14  15
ATOM     15  C   UNL d   1     -41.846-123.064 -49.642  0.00  0.00     0.011 A 
ATOM     16  C   UNL d   1     -41.823-123.416 -48.901  0.00  0.00     0.058 A 
ATOM     17 CL   UNL d   1     -41.123-123.761 -48.614  0.00  0.00    -0.082 Cl
ATOM     18  C   UNL d   1     -42.515-123.429 -48.420  0.00  0.00     0.011 A 
ATOM     19  C   UNL d   1     -43.204-123.099 -48.682  0.00  0.00     0.001 A 
ATOM     20  C   UNL d   1     -43.244-122.740 -49.427  0.00  0.00     0.000 A 
ATOM     21  C   UNL d   1     -42.553-122.727 -49.905  0.00  0.00     0.001 A 
ENDBRANCH  14  15
ENDBRANCH   4  14
TORSDOF 4
ENDMDL
MODEL 2
REMARK VINA RESULT:      -5.0      1.862      4.813
REMARK  4 active torsions:
REMARK  status: ('A' for Active; 'I' for Inactive)
REMARK    1  A    between atoms: N_2  and  C_1 
REMARK       I    between atoms: C_3  and  N_2 
REMARK    2  A    between atoms: C_6  and  C_3 
REMARK    3  A    between atoms: C_11  and  C_7 
REMARK    4  A    between atoms: C_10  and  C_11 
ROOT
ATOM      1  C   UNL d   1     -41.460-122.920 -51.487  0.00  0.00     0.197 A 
ATOM      2  N   UNL d   1     -41.281-122.157 -51.680  0.00  0.00    -0.219 NA
ATOM      3  S   UNL d   1     -41.433-123.379 -52.183  0.00  0.00    -0.047 SA
ATOM      4  C   UNL d   1     -41.233-122.871 -52.799  0.00  0.00     0.051 A 
ATOM      5  C   UNL d   1     -41.136-122.114 -52.505  0.00  0.00     0.108 A 
ENDROOT
BRANCH   1   6
ATOM      6  N   UNL d   1     -41.640-123.196 -50.719  0.00  0.00    -0.182 NA
ATOM      7  C   UNL d   1     -42.327-122.967 -50.339  0.00  0.00     0.287 C 
ATOM      8  O   UNL d   1     -42.837-122.463 -50.722  0.00  0.00    -0.265 OA
BRANCH   7   9
ATOM      9  C   UNL d   1     -42.498-123.235 -49.597  0.00  0.00     0.087 A 
ATOM     10  S   UNL d   1     -42.020-123.045 -48.976  0.00  0.00    -0.082 SA
ATOM     11  C   UNL d   1     -42.344-123.403 -48.294  0.00  0.00     0.036 A 
ATOM     12  C   UNL d   1     -42.990-123.792 -48.494  0.00  0.00     0.008 A 
ATOM     13  C   UNL d   1     -43.115-123.706 -49.313  0.00  0.00     0.012 A 
ENDBRANCH   7   9
ENDBRANCH   1   6
BRANCH   4  14
ATOM     14  C   UNL d   1     -41.123-122.982 -53.596  0.00  0.00     0.009 C 
BRANCH  14  15
ATOM     15  C   UNL d   1     -41.654-122.628 -54.142  0.00  0.00     0.011 A 
ATOM     16  C   UNL d   1     -41.829-123.011 -54.847  0.00  0.00     0.058 A 
ATOM     17 CL   UNL d   1     -41.487-123.747 -55.030  0.00  0.00    -0.082 Cl
ATOM     18  C   UNL d   1     -42.363-122.657 -55.396  0.00  0.00     0.011 A 
ATOM     19  C   UNL d   1     -42.705-121.944 -55.235  0.00  0.00     0.001 A 
ATOM     20  C   UNL d   1     -42.538-121.545 -54.528  0.00  0.00     0.000 A 
ATOM     21  C   UNL d   1     -42.006-121.899 -53.982  0.00  0.00     0.001 A 
ENDBRANCH  14  15
ENDBRANCH   4  14
TORSDOF 4
ENDMDL
