MODEL 1
REMARK VINA RESULT:      63.0      0.000      0.000
REMARK  4 active torsions:
REMARK  status: ('A' for Active; 'I' for Inactive)
REMARK    1  A    between atoms: C_8  and  N_1 
REMARK    2  A    between atoms: C_6  and  C_5 
REMARK    3  A    between atoms: C_7  and  C_6 
REMARK       I    between atoms: N_10  and  C_7 
REMARK    4  A    between atoms: C_13  and  N_10 
ROOT
ATOM      1  N   UNL d   1     -50.329  27.000  33.805  0.00  0.00    -0.236 N 
ATOM      2  C   UNL d   1     -50.477  27.810  33.767  0.00  0.00     0.298 A 
ATOM      3  C   UNL d   1     -49.552  26.890  34.035  0.00  0.00     0.274 A 
ATOM      4  S   UNL d   1     -49.780  28.201  33.977  0.00  0.00    -0.022 SA
ATOM      5  C   UNL d   1     -49.206  27.630  34.143  0.00  0.00     0.095 A 
ATOM      6  O   UNL d   1     -51.189  28.172  33.557  0.00  0.00    -0.259 OA
ATOM      7  O   UNL d   1     -49.173  26.166  34.143  0.00  0.00    -0.266 OA
ENDROOT
BRANCH   5   8
ATOM      8  C   UNL d   1     -48.427  27.779  34.376  0.00  0.00     0.074 C 
BRANCH   8   9
ATOM      9  C   UNL d   1     -48.262  28.421  34.857  0.00  0.00     0.280 C 
ATOM     10  N   UNL d   1     -47.681  28.963  34.637  0.00  0.00    -0.208 NA
ATOM     11  O   UNL d   1     -48.678  28.525  35.563  0.00  0.00    -0.265 OA
BRANCH  10  12
ATOM     12  C   UNL d   1     -47.513  29.611  35.119  0.00  0.00     0.085 A 
ATOM     13  C   UNL d   1     -47.599  30.378  34.827  0.00  0.00     0.019 A 
ATOM     14  C   UNL d   1     -47.430  31.026  35.311  0.00  0.00     0.002 A 
ATOM     15  C   UNL d   1     -47.175  30.914  36.086  0.00  0.00     0.000 A 
ATOM     16  C   UNL d   1     -47.091  30.132  36.372  0.00  0.00     0.002 A 
ATOM     17  C   UNL d   1     -47.259  29.497  35.892  0.00  0.00     0.019 A 
ENDBRANCH  10  12
ENDBRANCH   8   9
ENDBRANCH   5   8
BRANCH   1  18
ATOM     18  C   UNL d   1     -50.871  26.401  33.639  0.00  0.00     0.070 A 
ATOM     19  C   UNL d   1     -51.663  26.587  33.491  0.00  0.00     0.018 A 
ATOM     20  C   UNL d   1     -52.201  25.984  33.326  0.00  0.00     0.002 A 
ATOM     21  C   UNL d   1     -51.955  25.203  33.308  0.00  0.00     0.000 A 
ATOM     22  C   UNL d   1     -51.160  25.014  33.457  0.00  0.00     0.002 A 
ATOM     23  C   UNL d   1     -50.621  25.614  33.622  0.00  0.00     0.018 A 
ENDBRANCH   1  18
TORSDOF 4
ENDMDL
MODEL 2
REMARK VINA RESULT:      64.9      0.971      5.069
REMARK  4 active torsions:
REMARK  status: ('A' for Active; 'I' for Inactive)
REMARK    1  A    between atoms: C_8  and  N_1 
REMARK    2  A    between atoms: C_6  and  C_5 
REMARK    3  A    between atoms: C_7  and  C_6 
REMARK       I    between atoms: N_10  and  C_7 
REMARK    4  A    between atoms: C_13  and  N_10 
ROOT
ATOM      1  N   UNL d   1     -48.701  28.288  35.040  0.00  0.00    -0.236 N 
ATOM      2  C   UNL d   1     -49.127  27.792  35.542  0.00  0.00     0.298 A 
ATOM      3  C   UNL d   1     -48.749  27.990  34.280  0.00  0.00     0.274 A 
ATOM      4  S   UNL d   1     -49.441  27.181  35.081  0.00  0.00    -0.022 SA
ATOM      5  C   UNL d   1     -49.207  27.304  34.299  0.00  0.00     0.095 A 
ATOM      6  O   UNL d   1     -49.227  27.883  36.356  0.00  0.00    -0.259 OA
ATOM      7  O   UNL d   1     -48.403  28.314  33.606  0.00  0.00    -0.266 OA
ENDROOT
BRANCH   5   8
ATOM      8  C   UNL d   1     -49.398  26.824  33.654  0.00  0.00     0.074 C 
BRANCH   8   9
ATOM      9  C   UNL d   1     -50.120  26.438  33.635  0.00  0.00     0.280 C 
ATOM     10  N   UNL d   1     -50.153  25.630  33.475  0.00  0.00    -0.208 NA
ATOM     11  O   UNL d   1     -50.817  26.859  33.776  0.00  0.00    -0.265 OA
BRANCH  10  12
ATOM     12  C   UNL d   1     -50.879  25.239  33.455  0.00  0.00     0.085 A 
ATOM     13  C   UNL d   1     -51.580  25.665  33.537  0.00  0.00     0.019 A 
ATOM     14  C   UNL d   1     -52.308  25.273  33.517  0.00  0.00     0.002 A 
ATOM     15  C   UNL d   1     -52.339  24.456  33.414  0.00  0.00     0.000 A 
ATOM     16  C   UNL d   1     -51.622  24.034  33.332  0.00  0.00     0.002 A 
ATOM     17  C   UNL d   1     -50.908  24.425  33.352  0.00  0.00     0.019 A 
ENDBRANCH  10  12
ENDBRANCH   8   9
ENDBRANCH   5   8
BRANCH   1  18
ATOM     18  C   UNL d   1     -48.294  28.969  35.264  0.00  0.00     0.070 A 
ATOM     19  C   UNL d   1     -48.367  29.663  34.819  0.00  0.00     0.018 A 
ATOM     20  C   UNL d   1     -47.958  30.341  35.048  0.00  0.00     0.002 A 
ATOM     21  C   UNL d   1     -47.481  30.332  35.713  0.00  0.00     0.000 A 
ATOM     22  C   UNL d   1     -47.406  29.637  36.162  0.00  0.00     0.002 A 
ATOM     23  C   UNL d   1     -47.813  28.958  35.935  0.00  0.00     0.018 A 
ENDBRANCH   1  18
TORSDOF 4
ENDMDL
