MODEL 1
REMARK VINA RESULT:      62.4      0.000      0.000
REMARK  6 active torsions:
REMARK  status: ('A' for Active; 'I' for Inactive)
REMARK    1  A    between atoms: C_6  and  C_1 
REMARK    2  A    between atoms: C_9  and  N_3 
REMARK       I    between atoms: N_7  and  C_6 
REMARK    3  A    between atoms: C_8  and  N_7 
REMARK    4  A    between atoms: C_14  and  C_9 
REMARK    5  A    between atoms: O_21  and  C_12 
REMARK    6  A    between atoms: O_22  and  C_19 
ROOT
ATOM      1  C   UNL d   1     -49.423  28.168  34.201  0.00  0.00     0.199 A 
ATOM      2  C   UNL d   1     -50.096  28.031  33.733  0.00  0.00     0.211 A 
ATOM      3  N   UNL d   1     -50.237  27.218  33.722  0.00  0.00    -0.190 N 
ATOM      4  N   UNL d   1     -49.153  27.437  34.476  0.00  0.00    -0.122 NA
ATOM      5  N   UNL d   1     -49.659  26.849  34.179  0.00  0.00    -0.058 NA
ATOM      6  N   UNL d   1     -50.545  28.609  33.346  0.00  0.00    -0.125 N 
ENDROOT
BRANCH   1   7
ATOM      7  C   UNL d   1     -49.089  28.903  34.358  0.00  0.00     0.302 C 
ATOM      8  N   UNL d   1     -48.467  28.962  34.901  0.00  0.00    -0.205 NA
ATOM      9  O   UNL d   1     -49.372  29.578  33.977  0.00  0.00    -0.263 OA
BRANCH   8  10
ATOM     10  C   UNL d   1     -48.129  29.704  35.061  0.00  0.00     0.108 A 
ATOM     11  C   UNL d   1     -48.358  30.365  34.626  0.00  0.00     0.033 A 
ATOM     12  C   UNL d   1     -48.021  31.102  34.785  0.00  0.00     0.059 A 
ATOM     13 CL   UNL d   1     -48.256  31.762  34.344  0.00  0.00    -0.082 Cl
ATOM     14  C   UNL d   1     -47.454  31.178  35.382  0.00  0.00     0.013 A 
ATOM     15  C   UNL d   1     -47.222  30.509  35.823  0.00  0.00     0.027 A 
ATOM     16  C   UNL d   1     -47.564  29.774  35.657  0.00  0.00     0.112 A 
BRANCH  16  17
ATOM     17  O   UNL d   1     -47.335  29.109  36.093  0.00  0.00    -0.327 OA
ATOM     18  C   UNL d   1     -46.878  29.202  36.773  0.00  0.00     0.181 C 
ENDBRANCH  16  17
ENDBRANCH   8  10
ENDBRANCH   1   7
BRANCH   3  19
ATOM     19  C   UNL d   1     -50.849  26.832  33.326  0.00  0.00     0.104 C 
BRANCH  19  20
ATOM     20  C   UNL d   1     -50.901  26.012  33.322  0.00  0.00     0.021 A 
ATOM     21  C   UNL d   1     -51.634  25.636  33.325  0.00  0.00     0.026 A 
ATOM     22  C   UNL d   1     -51.681  24.817  33.321  0.00  0.00     0.094 A 
ATOM     23  C   UNL d   1     -50.990  24.356  33.313  0.00  0.00     0.024 A 
ATOM     24  C   UNL d   1     -50.247  24.738  33.310  0.00  0.00     0.002 A 
ATOM     25  C   UNL d   1     -50.207  25.557  33.315  0.00  0.00     0.002 A 
BRANCH  22  26
ATOM     26  O   UNL d   1     -52.419  24.448  33.324  0.00  0.00    -0.328 OA
ATOM     27  C   UNL d   1     -52.648  23.983  33.965  0.00  0.00     0.181 C 
ENDBRANCH  22  26
ENDBRANCH  19  20
ENDBRANCH   3  19
TORSDOF 6
ENDMDL
MODEL 2
REMARK VINA RESULT:      64.1      1.797      5.610
REMARK  6 active torsions:
REMARK  status: ('A' for Active; 'I' for Inactive)
REMARK    1  A    between atoms: C_6  and  C_1 
REMARK    2  A    between atoms: C_9  and  N_3 
REMARK       I    between atoms: N_7  and  C_6 
REMARK    3  A    between atoms: C_8  and  N_7 
REMARK    4  A    between atoms: C_14  and  C_9 
REMARK    5  A    between atoms: O_21  and  C_12 
REMARK    6  A    between atoms: O_22  and  C_19 
ROOT
ATOM      1  C   UNL d   1     -49.172  27.783  34.486  0.00  0.00     0.199 A 
ATOM      2  C   UNL d   1     -48.850  28.012  35.217  0.00  0.00     0.211 A 
ATOM      3  N   UNL d   1     -48.226  28.532  35.067  0.00  0.00    -0.190 N 
ATOM      4  N   UNL d   1     -48.746  28.164  33.890  0.00  0.00    -0.122 NA
ATOM      5  N   UNL d   1     -48.159  28.628  34.252  0.00  0.00    -0.058 NA
ATOM      6  N   UNL d   1     -49.107  27.762  35.962  0.00  0.00    -0.125 N 
ENDROOT
BRANCH   1   7
ATOM      7  C   UNL d   1     -49.805  27.268  34.382  0.00  0.00     0.302 C 
ATOM      8  N   UNL d   1     -49.967  26.967  33.628  0.00  0.00    -0.205 NA
ATOM      9  O   UNL d   1     -50.276  27.052  35.024  0.00  0.00    -0.263 OA
BRANCH   8  10
ATOM     10  C   UNL d   1     -50.606  26.446  33.520  0.00  0.00     0.108 A 
ATOM     11  C   UNL d   1     -51.378  26.734  33.521  0.00  0.00     0.033 A 
ATOM     12  C   UNL d   1     -52.012  26.217  33.414  0.00  0.00     0.059 A 
ATOM     13 CL   UNL d   1     -52.785  26.513  33.415  0.00  0.00    -0.082 Cl
ATOM     14  C   UNL d   1     -51.874  25.408  33.306  0.00  0.00     0.013 A 
ATOM     15  C   UNL d   1     -51.093  25.117  33.306  0.00  0.00     0.027 A 
ATOM     16  C   UNL d   1     -50.462  25.642  33.414  0.00  0.00     0.112 A 
BRANCH  16  17
ATOM     17  O   UNL d   1     -49.686  25.354  33.414  0.00  0.00    -0.327 OA
ATOM     18  C   UNL d   1     -49.549  24.544  33.342  0.00  0.00     0.181 C 
ENDBRANCH  16  17
ENDBRANCH   8  10
ENDBRANCH   1   7
BRANCH   3  19
ATOM     19  C   UNL d   1     -47.747  28.898  35.631  0.00  0.00     0.104 C 
BRANCH  19  20
ATOM     20  C   UNL d   1     -47.600  29.706  35.602  0.00  0.00     0.021 A 
ATOM     21  C   UNL d   1     -47.813  30.149  34.942  0.00  0.00     0.026 A 
ATOM     22  C   UNL d   1     -47.664  30.956  34.917  0.00  0.00     0.094 A 
ATOM     23  C   UNL d   1     -47.297  31.335  35.557  0.00  0.00     0.024 A 
ATOM     24  C   UNL d   1     -47.081  30.885  36.227  0.00  0.00     0.002 A 
ATOM     25  C   UNL d   1     -47.233  30.079  36.245  0.00  0.00     0.002 A 
BRANCH  22  26
ATOM     26  O   UNL d   1     -47.881  31.393  34.251  0.00  0.00    -0.328 OA
ATOM     27  C   UNL d   1     -47.952  32.214  34.298  0.00  0.00     0.181 C 
ENDBRANCH  22  26
ENDBRANCH  19  20
ENDBRANCH   3  19
TORSDOF 6
ENDMDL
MODEL 3
REMARK VINA RESULT:      65.0      1.990      5.801
REMARK  6 active torsions:
REMARK  status: ('A' for Active; 'I' for Inactive)
REMARK    1  A    between atoms: C_6  and  C_1 
REMARK    2  A    between atoms: C_9  and  N_3 
REMARK       I    between atoms: N_7  and  C_6 
REMARK    3  A    between atoms: C_8  and  N_7 
REMARK    4  A    between atoms: C_14  and  C_9 
REMARK    5  A    between atoms: O_21  and  C_12 
REMARK    6  A    between atoms: O_22  and  C_19 
ROOT
ATOM      1  C   UNL d   1     -49.293  27.487  34.103  0.00  0.00     0.199 A 
ATOM      2  C   UNL d   1     -48.517  27.548  34.394  0.00  0.00     0.211 A 
ATOM      3  N   UNL d   1     -48.378  28.341  34.579  0.00  0.00    -0.190 N 
ATOM      4  N   UNL d   1     -49.628  28.242  34.110  0.00  0.00    -0.122 NA
ATOM      5  N   UNL d   1     -49.059  28.770  34.406  0.00  0.00    -0.058 NA
ATOM      6  N   UNL d   1     -47.979  26.926  34.482  0.00  0.00    -0.125 N 
ENDROOT
BRANCH   1   7
ATOM      7  C   UNL d   1     -49.657  26.793  33.852  0.00  0.00     0.302 C 
ATOM      8  N   UNL d   1     -50.444  26.647  34.060  0.00  0.00    -0.205 NA
ATOM      9  O   UNL d   1     -49.240  26.245  33.397  0.00  0.00    -0.263 OA
BRANCH   8  10
ATOM     10  C   UNL d   1     -50.814  25.946  33.809  0.00  0.00     0.108 A 
ATOM     11  C   UNL d   1     -50.376  25.253  33.732  0.00  0.00     0.033 A 
ATOM     12  C   UNL d   1     -50.744  24.556  33.482  0.00  0.00     0.059 A 
ATOM     13 CL   UNL d   1     -50.298  23.864  33.407  0.00  0.00    -0.082 Cl
ATOM     14  C   UNL d   1     -51.553  24.555  33.309  0.00  0.00     0.013 A 
ATOM     15  C   UNL d   1     -51.996  25.257  33.387  0.00  0.00     0.027 A 
ATOM     16  C   UNL d   1     -51.620  25.950  33.638  0.00  0.00     0.112 A 
BRANCH  16  17
ATOM     17  O   UNL d   1     -52.059  26.647  33.716  0.00  0.00    -0.327 OA
ATOM     18  C   UNL d   1     -52.769  26.733  33.306  0.00  0.00     0.181 C 
ENDBRANCH  16  17
ENDBRANCH   8  10
ENDBRANCH   1   7
BRANCH   3  19
ATOM     19  C   UNL d   1     -47.680  28.657  34.886  0.00  0.00     0.104 C 
BRANCH  19  20
ATOM     20  C   UNL d   1     -47.657  29.422  35.184  0.00  0.00     0.021 A 
ATOM     21  C   UNL d   1     -47.675  30.072  34.678  0.00  0.00     0.026 A 
ATOM     22  C   UNL d   1     -47.652  30.835  34.980  0.00  0.00     0.094 A 
ATOM     23  C   UNL d   1     -47.609  30.961  35.799  0.00  0.00     0.024 A 
ATOM     24  C   UNL d   1     -47.590  30.302  36.312  0.00  0.00     0.002 A 
ATOM     25  C   UNL d   1     -47.614  29.542  36.004  0.00  0.00     0.002 A 
BRANCH  22  26
ATOM     26  O   UNL d   1     -47.671  31.481  34.467  0.00  0.00    -0.328 OA
ATOM     27  C   UNL d   1     -47.496  32.237  34.744  0.00  0.00     0.181 C 
ENDBRANCH  22  26
ENDBRANCH  19  20
ENDBRANCH   3  19
TORSDOF 6
ENDMDL
MODEL 4
REMARK VINA RESULT:      65.2      1.073      1.653
REMARK  6 active torsions:
REMARK  status: ('A' for Active; 'I' for Inactive)
REMARK    1  A    between atoms: C_6  and  C_1 
REMARK    2  A    between atoms: C_9  and  N_3 
REMARK       I    between atoms: N_7  and  C_6 
REMARK    3  A    between atoms: C_8  and  N_7 
REMARK    4  A    between atoms: C_14  and  C_9 
REMARK    5  A    between atoms: O_21  and  C_12 
REMARK    6  A    between atoms: O_22  and  C_19 
ROOT
ATOM      1  C   UNL d   1     -49.214  28.042  34.288  0.00  0.00     0.199 A 
ATOM      2  C   UNL d   1     -50.027  27.980  34.129  0.00  0.00     0.211 A 
ATOM      3  N   UNL d   1     -50.138  27.344  33.614  0.00  0.00    -0.190 N 
ATOM      4  N   UNL d   1     -48.827  27.443  33.870  0.00  0.00    -0.122 NA
ATOM      5  N   UNL d   1     -49.402  27.011  33.453  0.00  0.00    -0.058 NA
ATOM      6  N   UNL d   1     -50.621  28.470  34.432  0.00  0.00    -0.125 N 
ENDROOT
BRANCH   1   7
ATOM      7  C   UNL d   1     -48.862  28.603  34.776  0.00  0.00     0.302 C 
ATOM      8  N   UNL d   1     -48.423  29.219  34.440  0.00  0.00    -0.205 NA
ATOM      9  O   UNL d   1     -48.946  28.553  35.595  0.00  0.00    -0.263 OA
BRANCH   8  10
ATOM     10  C   UNL d   1     -48.068  29.787  34.931  0.00  0.00     0.108 A 
ATOM     11  C   UNL d   1     -47.664  29.552  35.610  0.00  0.00     0.033 A 
ATOM     12  C   UNL d   1     -47.310  30.116  36.098  0.00  0.00     0.059 A 
ATOM     13 CL   UNL d   1     -46.906  29.873  36.778  0.00  0.00    -0.082 Cl
ATOM     14  C   UNL d   1     -47.360  30.919  35.906  0.00  0.00     0.013 A 
ATOM     15  C   UNL d   1     -47.769  31.158  35.220  0.00  0.00     0.027 A 
ATOM     16  C   UNL d   1     -48.121  30.586  34.736  0.00  0.00     0.112 A 
BRANCH  16  17
ATOM     17  O   UNL d   1     -48.527  30.821  34.054  0.00  0.00    -0.327 OA
ATOM     18  C   UNL d   1     -48.645  31.623  33.903  0.00  0.00     0.181 C 
ENDBRANCH  16  17
ENDBRANCH   8  10
ENDBRANCH   1   7
BRANCH   3  19
ATOM     19  C   UNL d   1     -50.857  27.080  33.309  0.00  0.00     0.104 C 
BRANCH  19  20
ATOM     20  C   UNL d   1     -51.051  26.282  33.311  0.00  0.00     0.021 A 
ATOM     21  C   UNL d   1     -50.462  25.706  33.314  0.00  0.00     0.026 A 
ATOM     22  C   UNL d   1     -50.659  24.909  33.316  0.00  0.00     0.094 A 
ATOM     23  C   UNL d   1     -51.456  24.674  33.314  0.00  0.00     0.024 A 
ATOM     24  C   UNL d   1     -52.053  25.259  33.311  0.00  0.00     0.002 A 
ATOM     25  C   UNL d   1     -51.848  26.053  33.309  0.00  0.00     0.002 A 
BRANCH  22  26
ATOM     26  O   UNL d   1     -50.064  24.338  33.319  0.00  0.00    -0.328 OA
ATOM     27  C   UNL d   1     -50.251  23.543  33.433  0.00  0.00     0.181 C 
ENDBRANCH  22  26
ENDBRANCH  19  20
ENDBRANCH   3  19
TORSDOF 6
ENDMDL
