MODEL 1
REMARK VINA RESULT:       0.8      0.000      0.000
REMARK  4 active torsions:
REMARK  status: ('A' for Active; 'I' for Inactive)
REMARK    1  A    between atoms: C_11  and  N_3 
REMARK    2  A    between atoms: C_10  and  C_5 
REMARK    3  A    between atoms: C_21  and  C_11 
REMARK    4  A    between atoms: N_12  and  C_21 
ROOT
ATOM      1  C   UNL d   1     -41.764-121.964 -52.742  0.00  0.00     0.085 A 
ATOM      2  C   UNL d   1     -41.925-122.784 -52.732  0.00  0.00     0.161 A 
ATOM      3  N   UNL d   1     -41.658-122.389 -51.479  0.00  0.00    -0.268 N 
ATOM      4  C   UNL d   1     -41.858-123.041 -51.952  0.00  0.00     0.288 A 
ATOM      5  C   UNL d   1     -41.601-121.727 -51.969  0.00  0.00     0.095 A 
ATOM      6  C   UNL d   1     -41.791-121.549 -53.463  0.00  0.00     0.201 A 
ATOM      7  O   UNL d   1     -42.108-123.176 -53.434  0.00  0.00    -0.302 OA
ATOM      8  C   UNL d   1     -41.976-121.953 -54.161  0.00  0.00     0.063 A 
ATOM      9  C   UNL d   1     -42.136-122.769 -54.150  0.00  0.00     0.103 A 
ATOM     10  O   UNL d   1     -41.971-123.817 -51.684  0.00  0.00    -0.264 OA
ATOM     11  O   UNL d   1     -41.633-120.740 -53.478  0.00  0.00    -0.286 OA
ATOM     12  C   UNL d   1     -42.001-121.538 -54.873  0.00  0.00     0.017 A 
ATOM     13  C   UNL d   1     -42.318-123.153 -54.853  0.00  0.00     0.026 A 
ATOM     14  C   UNL d   1     -42.184-121.930 -55.571  0.00  0.00     0.058 A 
ATOM     15  C   UNL d   1     -42.343-122.738 -55.561  0.00  0.00     0.013 A 
ATOM     16 CL   UNL d   1     -42.209-121.515 -56.279  0.00  0.00    -0.082 Cl
ENDROOT
BRANCH   3  17
ATOM     17  C   UNL d   1     -41.537-122.402 -50.665  0.00  0.00     0.102 C 
BRANCH  17  18
ATOM     18  C   UNL d   1     -41.704-123.082 -50.227  0.00  0.00     0.100 C 
BRANCH  18  19
ATOM     19  N   UNL d   1     -41.777-123.045 -49.408  0.00  0.00    -0.298 N 
ATOM     20  C   UNL d   1     -42.501-122.869 -49.076  0.00  0.00     0.107 A 
ATOM     21  C   UNL d   1     -42.574-122.832 -48.257  0.00  0.00     0.142 A 
ATOM     22  O   UNL d   1     -41.922-122.971 -47.778  0.00  0.00    -0.300 OA
ATOM     23  C   UNL d   1     -41.196-123.148 -48.119  0.00  0.00     0.142 A 
ATOM     24  C   UNL d   1     -41.123-123.185 -48.938  0.00  0.00     0.107 A 
ENDBRANCH  18  19
ENDBRANCH  17  18
ENDBRANCH   3  17
BRANCH   5  25
ATOM     25  C   UNL d   1     -41.416-120.948 -51.768  0.00  0.00     0.116 A 
ATOM     26  O   UNL d   1     -41.292-120.316 -52.295  0.00  0.00    -0.304 OA
ATOM     27  C   UNL d   1     -41.123-119.641 -51.852  0.00  0.00     0.123 A 
ATOM     28  C   UNL d   1     -41.139-119.845 -51.052  0.00  0.00     0.029 A 
ATOM     29  C   UNL d   1     -41.321-120.653 -50.998  0.00  0.00     0.028 A 
ENDBRANCH   5  25
TORSDOF 4
ENDMDL
MODEL 2
REMARK VINA RESULT:       1.7      1.972      4.655
REMARK  4 active torsions:
REMARK  status: ('A' for Active; 'I' for Inactive)
REMARK    1  A    between atoms: C_11  and  N_3 
REMARK    2  A    between atoms: C_10  and  C_5 
REMARK    3  A    between atoms: C_21  and  C_11 
REMARK    4  A    between atoms: N_12  and  C_21 
ROOT
ATOM      1  C   UNL d   1     -41.860-122.228 -51.082  0.00  0.00     0.085 A 
ATOM      2  C   UNL d   1     -42.029-123.025 -51.270  0.00  0.00     0.161 A 
ATOM      3  N   UNL d   1     -41.693-122.385 -52.399  0.00  0.00    -0.268 N 
ATOM      4  C   UNL d   1     -41.924-123.117 -52.082  0.00  0.00     0.288 A 
ATOM      5  C   UNL d   1     -41.655-121.840 -51.780  0.00  0.00     0.095 A 
ATOM      6  C   UNL d   1     -41.920-121.970 -50.293  0.00  0.00     0.201 A 
ATOM      7  O   UNL d   1     -42.252-123.550 -50.674  0.00  0.00    -0.302 OA
ATOM      8  C   UNL d   1     -42.145-122.507 -49.704  0.00  0.00     0.063 A 
ATOM      9  C   UNL d   1     -42.313-123.299 -49.891  0.00  0.00     0.103 A 
ATOM     10  O   UNL d   1     -42.031-123.817 -52.511  0.00  0.00    -0.264 OA
ATOM     11  O   UNL d   1     -41.755-121.186 -50.103  0.00  0.00    -0.286 OA
ATOM     12  C   UNL d   1     -42.203-122.246 -48.923  0.00  0.00     0.017 A 
ATOM     13  C   UNL d   1     -42.534-123.816 -49.293  0.00  0.00     0.026 A 
ATOM     14  C   UNL d   1     -42.426-122.771 -48.331  0.00  0.00     0.058 A 
ATOM     15  C   UNL d   1     -42.592-123.556 -48.516  0.00  0.00     0.013 A 
ATOM     16 CL   UNL d   1     -42.483-122.510 -47.554  0.00  0.00    -0.082 Cl
ENDROOT
BRANCH   3  17
ATOM     17  C   UNL d   1     -41.531-122.232 -53.191  0.00  0.00     0.102 C 
BRANCH  17  18
ATOM     18  C   UNL d   1     -41.919-122.651 -53.788  0.00  0.00     0.100 C 
BRANCH  18  19
ATOM     19  N   UNL d   1     -41.879-122.399 -54.570  0.00  0.00    -0.298 N 
ATOM     20  C   UNL d   1     -42.514-122.006 -54.900  0.00  0.00     0.107 A 
ATOM     21  C   UNL d   1     -42.474-121.754 -55.683  0.00  0.00     0.142 A 
ATOM     22  O   UNL d   1     -41.800-121.898 -56.128  0.00  0.00    -0.300 OA
ATOM     23  C   UNL d   1     -41.164-122.295 -55.790  0.00  0.00     0.142 A 
ATOM     24  C   UNL d   1     -41.204-122.547 -55.007  0.00  0.00     0.107 A 
ENDBRANCH  18  19
ENDBRANCH  17  18
ENDBRANCH   3  17
BRANCH   5  25
ATOM     25  C   UNL d   1     -41.452-121.040 -51.806  0.00  0.00     0.116 A 
ATOM     26  O   UNL d   1     -41.357-120.574 -52.488  0.00  0.00    -0.304 OA
ATOM     27  C   UNL d   1     -41.155-119.810 -52.252  0.00  0.00     0.123 A 
ATOM     28  C   UNL d   1     -41.123-119.793 -51.427  0.00  0.00     0.029 A 
ATOM     29  C   UNL d   1     -41.307-120.553 -51.149  0.00  0.00     0.028 A 
ENDBRANCH   5  25
TORSDOF 4
ENDMDL
