MODEL 1
REMARK VINA RESULT:      23.7      0.000      0.000
REMARK  2 active torsions:
REMARK  status: ('A' for Active; 'I' for Inactive)
REMARK    1  A    between atoms: N_2  and  S_1 
REMARK    2  A    between atoms: C_3  and  S_1 
ROOT
ATOM      1  N   UNL d   1      59.213  49.689  50.181  0.00  0.00    -0.231 N 
ATOM      2  C   UNL d   1      59.533  49.695  50.938  0.00  0.00     0.075 A 
ATOM      3  C   UNL d   1      60.352  49.700  51.034  0.00  0.00     0.017 A 
ATOM      4  C   UNL d   1      59.704  49.687  49.511  0.00  0.00     0.092 A 
ATOM      5  C   UNL d   1      59.044  49.696  51.611  0.00  0.00     0.018 A 
ATOM      6  C   UNL d   1      60.519  49.692  49.608  0.00  0.00     0.020 A 
ATOM      7  C   UNL d   1      60.846  49.698  50.374  0.00  0.00     0.003 A 
ATOM      8  C   UNL d   1      60.674  49.706  51.806  0.00  0.00     0.002 A 
ATOM      9  C   UNL d   1      59.358  49.702  52.377  0.00  0.00     0.002 A 
ATOM     10  C   UNL d   1      60.177  49.707  52.476  0.00  0.00     0.000 A 
ENDROOT
BRANCH   1  11
ATOM     11  S   UNL d   1      58.395  49.684  50.088  0.00  0.00     0.277 S 
ATOM     12  O   UNL d   1      58.301  49.661  50.907  0.00  0.00    -0.199 OA
ATOM     13  O   UNL d   1      58.487  49.706  49.279  0.00  0.00    -0.199 OA
BRANCH  11  14
ATOM     14  C   UNL d   1      57.590  49.679  49.995  0.00  0.00     0.133 A 
ATOM     15  S   UNL d   1      57.199  49.700  49.272  0.00  0.00    -0.074 SA
ATOM     16  C   UNL d   1      56.361  49.686  49.436  0.00  0.00     0.036 A 
ATOM     17  C   UNL d   1      56.289  49.657  50.252  0.00  0.00     0.008 A 
ATOM     18  C   UNL d   1      57.000  49.652  50.619  0.00  0.00     0.020 A 
ENDBRANCH  11  14
ENDBRANCH   1  11
TORSDOF 2
ENDMDL
