MODEL 1
REMARK VINA RESULT:      25.7      0.000      0.000
REMARK  6 active torsions:
REMARK  status: ('A' for Active; 'I' for Inactive)
REMARK    1  A    between atoms: C_18  and  N_5 
REMARK    2  A    between atoms: S_11  and  C_6 
REMARK    3  A    between atoms: C_10  and  C_12 
REMARK    4  A    between atoms: C_15  and  S_11 
REMARK    5  A    between atoms: C_12  and  C_15 
REMARK    6  A    between atoms: C_21  and  C_18 
ROOT
ATOM      1  C   UNL d   1      46.309 -18.739  43.555  0.00  0.00     0.081 A 
ATOM      2  C   UNL d   1      46.190 -18.356  44.265  0.00  0.00     0.117 A 
ATOM      3  N   UNL d   1      45.996 -17.555  44.275  0.00  0.00    -0.215 NA
ATOM      4  C   UNL d   1      46.225 -18.285  42.833  0.00  0.00     0.268 A 
ATOM      5  N   UNL d   1      46.033 -17.500  42.874  0.00  0.00    -0.253 N 
ATOM      6  C   UNL d   1      45.925 -17.155  43.557  0.00  0.00     0.182 A 
ATOM      7  S   UNL d   1      46.305 -18.917  44.841  0.00  0.00    -0.068 SA
ATOM      8  C   UNL d   1      46.486 -19.491  43.703  0.00  0.00     0.013 A 
ATOM      9  C   UNL d   1      46.484 -19.607  44.539  0.00  0.00     0.031 A 
ATOM     10  O   UNL d   1      46.347 -18.677  42.076  0.00  0.00    -0.267 OA
ATOM     11  C   UNL d   1      46.646 -20.060  43.098  0.00  0.00     0.001 C 
ATOM     12  C   UNL d   1      46.643 -20.326  44.952  0.00  0.00     0.007 C 
ENDROOT
BRANCH   6  13
ATOM     13  S   UNL d   1      45.727 -16.343  43.585  0.00  0.00    -0.046 SA
BRANCH  13  14
ATOM     14  C   UNL d   1      45.690 -15.941  44.325  0.00  0.00     0.081 C 
BRANCH  14  15
ATOM     15  C   UNL d   1      45.239 -15.267  44.422  0.00  0.00     0.208 C 
ATOM     16  O   UNL d   1      44.420 -15.319  44.568  0.00  0.00    -0.285 OA
BRANCH  15  17
ATOM     17  C   UNL d   1      45.559 -14.550  44.380  0.00  0.00     0.069 A 
ATOM     18  S   UNL d   1      45.122 -13.871  44.121  0.00  0.00    -0.083 SA
ATOM     19  C   UNL d   1      45.627 -13.220  44.147  0.00  0.00     0.035 A 
ATOM     20  C   UNL d   1      46.366 -13.450  44.409  0.00  0.00     0.008 A 
ATOM     21  C   UNL d   1      46.349 -14.230  44.553  0.00  0.00     0.010 A 
ENDBRANCH  15  17
ENDBRANCH  14  15
ENDBRANCH  13  14
ENDBRANCH   6  13
BRANCH   5  22
ATOM     22  C   UNL d   1      45.948 -17.050  42.201  0.00  0.00     0.085 C 
BRANCH  22  23
ATOM     23  C   UNL d   1      46.407 -17.195  41.531  0.00  0.00     0.019 C 
ATOM     24  C   UNL d   1      46.070 -17.324  40.786  0.00  0.00     0.002 C 
ENDBRANCH  22  23
ENDBRANCH   5  22
TORSDOF 6
ENDMDL
