MODEL 1
REMARK VINA RESULT:     139.5      0.000      0.000
REMARK  5 active torsions:
REMARK  status: ('A' for Active; 'I' for Inactive)
REMARK    1  A    between atoms: N_10  and  C_3 
REMARK    2  A    between atoms: C_11  and  C_5 
REMARK    3  A    between atoms: C_16  and  C_7 
REMARK    4  A    between atoms: C_15  and  N_10 
REMARK       I    between atoms: C_12  and  N_13 
REMARK    5  A    between atoms: N_13  and  C_17 
ROOT
ATOM      1  N   UNL d   1      61.257  46.095  51.006  0.00  0.00    -0.184 N 
ATOM      2  C   UNL d   1      61.179  46.884  50.780  0.00  0.00     0.168 A 
ATOM      3  C   UNL d   1      61.611  45.573  50.514  0.00  0.00     0.217 A 
ATOM      4  N   UNL d   1      60.626  46.376  52.204  0.00  0.00    -0.162 NA
ATOM      5  C   UNL d   1      60.830  47.400  51.265  0.00  0.00     0.055 A 
ATOM      6  N   UNL d   1      61.459  47.119  50.071  0.00  0.00    -0.227 NA
ATOM      7  C   UNL d   1      61.892  45.812  49.800  0.00  0.00     0.066 A 
ATOM      8  C   UNL d   1      60.549  47.153  51.981  0.00  0.00     0.104 A 
ATOM      9  C   UNL d   1      61.814  46.601  49.574  0.00  0.00     0.087 A 
ATOM     10  C   UNL d   1      60.196  47.682  52.468  0.00  0.00     0.023 C 
ATOM     11  C   UNL d   1      62.107  46.854  48.828  0.00  0.00     0.021 C 
ENDROOT
BRANCH   3  12
ATOM     12  N   UNL d   1      61.686  44.781  50.749  0.00  0.00    -0.383 NA
BRANCH  12  13
ATOM     13  C   UNL d   1      61.853  44.007  50.989  0.00  0.00     0.134 A 
ATOM     14  C   UNL d   1      61.238  43.464  51.086  0.00  0.00     0.034 A 
ATOM     15  C   UNL d   1      61.415  42.689  51.327  0.00  0.00     0.022 A 
ATOM     16  C   UNL d   1      62.196  42.464  51.469  0.00  0.00     0.085 A 
ATOM     17  C   UNL d   1      62.815  43.005  51.373  0.00  0.00     0.022 A 
ATOM     18  C   UNL d   1      62.646  43.786  51.130  0.00  0.00     0.034 A 
BRANCH  16  19
ATOM     19  N   UNL d   1      62.355  41.683  51.710  0.00  0.00    -0.208 NA
ATOM     20  C   UNL d   1      62.649  41.141  51.151  0.00  0.00     0.279 C 
ATOM     21  O   UNL d   1      62.810  40.372  51.377  0.00  0.00    -0.265 OA
ATOM     22  C   UNL d   1      62.781  41.371  50.369  0.00  0.00     0.068 C 
ENDBRANCH  16  19
ENDBRANCH  12  13
ENDBRANCH   3  12
BRANCH   7  23
ATOM     23  C   UNL d   1      62.262  45.283  49.279  0.00  0.00     0.006 C 
ATOM     24  C   UNL d   1      62.928  45.516  48.828  0.00  0.00     0.000 C 
ENDBRANCH   7  23
BRANCH   5  25
ATOM     25  C   UNL d   1      60.754  48.165  51.046  0.00  0.00     0.004 A 
ATOM     26  C   UNL d   1      61.264  48.716  51.313  0.00  0.00     0.000 A 
ATOM     27  C   UNL d   1      61.188  49.494  51.090  0.00  0.00     0.000 A 
ATOM     28  C   UNL d   1      60.602  49.708  50.603  0.00  0.00     0.000 A 
ATOM     29  C   UNL d   1      60.082  49.154  50.329  0.00  0.00     0.000 A 
ATOM     30  C   UNL d   1      60.158  48.388  50.549  0.00  0.00     0.000 A 
ENDBRANCH   5  25
TORSDOF 5
ENDMDL
MODEL 2
REMARK VINA RESULT:     141.3      2.122      5.328
REMARK  5 active torsions:
REMARK  status: ('A' for Active; 'I' for Inactive)
REMARK    1  A    between atoms: N_10  and  C_3 
REMARK    2  A    between atoms: C_11  and  C_5 
REMARK    3  A    between atoms: C_16  and  C_7 
REMARK    4  A    between atoms: C_15  and  N_10 
REMARK       I    between atoms: C_12  and  N_13 
REMARK    5  A    between atoms: N_13  and  C_17 
ROOT
ATOM      1  N   UNL d   1      61.603  44.831  50.750  0.00  0.00    -0.184 N 
ATOM      2  C   UNL d   1      61.992  44.115  50.619  0.00  0.00     0.168 A 
ATOM      3  C   UNL d   1      61.719  45.444  50.250  0.00  0.00     0.217 A 
ATOM      4  N   UNL d   1      60.999  44.296  51.874  0.00  0.00    -0.162 NA
ATOM      5  C   UNL d   1      61.878  43.510  51.113  0.00  0.00     0.055 A 
ATOM      6  N   UNL d   1      62.481  44.043  49.993  0.00  0.00    -0.227 NA
ATOM      7  C   UNL d   1      62.212  45.369  49.620  0.00  0.00     0.066 A 
ATOM      8  C   UNL d   1      61.382  43.592  51.744  0.00  0.00     0.104 A 
ATOM      9  C   UNL d   1      62.601  44.653  49.489  0.00  0.00     0.087 A 
ATOM     10  C   UNL d   1      61.271  42.973  52.240  0.00  0.00     0.023 C 
ATOM     11  C   UNL d   1      63.117  44.571  48.831  0.00  0.00     0.021 C 
ENDROOT
BRANCH   3  12
ATOM     12  N   UNL d   1      61.325  46.160  50.388  0.00  0.00    -0.383 NA
BRANCH  12  13
ATOM     13  C   UNL d   1      60.938  46.855  50.618  0.00  0.00     0.134 A 
ATOM     14  C   UNL d   1      60.209  46.812  51.005  0.00  0.00     0.034 A 
ATOM     15  C   UNL d   1      59.828  47.513  51.232  0.00  0.00     0.022 A 
ATOM     16  C   UNL d   1      60.172  48.246  51.074  0.00  0.00     0.085 A 
ATOM     17  C   UNL d   1      60.902  48.294  50.686  0.00  0.00     0.022 A 
ATOM     18  C   UNL d   1      61.292  47.593  50.454  0.00  0.00     0.034 A 
BRANCH  16  19
ATOM     19  N   UNL d   1      59.776  48.940  51.308  0.00  0.00    -0.208 NA
ATOM     20  C   UNL d   1      58.971  49.029  51.114  0.00  0.00     0.279 C 
ATOM     21  O   UNL d   1      58.572  49.707  51.339  0.00  0.00    -0.265 OA
ATOM     22  C   UNL d   1      58.569  48.441  50.696  0.00  0.00     0.068 C 
ENDBRANCH  16  19
ENDBRANCH  12  13
ENDBRANCH   3  12
BRANCH   7  23
ATOM     23  C   UNL d   1      62.342  45.996  49.092  0.00  0.00     0.006 C 
ATOM     24  C   UNL d   1      63.037  46.461  49.139  0.00  0.00     0.000 C 
ENDBRANCH   7  23
BRANCH   5  25
ATOM     25  C   UNL d   1      62.255  42.816  50.986  0.00  0.00     0.004 A 
ATOM     26  C   UNL d   1      62.124  42.398  50.319  0.00  0.00     0.000 A 
ATOM     27  C   UNL d   1      62.507  41.694  50.190  0.00  0.00     0.000 A 
ATOM     28  C   UNL d   1      63.015  41.418  50.729  0.00  0.00     0.000 A 
ATOM     29  C   UNL d   1      63.152  41.836  51.406  0.00  0.00     0.000 A 
ATOM     30  C   UNL d   1      62.775  42.530  51.533  0.00  0.00     0.000 A 
ENDBRANCH   5  25
TORSDOF 5
ENDMDL
