MODEL 1
REMARK VINA RESULT:      18.4      0.000      0.000
REMARK  2 active torsions:
REMARK  status: ('A' for Active; 'I' for Inactive)
REMARK    1  A    between atoms: C_3  and  C_1 
REMARK       I    between atoms: N_6  and  C_3 
REMARK    2  A    between atoms: C_9  and  N_7 
ROOT
ATOM      1  C   UNL d   1      46.373 -18.461  44.214  0.00  0.00     0.270 C 
ATOM      2  N   UNL d   1      46.188 -17.668  44.226  0.00  0.00    -0.269 N 
ATOM      3  N   UNL d   1      45.807 -16.037  44.231  0.00  0.00    -0.286 N 
ATOM      4  O   UNL d   1      46.506 -18.866  44.942  0.00  0.00    -0.266 OA
ATOM      5  C   UNL d   1      46.056 -17.265  43.502  0.00  0.00     0.102 A 
ATOM      6  C   UNL d   1      46.126 -17.240  44.940  0.00  0.00     0.102 A 
ATOM      7  C   UNL d   1      45.866 -16.449  43.518  0.00  0.00     0.101 A 
ATOM      8  C   UNL d   1      45.940 -16.440  44.955  0.00  0.00     0.101 A 
ENDROOT
BRANCH   1   9
ATOM      9  C   UNL d   1      46.433 -18.882  43.488  0.00  0.00     0.120 A 
ATOM     10  C   UNL d   1      46.461 -19.728  43.497  0.00  0.00     0.305 A 
ATOM     11  O   UNL d   1      46.520 -20.135  42.788  0.00  0.00    -0.273 OA
ATOM     12  O   UNL d   1      46.429 -20.142  44.232  0.00  0.00    -0.259 OA
ATOM     13  C   UNL d   1      46.552 -19.740  42.069  0.00  0.00     0.103 A 
ATOM     14  C   UNL d   1      46.524 -18.894  42.060  0.00  0.00     0.023 A 
ATOM     15  C   UNL d   1      46.611 -20.147  41.353  0.00  0.00     0.025 A 
ATOM     16  C   UNL d   1      46.465 -18.488  42.771  0.00  0.00     0.012 A 
ATOM     17  C   UNL d   1      46.556 -18.500  41.336  0.00  0.00     0.002 A 
ATOM     18  C   UNL d   1      46.614 -18.905  40.633  0.00  0.00     0.000 A 
ATOM     19  C   UNL d   1      46.642 -19.752  40.642  0.00  0.00     0.002 A 
ENDBRANCH   1   9
BRANCH   3  20
ATOM     20  C   UNL d   1      45.621 -15.237  44.238  0.00  0.00     0.148 A 
ATOM     21  N   UNL d   1      46.129 -14.687  43.860  0.00  0.00    -0.227 NA
ATOM     22  C   UNL d   1      45.950 -13.874  43.860  0.00  0.00     0.101 A 
ATOM     23  C   UNL d   1      45.259 -13.619  44.242  0.00  0.00     0.021 A 
ATOM     24  C   UNL d   1      44.750 -14.169  44.619  0.00  0.00     0.005 A 
ATOM     25  C   UNL d   1      44.936 -14.969  44.613  0.00  0.00     0.037 A 
ENDBRANCH   3  20
TORSDOF 2
ENDMDL
