MODEL 1
REMARK VINA RESULT:      32.4      0.000      0.000
REMARK  4 active torsions:
REMARK  status: ('A' for Active; 'I' for Inactive)
REMARK    1  A    between atoms: C_2  and  S_1 
REMARK    2  A    between atoms: N_5  and  S_1 
REMARK    3  A    between atoms: C_11  and  C_4 
REMARK    4  A    between atoms: C_9  and  N_5 
ROOT
ATOM      1  S   UNL d   1      13.611  12.416  -2.471  0.00  0.00     0.287 S 
ATOM      2  O   UNL d   1      13.079  11.796  -2.320  0.00  0.00    -0.198 OA
ATOM      3  O   UNL d   1      14.152  13.042  -2.611  0.00  0.00    -0.198 OA
ENDROOT
BRANCH   1   4
ATOM      4  C   UNL d   1      13.377  12.458  -3.266  0.00  0.00     0.125 A 
ATOM      5  C   UNL d   1      13.360  13.194  -3.643  0.00  0.00     0.121 A 
ATOM      6  N   UNL d   1      13.535  13.957  -3.391  0.00  0.00    -0.190 NA
ATOM      7  C   UNL d   1      13.126  13.238  -4.441  0.00  0.00     0.110 A 
ATOM      8  S   UNL d   1      13.415  14.471  -4.014  0.00  0.00     0.117 SA
ATOM      9  N   UNL d   1      13.162  14.026  -4.662  0.00  0.00    -0.190 NA
ATOM     10  C   UNL d   1      12.915  12.559  -4.846  0.00  0.00     0.021 A 
ATOM     11  C   UNL d   1      12.935  11.823  -4.462  0.00  0.00     0.002 A 
ATOM     12  C   UNL d   1      13.167  11.780  -3.671  0.00  0.00     0.015 A 
ENDBRANCH   1   4
BRANCH   1  13
ATOM     13  N   UNL d   1      13.842  12.372  -1.677  0.00  0.00    -0.158 NA
BRANCH  13  14
ATOM     14  C   UNL d   1      14.312  12.357  -1.333  0.00  0.00     0.100 A 
ATOM     15  C   UNL d   1      14.387  12.805  -0.587  0.00  0.00     0.083 A 
ATOM     16  C   UNL d   1      15.103  12.687  -0.209  0.00  0.00     0.014 A 
ATOM     17  C   UNL d   1      15.716  12.189  -0.495  0.00  0.00     0.035 A 
ATOM     18  C   UNL d   1      15.606  11.784  -1.203  0.00  0.00     0.008 A 
ATOM     19 BR   UNL d   1      16.428  12.109  -0.061  0.00  0.00    -0.049 Br
ATOM     20  C   UNL d   1      14.871  11.880  -1.630  0.00  0.00     0.021 A 
BRANCH  15  21
ATOM     21  C   UNL d   1      13.795  13.292  -0.302  0.00  0.00     0.212 C 
ATOM     22  O   UNL d   1      13.982  14.069  -0.016  0.00  0.00    -0.644 OA
ATOM     23  O   UNL d   1      13.016  13.025  -0.291  0.00  0.00    -0.644 OA
ENDBRANCH  15  21
ENDBRANCH  13  14
ENDBRANCH   1  13
TORSDOF 4
ENDMDL
MODEL 2
REMARK VINA RESULT:      35.3      1.942      3.880
REMARK  4 active torsions:
REMARK  status: ('A' for Active; 'I' for Inactive)
REMARK    1  A    between atoms: C_2  and  S_1 
REMARK    2  A    between atoms: N_5  and  S_1 
REMARK    3  A    between atoms: C_11  and  C_4 
REMARK    4  A    between atoms: C_9  and  N_5 
ROOT
ATOM      1  S   UNL d   1      14.019  12.748  -2.234  0.00  0.00     0.287 S 
ATOM      2  O   UNL d   1      14.459  12.128  -2.570  0.00  0.00    -0.198 OA
ATOM      3  O   UNL d   1      13.570  13.376  -1.905  0.00  0.00    -0.198 OA
ENDROOT
BRANCH   1   4
ATOM      4  C   UNL d   1      14.368  12.627  -1.491  0.00  0.00     0.125 A 
ATOM      5  C   UNL d   1      14.770  13.251  -1.127  0.00  0.00     0.121 A 
ATOM      6  N   UNL d   1      14.915  14.029  -1.351  0.00  0.00    -0.190 NA
ATOM      7  C   UNL d   1      15.121  13.131  -0.382  0.00  0.00     0.110 A 
ATOM      8  S   UNL d   1      15.347  14.393  -0.761  0.00  0.00     0.117 SA
ATOM      9  N   UNL d   1      15.474  13.838  -0.163  0.00  0.00    -0.190 NA
ATOM     10  C   UNL d   1      15.068  12.402  -0.014  0.00  0.00     0.021 A 
ATOM     11  C   UNL d   1      14.663  11.779  -0.385  0.00  0.00     0.002 A 
ATOM     12  C   UNL d   1      14.315  11.898  -1.123  0.00  0.00     0.015 A 
ENDBRANCH   1   4
BRANCH   1  13
ATOM     13  N   UNL d   1      13.673  12.866  -2.976  0.00  0.00    -0.158 NA
BRANCH  13  14
ATOM     14  C   UNL d   1      13.603  13.266  -3.395  0.00  0.00     0.100 A 
ATOM     15  C   UNL d   1      13.405  13.075  -4.224  0.00  0.00     0.083 A 
ATOM     16  C   UNL d   1      13.339  13.736  -4.701  0.00  0.00     0.014 A 
ATOM     17  C   UNL d   1      13.447  14.527  -4.438  0.00  0.00     0.035 A 
ATOM     18  C   UNL d   1      13.633  14.664  -3.648  0.00  0.00     0.008 A 
ATOM     19 BR   UNL d   1      13.365  15.163  -4.977  0.00  0.00    -0.049 Br
ATOM     20  C   UNL d   1      13.712  13.999  -3.115  0.00  0.00     0.021 A 
BRANCH  15  21
ATOM     21  C   UNL d   1      13.298  12.309  -4.490  0.00  0.00     0.212 C 
ATOM     22  O   UNL d   1      12.781  11.781  -4.072  0.00  0.00    -0.644 OA
ATOM     23  O   UNL d   1      13.695  12.051  -5.163  0.00  0.00    -0.644 OA
ENDBRANCH  15  21
ENDBRANCH  13  14
ENDBRANCH   1  13
TORSDOF 4
ENDMDL
