MODEL 1
REMARK VINA RESULT:      46.4      0.000      0.000
REMARK  3 active torsions:
REMARK  status: ('A' for Active; 'I' for Inactive)
REMARK    1  A    between atoms: C_9  and  S_1 
REMARK       I    between atoms: C_4  and  N_8 
REMARK    2  A    between atoms: C_5  and  C_4 
REMARK    3  A    between atoms: N_8  and  C_18 
ROOT
ATOM      1  C   UNL d   1      13.132  12.410  -3.979  0.00  0.00     0.302 C 
ATOM      2  N   UNL d   1      13.139  13.158  -4.317  0.00  0.00    -0.206 NA
ATOM      3  O   UNL d   1      12.791  11.779  -4.382  0.00  0.00    -0.263 OA
ENDROOT
BRANCH   1   4
ATOM      4  C   UNL d   1      13.464  12.284  -3.239  0.00  0.00     0.161 A 
ATOM      5  O   UNL d   1      14.294  12.286  -3.156  0.00  0.00    -0.268 OA
ATOM      6  C   UNL d   1      14.633  12.159  -2.407  0.00  0.00     0.300 A 
ATOM      7  O   UNL d   1      15.451  12.160  -2.326  0.00  0.00    -0.259 OA
ATOM      8  C   UNL d   1      14.153  12.032  -1.745  0.00  0.00     0.064 A 
ATOM      9  C   UNL d   1      13.324  12.032  -1.835  0.00  0.00     0.007 A 
ATOM     10  C   UNL d   1      14.490  11.907  -1.008  0.00  0.00     0.005 A 
ATOM     11  C   UNL d   1      12.980  12.157  -2.576  0.00  0.00     0.030 A 
ATOM     12  C   UNL d   1      12.844  11.905  -1.172  0.00  0.00     0.000 A 
ATOM     13  C   UNL d   1      13.193  11.780  -0.435  0.00  0.00     0.000 A 
ATOM     14  C   UNL d   1      14.011  11.782  -0.353  0.00  0.00     0.000 A 
ENDBRANCH   1   4
BRANCH   2  15
ATOM     15  C   UNL d   1      13.482  13.789  -3.910  0.00  0.00     0.085 A 
ATOM     16  C   UNL d   1      13.008  14.298  -3.478  0.00  0.00     0.020 A 
ATOM     17  C   UNL d   1      13.346  14.927  -3.071  0.00  0.00     0.015 A 
ATOM     18  C   UNL d   1      14.166  15.043  -3.101  0.00  0.00     0.107 A 
ATOM     19  C   UNL d   1      14.636  14.526  -3.539  0.00  0.00     0.015 A 
ATOM     20  C   UNL d   1      14.301  13.903  -3.941  0.00  0.00     0.020 A 
BRANCH  18  21
ATOM     21  S   UNL d   1      14.504  15.673  -2.694  0.00  0.00     0.302 S 
ATOM     22  O   UNL d   1      14.411  15.345  -1.956  0.00  0.00    -0.197 OA
ATOM     23  O   UNL d   1      14.595  15.999  -3.450  0.00  0.00    -0.197 OA
ATOM     24  N   UNL d   1      14.853  16.338  -2.368  0.00  0.00    -0.043 N 
ENDBRANCH  18  21
ENDBRANCH   2  15
TORSDOF 3
ENDMDL
MODEL 2
REMARK VINA RESULT:      48.4      1.703      3.521
REMARK  3 active torsions:
REMARK  status: ('A' for Active; 'I' for Inactive)
REMARK    1  A    between atoms: C_9  and  S_1 
REMARK       I    between atoms: C_4  and  N_8 
REMARK    2  A    between atoms: C_5  and  C_4 
REMARK    3  A    between atoms: N_8  and  C_18 
ROOT
ATOM      1  C   UNL d   1      13.114  12.468  -4.906  0.00  0.00     0.302 C 
ATOM      2  N   UNL d   1      13.162  11.786  -4.452  0.00  0.00    -0.206 NA
ATOM      3  O   UNL d   1      12.850  12.429  -5.684  0.00  0.00    -0.263 OA
ENDROOT
BRANCH   1   4
ATOM      4  C   UNL d   1      13.328  13.195  -4.589  0.00  0.00     0.161 A 
ATOM      5  O   UNL d   1      12.938  13.477  -3.908  0.00  0.00    -0.268 OA
ATOM      6  C   UNL d   1      13.154  14.213  -3.585  0.00  0.00     0.300 A 
ATOM      7  O   UNL d   1      12.769  14.490  -2.914  0.00  0.00    -0.259 OA
ATOM      8  C   UNL d   1      13.752  14.666  -3.934  0.00  0.00     0.064 A 
ATOM      9  C   UNL d   1      14.137  14.378  -4.615  0.00  0.00     0.007 A 
ATOM     10  C   UNL d   1      13.962  15.391  -3.614  0.00  0.00     0.005 A 
ATOM     11  C   UNL d   1      13.929  13.648  -4.942  0.00  0.00     0.030 A 
ATOM     12  C   UNL d   1      14.736  14.832  -4.965  0.00  0.00     0.000 A 
ATOM     13  C   UNL d   1      14.940  15.560  -4.634  0.00  0.00     0.000 A 
ATOM     14  C   UNL d   1      14.556  15.837  -3.963  0.00  0.00     0.000 A 
ENDBRANCH   1   4
BRANCH   2  15
ATOM     15  C   UNL d   1      13.427  11.830  -3.671  0.00  0.00     0.085 A 
ATOM     16  C   UNL d   1      14.227  11.925  -3.520  0.00  0.00     0.020 A 
ATOM     17  C   UNL d   1      14.494  11.969  -2.745  0.00  0.00     0.015 A 
ATOM     18  C   UNL d   1      13.954  11.918  -2.119  0.00  0.00     0.107 A 
ATOM     19  C   UNL d   1      13.151  11.823  -2.281  0.00  0.00     0.015 A 
ATOM     20  C   UNL d   1      12.885  11.779  -3.049  0.00  0.00     0.020 A 
BRANCH  18  21
ATOM     21  S   UNL d   1      14.222  11.962  -1.343  0.00  0.00     0.302 S 
ATOM     22  O   UNL d   1      13.490  11.855  -1.004  0.00  0.00    -0.197 OA
ATOM     23  O   UNL d   1      14.962  12.071  -1.697  0.00  0.00    -0.197 OA
ATOM     24  N   UNL d   1      14.569  12.018  -0.603  0.00  0.00    -0.043 N 
ENDBRANCH  18  21
ENDBRANCH   2  15
TORSDOF 3
ENDMDL
