MODEL 1
REMARK VINA RESULT:      -8.8      0.000      0.000
REMARK  5 active torsions:
REMARK  status: ('A' for Active; 'I' for Inactive)
REMARK    1  A    between atoms: C_2  and  C_1 
REMARK    2  A    between atoms: N_5  and  C_2 
REMARK    3  A    between atoms: C_9  and  C_4 
REMARK    4  A    between atoms: C_21  and  N_10 
REMARK    5  A    between atoms: C_18  and  C_21 
ROOT
ATOM      1  N   UNL d   1      48.427  34.556  50.679  0.00  0.00    -0.191 NA
ATOM      2  C   UNL d   1      49.119  34.359  51.071  0.00  0.00     0.103 C 
ATOM      3  C   UNL d   1      49.817  34.165  51.474  0.00  0.00     0.097 C 
ENDROOT
BRANCH   3   4
ATOM      4  C   UNL d   1      49.977  34.510  52.199  0.00  0.00     0.091 C 
BRANCH   4   5
ATOM      5  N   UNL d   1      50.678  34.322  52.595  0.00  0.00    -0.299 N 
ATOM      6  C   UNL d   1      50.653  33.937  53.327  0.00  0.00     0.100 A 
ATOM      7  C   UNL d   1      51.344  33.748  53.725  0.00  0.00     0.100 A 
ATOM      8  N   UNL d   1      52.073  33.945  53.389  0.00  0.00    -0.291 N 
ATOM      9  C   UNL d   1      52.111  34.328  52.662  0.00  0.00     0.100 A 
ATOM     10  C   UNL d   1      51.410  34.518  52.262  0.00  0.00     0.100 A 
BRANCH   8  11
ATOM     11  C   UNL d   1      52.769  33.755  53.789  0.00  0.00     0.143 C 
ATOM     12  S   UNL d   1      53.094  34.282  54.334  0.00  0.00    -0.057 SA
BRANCH  11  13
ATOM     13  C   UNL d   1      53.146  33.027  53.642  0.00  0.00     0.126 A 
ATOM     14  O   UNL d   1      52.783  32.282  53.673  0.00  0.00    -0.305 OA
ATOM     15  C   UNL d   1      53.355  31.718  53.491  0.00  0.00     0.100 A 
ATOM     16  C   UNL d   1      54.073  32.113  53.347  0.00  0.00     0.027 A 
ATOM     17  C   UNL d   1      53.939  32.920  53.441  0.00  0.00     0.029 A 
BRANCH  15  18
ATOM     18  C   UNL d   1      53.243  30.904  53.456  0.00  0.00     0.024 A 
ATOM     19  C   UNL d   1      53.370  30.448  54.131  0.00  0.00     0.013 A 
ATOM     20  C   UNL d   1      53.261  29.628  54.109  0.00  0.00     0.058 A 
ATOM     21 CL   UNL d   1      53.387  29.168  54.786  0.00  0.00    -0.082 Cl
ATOM     22  C   UNL d   1      53.021  29.266  53.397  0.00  0.00     0.011 A 
ATOM     23  C   UNL d   1      52.897  29.730  52.724  0.00  0.00     0.001 A 
ATOM     24  C   UNL d   1      53.007  30.546  52.753  0.00  0.00     0.002 A 
ENDBRANCH  15  18
ENDBRANCH  11  13
ENDBRANCH   8  11
ENDBRANCH   4   5
ENDBRANCH   3   4
TORSDOF 5
ENDMDL
MODEL 2
REMARK VINA RESULT:      -7.0      2.337      4.672
REMARK  5 active torsions:
REMARK  status: ('A' for Active; 'I' for Inactive)
REMARK    1  A    between atoms: C_2  and  C_1 
REMARK    2  A    between atoms: N_5  and  C_2 
REMARK    3  A    between atoms: C_9  and  C_4 
REMARK    4  A    between atoms: C_21  and  N_10 
REMARK    5  A    between atoms: C_18  and  C_21 
ROOT
ATOM      1  N   UNL d   1      53.335  28.424  54.473  0.00  0.00    -0.191 NA
ATOM      2  C   UNL d   1      53.307  29.163  54.118  0.00  0.00     0.103 C 
ATOM      3  C   UNL d   1      53.286  29.910  53.760  0.00  0.00     0.097 C 
ENDROOT
BRANCH   3   4
ATOM      4  C   UNL d   1      53.951  30.388  53.776  0.00  0.00     0.091 C 
BRANCH   4   5
ATOM      5  N   UNL d   1      53.867  31.201  53.898  0.00  0.00    -0.299 N 
ATOM      6  C   UNL d   1      53.433  31.484  54.543  0.00  0.00     0.100 A 
ATOM      7  C   UNL d   1      53.347  32.290  54.668  0.00  0.00     0.100 A 
ATOM      8  N   UNL d   1      53.699  32.822  54.143  0.00  0.00    -0.291 N 
ATOM      9  C   UNL d   1      54.132  32.554  53.498  0.00  0.00     0.100 A 
ATOM     10  C   UNL d   1      54.218  31.738  53.374  0.00  0.00     0.100 A 
BRANCH   8  11
ATOM     11  C   UNL d   1      53.612  33.634  54.269  0.00  0.00     0.143 C 
ATOM     12  S   UNL d   1      54.046  34.013  54.858  0.00  0.00    -0.057 SA
BRANCH  11  13
ATOM     13  C   UNL d   1      53.082  34.071  53.798  0.00  0.00     0.126 A 
ATOM     14  O   UNL d   1      52.325  33.824  53.567  0.00  0.00    -0.305 OA
ATOM     15  C   UNL d   1      51.995  34.424  53.109  0.00  0.00     0.100 A 
ATOM     16  C   UNL d   1      52.548  35.044  53.056  0.00  0.00     0.027 A 
ATOM     17  C   UNL d   1      53.216  34.822  53.483  0.00  0.00     0.029 A 
BRANCH  15  18
ATOM     18  C   UNL d   1      51.251  34.418  52.761  0.00  0.00     0.024 A 
ATOM     19  C   UNL d   1      50.611  34.745  53.166  0.00  0.00     0.013 A 
ATOM     20  C   UNL d   1      49.856  34.745  52.828  0.00  0.00     0.058 A 
ATOM     21 CL   UNL d   1      49.212  35.074  53.233  0.00  0.00    -0.082 Cl
ATOM     22  C   UNL d   1      49.747  34.412  52.072  0.00  0.00     0.011 A 
ATOM     23  C   UNL d   1      50.393  34.085  51.671  0.00  0.00     0.001 A 
ATOM     24  C   UNL d   1      51.142  34.088  52.015  0.00  0.00     0.002 A 
ENDBRANCH  15  18
ENDBRANCH  11  13
ENDBRANCH   8  11
ENDBRANCH   4   5
ENDBRANCH   3   4
TORSDOF 5
ENDMDL
