MODEL 1
REMARK VINA RESULT:      22.6      0.000      0.000
REMARK  10 active torsions:
REMARK  status: ('A' for Active; 'I' for Inactive)
REMARK    1  A    between atoms: C_3  and  C_1 
REMARK    2  A    between atoms: C_4  and  C_1 
REMARK    3  A    between atoms: N_2  and  C_8 
REMARK    4  A    between atoms: O_19  and  C_3 
REMARK    5  A    between atoms: C_14  and  C_4 
REMARK    6  A    between atoms: C_20  and  N_7 
REMARK    7  A    between atoms: C_9  and  C_20 
REMARK    8  A    between atoms: C_13  and  C_9 
REMARK    9  A    between atoms: C_23  and  C_13 
REMARK   10  A    between atoms: C_24  and  O_19 
ROOT
ATOM      1  C   UNL d   1      46.194 -18.721  43.784  0.00  0.00     0.132 C 
ATOM      2  C   UNL d   1      46.286 -18.232  43.124  0.00  0.00     0.106 C 
ATOM      3  N   UNL d   1      46.378 -17.746  42.461  0.00  0.00    -0.191 NA
ENDROOT
BRANCH   1   4
ATOM      4  C   UNL d   1      46.263 -19.531  43.719  0.00  0.00     0.310 C 
ATOM      5  O   UNL d   1      46.011 -20.022  44.310  0.00  0.00    -0.258 OA
BRANCH   4   6
ATOM      6  O   UNL d   1      46.594 -19.852  43.041  0.00  0.00    -0.271 OA
BRANCH   6   7
ATOM      7  C   UNL d   1      46.129 -19.948  42.364  0.00  0.00     0.126 C 
ATOM      8  C   UNL d   1      46.500 -20.126  41.642  0.00  0.00     0.029 C 
ENDBRANCH   6   7
ENDBRANCH   4   6
ENDBRANCH   1   4
BRANCH   1   9
ATOM      9  C   UNL d   1      46.032 -18.390  44.516  0.00  0.00     0.016 C 
BRANCH   9  10
ATOM     10  C   UNL d   1      45.965 -17.550  44.581  0.00  0.00     0.001 A 
ATOM     11  C   UNL d   1      45.237 -17.184  44.797  0.00  0.00     0.002 A 
ATOM     12  C   UNL d   1      45.195 -16.374  44.853  0.00  0.00     0.018 A 
ATOM     13  C   UNL d   1      45.842 -15.899  44.705  0.00  0.00     0.064 A 
ATOM     14  C   UNL d   1      46.549 -16.245  44.495  0.00  0.00     0.018 A 
ATOM     15  C   UNL d   1      46.611 -17.070  44.433  0.00  0.00     0.002 A 
BRANCH  13  16
ATOM     16  N   UNL d   1      45.779 -15.072  44.767  0.00  0.00    -0.301 N 
ATOM     17  C   UNL d   1      45.046 -14.710  44.792  0.00  0.00     0.100 A 
ATOM     18  C   UNL d   1      44.984 -13.885  44.854  0.00  0.00     0.100 A 
ATOM     19  N   UNL d   1      45.654 -13.421  44.892  0.00  0.00    -0.300 N 
ATOM     20  C   UNL d   1      46.420 -13.786  44.867  0.00  0.00     0.100 A 
ATOM     21  C   UNL d   1      46.465 -14.608  44.805  0.00  0.00     0.100 A 
BRANCH  19  22
ATOM     22  C   UNL d   1      45.592 -12.595  44.954  0.00  0.00     0.080 C 
BRANCH  22  23
ATOM     23  C   UNL d   1      45.292 -12.146  44.316  0.00  0.00     0.019 C 
BRANCH  23  24
ATOM     24  C   UNL d   1      44.745 -12.300  43.804  0.00  0.00     0.002 C 
BRANCH  24  25
ATOM     25  C   UNL d   1      44.929 -12.306  43.010  0.00  0.00     0.000 A 
ATOM     26  C   UNL d   1      45.674 -12.085  42.777  0.00  0.00     0.000 A 
ATOM     27  C   UNL d   1      45.875 -12.086  41.977  0.00  0.00     0.000 A 
ATOM     28  C   UNL d   1      45.325 -12.309  41.415  0.00  0.00     0.000 A 
ATOM     29  C   UNL d   1      44.564 -12.534  41.662  0.00  0.00     0.000 A 
ATOM     30  C   UNL d   1      44.370 -12.531  42.464  0.00  0.00     0.000 A 
ENDBRANCH  24  25
ENDBRANCH  23  24
ENDBRANCH  22  23
ENDBRANCH  19  22
ENDBRANCH  13  16
ENDBRANCH   9  10
ENDBRANCH   1   9
TORSDOF 10
ENDMDL
