MODEL 1
REMARK VINA RESULT:      -7.1      0.000      0.000
REMARK  6 active torsions:
REMARK  status: ('A' for Active; 'I' for Inactive)
REMARK    1  A    between atoms: N_2  and  S_1 
REMARK    2  A    between atoms: C_6  and  S_1 
REMARK    3  A    between atoms: C_4  and  N_2 
REMARK    4  A    between atoms: C_5  and  C_3 
REMARK    5  A    between atoms: O_12  and  C_5 
REMARK    6  A    between atoms: C_18  and  O_12 
ROOT
ATOM      1  C   UNL d   1     -50.150  13.194  23.153  0.00  0.00     0.082 A 
ATOM      2  C   UNL d   1     -49.339  13.113  23.074  0.00  0.00     0.099 A 
ATOM      3  C   UNL d   1     -50.596  12.573  23.465  0.00  0.00     0.007 A 
ATOM      4  C   UNL d   1     -48.974  12.412  23.308  0.00  0.00     0.020 A 
ATOM      5  C   UNL d   1     -50.228  11.876  23.696  0.00  0.00     0.000 A 
ATOM      6  C   UNL d   1     -49.417  11.795  23.618  0.00  0.00     0.002 A 
ENDROOT
BRANCH   2   7
ATOM      7  N   UNL d   1     -48.877  13.739  22.759  0.00  0.00    -0.158 NA
BRANCH   7   8
ATOM      8  S   UNL d   1     -48.070  13.624  22.649  0.00  0.00     0.285 S 
ATOM      9  O   UNL d   1     -48.200  13.453  21.829  0.00  0.00    -0.198 OA
ATOM     10  O   UNL d   1     -47.918  13.787  23.440  0.00  0.00    -0.198 OA
BRANCH   8  11
ATOM     11  C   UNL d   1     -47.253  13.503  22.517  0.00  0.00     0.105 A 
ATOM     12  C   UNL d   1     -46.700  13.945  22.951  0.00  0.00     0.013 A 
ATOM     13  C   UNL d   1     -45.894  13.825  22.820  0.00  0.00     0.001 A 
ATOM     14  C   UNL d   1     -45.661  13.267  22.259  0.00  0.00     0.000 A 
ATOM     15  C   UNL d   1     -46.203  12.826  21.826  0.00  0.00     0.001 A 
ATOM     16  C   UNL d   1     -44.858  13.132  22.115  0.00  0.00     0.000 C 
ATOM     17  C   UNL d   1     -47.009  12.945  21.957  0.00  0.00     0.013 A 
ENDBRANCH   8  11
ENDBRANCH   7   8
ENDBRANCH   2   7
BRANCH   1  18
ATOM     18  C   UNL d   1     -50.530  13.920  22.912  0.00  0.00     0.302 C 
ATOM     19  O   UNL d   1     -50.803  14.000  22.148  0.00  0.00    -0.259 OA
BRANCH  18  20
ATOM     20  O   UNL d   1     -50.626  14.547  23.447  0.00  0.00    -0.271 OA
BRANCH  20  21
ATOM     21  C   UNL d   1     -51.027  15.238  23.203  0.00  0.00     0.126 C 
ATOM     22  C   UNL d   1     -51.063  15.885  23.697  0.00  0.00     0.029 C 
ENDBRANCH  20  21
ENDBRANCH  18  20
ENDBRANCH   1  18
TORSDOF 6
ENDMDL
MODEL 2
REMARK VINA RESULT:      -7.1      1.415      1.690
REMARK  6 active torsions:
REMARK  status: ('A' for Active; 'I' for Inactive)
REMARK    1  A    between atoms: N_2  and  S_1 
REMARK    2  A    between atoms: C_6  and  S_1 
REMARK    3  A    between atoms: C_4  and  N_2 
REMARK    4  A    between atoms: C_5  and  C_3 
REMARK    5  A    between atoms: O_12  and  C_5 
REMARK    6  A    between atoms: C_18  and  O_12 
ROOT
ATOM      1  C   UNL d   1     -50.274  13.362  22.456  0.00  0.00     0.082 A 
ATOM      2  C   UNL d   1     -49.543  12.999  22.520  0.00  0.00     0.099 A 
ATOM      3  C   UNL d   1     -50.695  13.316  21.747  0.00  0.00     0.007 A 
ATOM      4  C   UNL d   1     -49.233  12.590  21.875  0.00  0.00     0.020 A 
ATOM      5  C   UNL d   1     -50.382  12.907  21.106  0.00  0.00     0.000 A 
ATOM      6  C   UNL d   1     -49.651  12.544  21.170  0.00  0.00     0.002 A 
ENDROOT
BRANCH   2   7
ATOM      7  N   UNL d   1     -49.108  13.040  23.236  0.00  0.00    -0.158 NA
BRANCH   7   8
ATOM      8  S   UNL d   1     -48.373  12.673  23.279  0.00  0.00     0.285 S 
ATOM      9  O   UNL d   1     -47.990  13.429  23.304  0.00  0.00    -0.198 OA
ATOM     10  O   UNL d   1     -48.720  11.928  23.256  0.00  0.00    -0.198 OA
BRANCH   8  11
ATOM     11  C   UNL d   1     -47.616  12.319  23.323  0.00  0.00     0.105 A 
ATOM     12  C   UNL d   1     -47.540  11.562  23.654  0.00  0.00     0.013 A 
ATOM     13  C   UNL d   1     -46.792  11.213  23.698  0.00  0.00     0.001 A 
ATOM     14  C   UNL d   1     -46.142  11.629  23.409  0.00  0.00     0.000 A 
ATOM     15  C   UNL d   1     -46.211  12.379  23.079  0.00  0.00     0.001 A 
ATOM     16  C   UNL d   1     -45.386  11.297  23.443  0.00  0.00     0.000 C 
ATOM     17  C   UNL d   1     -46.958  12.729  23.036  0.00  0.00     0.013 A 
ENDBRANCH   8  11
ENDBRANCH   7   8
ENDBRANCH   2   7
BRANCH   1  18
ATOM     18  C   UNL d   1     -50.598  13.786  23.123  0.00  0.00     0.302 C 
ATOM     19  O   UNL d   1     -51.017  13.384  23.695  0.00  0.00    -0.259 OA
BRANCH  18  20
ATOM     20  O   UNL d   1     -50.491  14.606  23.197  0.00  0.00    -0.271 OA
BRANCH  20  21
ATOM     21  C   UNL d   1     -50.997  15.043  23.698  0.00  0.00     0.126 C 
ATOM     22  C   UNL d   1     -50.971  15.858  23.695  0.00  0.00     0.029 C 
ENDBRANCH  20  21
ENDBRANCH  18  20
ENDBRANCH   1  18
TORSDOF 6
ENDMDL
MODEL 3
REMARK VINA RESULT:      -6.0      9.371     10.039
REMARK  6 active torsions:
REMARK  status: ('A' for Active; 'I' for Inactive)
REMARK    1  A    between atoms: N_2  and  S_1 
REMARK    2  A    between atoms: C_6  and  S_1 
REMARK    3  A    between atoms: C_4  and  N_2 
REMARK    4  A    between atoms: C_5  and  C_3 
REMARK    5  A    between atoms: O_12  and  C_5 
REMARK    6  A    between atoms: C_18  and  O_12 
ROOT
ATOM      1  C   UNL d   1     -39.815  14.130  18.131  0.00  0.00     0.082 A 
ATOM      2  C   UNL d   1     -39.561  14.282  18.894  0.00  0.00     0.099 A 
ATOM      3  C   UNL d   1     -39.341  13.685  17.622  0.00  0.00     0.007 A 
ATOM      4  C   UNL d   1     -38.834  13.990  19.149  0.00  0.00     0.020 A 
ATOM      5  C   UNL d   1     -38.617  13.395  17.880  0.00  0.00     0.000 A 
ATOM      6  C   UNL d   1     -38.363  13.547  18.644  0.00  0.00     0.002 A 
ENDROOT
BRANCH   2   7
ATOM      7  N   UNL d   1     -40.036  14.734  19.419  0.00  0.00    -0.158 NA
BRANCH   7   8
ATOM      8  S   UNL d   1     -39.756  14.892  20.176  0.00  0.00     0.285 S 
ATOM      9  O   UNL d   1     -40.173  14.218  20.477  0.00  0.00    -0.198 OA
ATOM     10  O   UNL d   1     -39.343  15.550  19.908  0.00  0.00    -0.198 OA
BRANCH   8  11
ATOM     11  C   UNL d   1     -39.482  15.035  20.953  0.00  0.00     0.105 A 
ATOM     12  C   UNL d   1     -39.521  14.428  21.517  0.00  0.00     0.013 A 
ATOM     13  C   UNL d   1     -39.251  14.570  22.285  0.00  0.00     0.001 A 
ATOM     14  C   UNL d   1     -38.947  15.315  22.467  0.00  0.00     0.000 A 
ATOM     15  C   UNL d   1     -38.905  15.921  21.913  0.00  0.00     0.001 A 
ATOM     16  C   UNL d   1     -38.671  15.477  23.229  0.00  0.00     0.000 C 
ATOM     17  C   UNL d   1     -39.176  15.779  21.146  0.00  0.00     0.013 A 
ENDBRANCH   8  11
ENDBRANCH   7   8
ENDBRANCH   2   7
BRANCH   1  18
ATOM     18  C   UNL d   1     -40.568  14.433  17.864  0.00  0.00     0.302 C 
ATOM     19  O   UNL d   1     -41.255  14.045  18.068  0.00  0.00    -0.259 OA
BRANCH  18  20
ATOM     20  O   UNL d   1     -40.609  15.119  17.399  0.00  0.00    -0.271 OA
BRANCH  20  21
ATOM     21  C   UNL d   1     -41.315  15.294  16.986  0.00  0.00     0.126 C 
ATOM     22  C   UNL d   1     -41.338  15.921  16.465  0.00  0.00     0.029 C 
ENDBRANCH  20  21
ENDBRANCH  18  20
ENDBRANCH   1  18
TORSDOF 6
ENDMDL
MODEL 4
REMARK VINA RESULT:      -6.0      1.593      1.812
REMARK  6 active torsions:
REMARK  status: ('A' for Active; 'I' for Inactive)
REMARK    1  A    between atoms: N_2  and  S_1 
REMARK    2  A    between atoms: C_6  and  S_1 
REMARK    3  A    between atoms: C_4  and  N_2 
REMARK    4  A    between atoms: C_5  and  C_3 
REMARK    5  A    between atoms: O_12  and  C_5 
REMARK    6  A    between atoms: C_18  and  O_12 
ROOT
ATOM      1  C   UNL d   1     -49.373  13.114  22.378  0.00  0.00     0.082 A 
ATOM      2  C   UNL d   1     -48.602  12.836  22.388  0.00  0.00     0.099 A 
ATOM      3  C   UNL d   1     -49.841  13.005  21.707  0.00  0.00     0.007 A 
ATOM      4  C   UNL d   1     -48.300  12.449  21.726  0.00  0.00     0.020 A 
ATOM      5  C   UNL d   1     -49.535  12.618  21.049  0.00  0.00     0.000 A 
ATOM      6  C   UNL d   1     -48.765  12.340  21.058  0.00  0.00     0.002 A 
ENDROOT
BRANCH   2   7
ATOM      7  N   UNL d   1     -48.119  12.942  23.066  0.00  0.00    -0.158 NA
BRANCH   7   8
ATOM      8  S   UNL d   1     -47.403  12.541  23.113  0.00  0.00     0.285 S 
ATOM      9  O   UNL d   1     -47.036  13.125  22.621  0.00  0.00    -0.198 OA
ATOM     10  O   UNL d   1     -47.736  11.961  23.591  0.00  0.00    -0.198 OA
BRANCH   8  11
ATOM     11  C   UNL d   1     -46.666  12.147  23.148  0.00  0.00     0.105 A 
ATOM     12  C   UNL d   1     -46.029  12.434  22.700  0.00  0.00     0.013 A 
ATOM     13  C   UNL d   1     -45.301  12.045  22.735  0.00  0.00     0.001 A 
ATOM     14  C   UNL d   1     -45.229  11.380  23.218  0.00  0.00     0.000 A 
ATOM     15  C   UNL d   1     -45.855  11.091  23.665  0.00  0.00     0.001 A 
ATOM     16  C   UNL d   1     -44.509  10.978  23.266  0.00  0.00     0.000 C 
ATOM     17  C   UNL d   1     -46.583  11.480  23.630  0.00  0.00     0.013 A 
ENDBRANCH   8  11
ENDBRANCH   7   8
ENDBRANCH   2   7
BRANCH   1  18
ATOM     18  C   UNL d   1     -49.688  13.515  23.063  0.00  0.00     0.302 C 
ATOM     19  O   UNL d   1     -50.032  13.084  23.663  0.00  0.00    -0.259 OA
BRANCH  18  20
ATOM     20  O   UNL d   1     -49.649  14.342  23.125  0.00  0.00    -0.271 OA
BRANCH  20  21
ATOM     21  C   UNL d   1     -50.126  14.735  23.688  0.00  0.00     0.126 C 
ATOM     22  C   UNL d   1     -50.203  15.546  23.663  0.00  0.00     0.029 C 
ENDBRANCH  20  21
ENDBRANCH  18  20
ENDBRANCH   1  18
TORSDOF 6
ENDMDL
MODEL 5
REMARK VINA RESULT:      -5.8      0.881      1.835
REMARK  6 active torsions:
REMARK  status: ('A' for Active; 'I' for Inactive)
REMARK    1  A    between atoms: N_2  and  S_1 
REMARK    2  A    between atoms: C_6  and  S_1 
REMARK    3  A    between atoms: C_4  and  N_2 
REMARK    4  A    between atoms: C_5  and  C_3 
REMARK    5  A    between atoms: O_12  and  C_5 
REMARK    6  A    between atoms: C_18  and  O_12 
ROOT
ATOM      1  C   UNL d   1     -49.896  14.124  22.828  0.00  0.00     0.082 A 
ATOM      2  C   UNL d   1     -49.079  14.092  22.791  0.00  0.00     0.099 A 
ATOM      3  C   UNL d   1     -50.275  14.851  22.930  0.00  0.00     0.007 A 
ATOM      4  C   UNL d   1     -48.640  14.787  22.856  0.00  0.00     0.020 A 
ATOM      5  C   UNL d   1     -49.834  15.541  22.994  0.00  0.00     0.000 A 
ATOM      6  C   UNL d   1     -49.016  15.509  22.957  0.00  0.00     0.002 A 
ENDROOT
BRANCH   2   7
ATOM      7  N   UNL d   1     -48.685  13.359  22.688  0.00  0.00    -0.158 NA
BRANCH   7   8
ATOM      8  S   UNL d   1     -47.870  13.354  22.581  0.00  0.00     0.285 S 
ATOM      9  O   UNL d   1     -47.972  13.479  21.749  0.00  0.00    -0.198 OA
ATOM     10  O   UNL d   1     -47.744  13.233  23.384  0.00  0.00    -0.198 OA
BRANCH   8  11
ATOM     11  C   UNL d   1     -47.043  13.353  22.451  0.00  0.00     0.105 A 
ATOM     12  C   UNL d   1     -46.566  13.895  22.860  0.00  0.00     0.013 A 
ATOM     13  C   UNL d   1     -45.750  13.894  22.732  0.00  0.00     0.001 A 
ATOM     14  C   UNL d   1     -45.433  13.351  22.198  0.00  0.00     0.000 A 
ATOM     15  C   UNL d   1     -45.899  12.811  21.790  0.00  0.00     0.001 A 
ATOM     16  C   UNL d   1     -44.619  13.334  22.057  0.00  0.00     0.000 C 
ATOM     17  C   UNL d   1     -46.715  12.812  21.918  0.00  0.00     0.013 A 
ENDBRANCH   8  11
ENDBRANCH   7   8
ENDBRANCH   2   7
BRANCH   1  18
ATOM     18  C   UNL d   1     -50.353  13.405  22.761  0.00  0.00     0.302 C 
ATOM     19  O   UNL d   1     -50.689  13.204  22.046  0.00  0.00    -0.259 OA
BRANCH  18  20
ATOM     20  O   UNL d   1     -50.460  12.908  23.417  0.00  0.00    -0.271 OA
BRANCH  20  21
ATOM     21  C   UNL d   1     -51.064  12.331  23.401  0.00  0.00     0.126 C 
ATOM     22  C   UNL d   1     -50.918  11.579  23.680  0.00  0.00     0.029 C 
ENDBRANCH  20  21
ENDBRANCH  18  20
ENDBRANCH   1  18
TORSDOF 6
ENDMDL
MODEL 6
REMARK VINA RESULT:      -5.7      9.473     10.597
REMARK  6 active torsions:
REMARK  status: ('A' for Active; 'I' for Inactive)
REMARK    1  A    between atoms: N_2  and  S_1 
REMARK    2  A    between atoms: C_6  and  S_1 
REMARK    3  A    between atoms: C_4  and  N_2 
REMARK    4  A    between atoms: C_5  and  C_3 
REMARK    5  A    between atoms: O_12  and  C_5 
REMARK    6  A    between atoms: C_18  and  O_12 
ROOT
ATOM      1  C   UNL d   1     -39.965  14.660  17.463  0.00  0.00     0.082 A 
ATOM      2  C   UNL d   1     -39.935  14.861  18.256  0.00  0.00     0.099 A 
ATOM      3  C   UNL d   1     -40.484  15.057  16.957  0.00  0.00     0.007 A 
ATOM      4  C   UNL d   1     -40.424  15.459  18.544  0.00  0.00     0.020 A 
ATOM      5  C   UNL d   1     -40.969  15.653  17.249  0.00  0.00     0.000 A 
ATOM      6  C   UNL d   1     -40.940  15.853  18.043  0.00  0.00     0.002 A 
ENDROOT
BRANCH   2   7
ATOM      7  N   UNL d   1     -39.411  14.463  18.777  0.00  0.00    -0.158 NA
BRANCH   7   8
ATOM      8  S   UNL d   1     -39.369  14.705  19.562  0.00  0.00     0.285 S 
ATOM      9  O   UNL d   1     -38.675  15.160  19.391  0.00  0.00    -0.198 OA
ATOM     10  O   UNL d   1     -40.040  14.271  19.754  0.00  0.00    -0.198 OA
BRANCH   8  11
ATOM     11  C   UNL d   1     -39.308  14.962  20.356  0.00  0.00     0.105 A 
ATOM     12  C   UNL d   1     -39.646  14.504  20.959  0.00  0.00     0.013 A 
ATOM     13  C   UNL d   1     -39.586  14.757  21.743  0.00  0.00     0.001 A 
ATOM     14  C   UNL d   1     -39.189  15.463  21.903  0.00  0.00     0.000 A 
ATOM     15  C   UNL d   1     -38.852  15.921  21.310  0.00  0.00     0.001 A 
ATOM     16  C   UNL d   1     -39.118  15.733  22.680  0.00  0.00     0.000 C 
ATOM     17  C   UNL d   1     -38.912  15.668  20.526  0.00  0.00     0.013 A 
ENDBRANCH   8  11
ENDBRANCH   7   8
ENDBRANCH   2   7
BRANCH   1  18
ATOM     18  C   UNL d   1     -39.459  14.041  17.162  0.00  0.00     0.302 C 
ATOM     19  O   UNL d   1     -39.634  13.261  17.322  0.00  0.00    -0.259 OA
BRANCH  18  20
ATOM     20  O   UNL d   1     -38.790  14.224  16.706  0.00  0.00    -0.271 OA
BRANCH  20  21
ATOM     21  C   UNL d   1     -38.393  13.614  16.296  0.00  0.00     0.126 C 
ATOM     22  C   UNL d   1     -37.951  13.788  15.633  0.00  0.00     0.029 C 
ENDBRANCH  20  21
ENDBRANCH  18  20
ENDBRANCH   1  18
TORSDOF 6
ENDMDL
MODEL 7
REMARK VINA RESULT:      -5.4      8.821     10.206
REMARK  6 active torsions:
REMARK  status: ('A' for Active; 'I' for Inactive)
REMARK    1  A    between atoms: N_2  and  S_1 
REMARK    2  A    between atoms: C_6  and  S_1 
REMARK    3  A    between atoms: C_4  and  N_2 
REMARK    4  A    between atoms: C_5  and  C_3 
REMARK    5  A    between atoms: O_12  and  C_5 
REMARK    6  A    between atoms: C_18  and  O_12 
ROOT
ATOM      1  C   UNL d   1     -40.145  14.924  20.856  0.00  0.00     0.082 A 
ATOM      2  C   UNL d   1     -39.945  14.823  20.068  0.00  0.00     0.099 A 
ATOM      3  C   UNL d   1     -40.723  15.474  21.066  0.00  0.00     0.007 A 
ATOM      4  C   UNL d   1     -40.323  15.273  19.490  0.00  0.00     0.020 A 
ATOM      5  C   UNL d   1     -41.098  15.921  20.486  0.00  0.00     0.000 A 
ATOM      6  C   UNL d   1     -40.898  15.820  19.699  0.00  0.00     0.002 A 
ENDROOT
BRANCH   2   7
ATOM      7  N   UNL d   1     -39.358  14.266  19.846  0.00  0.00    -0.158 NA
BRANCH   7   8
ATOM      8  S   UNL d   1     -39.142  14.208  19.054  0.00  0.00     0.285 S 
ATOM      9  O   UNL d   1     -39.730  13.610  18.932  0.00  0.00    -0.198 OA
ATOM     10  O   UNL d   1     -38.565  14.786  19.147  0.00  0.00    -0.198 OA
BRANCH   8  11
ATOM     11  C   UNL d   1     -38.938  14.133  18.246  0.00  0.00     0.105 A 
ATOM     12  C   UNL d   1     -39.259  13.512  17.800  0.00  0.00     0.013 A 
ATOM     13  C   UNL d   1     -39.058  13.438  17.003  0.00  0.00     0.001 A 
ATOM     14  C   UNL d   1     -38.540  13.989  16.672  0.00  0.00     0.000 A 
ATOM     15  C   UNL d   1     -38.218  14.607  17.108  0.00  0.00     0.001 A 
ATOM     16  C   UNL d   1     -38.326  13.933  15.876  0.00  0.00     0.000 C 
ATOM     17  C   UNL d   1     -38.420  14.681  17.905  0.00  0.00     0.013 A 
ENDBRANCH   8  11
ENDBRANCH   7   8
ENDBRANCH   2   7
BRANCH   1  18
ATOM     18  C   UNL d   1     -39.754  14.459  21.457  0.00  0.00     0.302 C 
ATOM     19  O   UNL d   1     -39.996  13.693  21.598  0.00  0.00    -0.259 OA
BRANCH  18  20
ATOM     20  O   UNL d   1     -39.128  14.778  21.900  0.00  0.00    -0.271 OA
BRANCH  20  21
ATOM     21  C   UNL d   1     -38.883  14.393  22.600  0.00  0.00     0.126 C 
ATOM     22  C   UNL d   1     -38.337  14.748  23.091  0.00  0.00     0.029 C 
ENDBRANCH  20  21
ENDBRANCH  18  20
ENDBRANCH   1  18
TORSDOF 6
ENDMDL
MODEL 8
REMARK VINA RESULT:      -5.3      7.022      9.650
REMARK  6 active torsions:
REMARK  status: ('A' for Active; 'I' for Inactive)
REMARK    1  A    between atoms: N_2  and  S_1 
REMARK    2  A    between atoms: C_6  and  S_1 
REMARK    3  A    between atoms: C_4  and  N_2 
REMARK    4  A    between atoms: C_5  and  C_3 
REMARK    5  A    between atoms: O_12  and  C_5 
REMARK    6  A    between atoms: C_18  and  O_12 
ROOT
ATOM      1  C   UNL d   1     -40.317  14.423  20.780  0.00  0.00     0.082 A 
ATOM      2  C   UNL d   1     -39.924  14.423  20.062  0.00  0.00     0.099 A 
ATOM      3  C   UNL d   1     -39.887  14.438  21.484  0.00  0.00     0.007 A 
ATOM      4  C   UNL d   1     -39.101  14.437  20.047  0.00  0.00     0.020 A 
ATOM      5  C   UNL d   1     -39.065  14.452  21.465  0.00  0.00     0.000 A 
ATOM      6  C   UNL d   1     -38.672  14.452  20.747  0.00  0.00     0.002 A 
ENDROOT
BRANCH   2   7
ATOM      7  N   UNL d   1     -40.354  14.408  19.341  0.00  0.00    -0.158 NA
BRANCH   7   8
ATOM      8  S   UNL d   1     -39.942  14.359  18.631  0.00  0.00     0.285 S 
ATOM      9  O   UNL d   1     -40.034  13.517  18.629  0.00  0.00    -0.198 OA
ATOM     10  O   UNL d   1     -39.839  15.174  18.610  0.00  0.00    -0.198 OA
BRANCH   8  11
ATOM     11  C   UNL d   1     -39.525  14.287  17.909  0.00  0.00     0.105 A 
ATOM     12  C   UNL d   1     -39.421  14.957  17.431  0.00  0.00     0.013 A 
ATOM     13  C   UNL d   1     -39.009  14.887  16.718  0.00  0.00     0.001 A 
ATOM     14  C   UNL d   1     -38.712  14.148  16.503  0.00  0.00     0.000 A 
ATOM     15  C   UNL d   1     -38.811  13.480  16.972  0.00  0.00     0.001 A 
ATOM     16  C   UNL d   1     -38.298  14.057  15.794  0.00  0.00     0.000 C 
ATOM     17  C   UNL d   1     -39.223  13.551  17.685  0.00  0.00     0.013 A 
ENDBRANCH   8  11
ENDBRANCH   7   8
ENDBRANCH   2   7
BRANCH   1  18
ATOM     18  C   UNL d   1     -41.171  14.408  20.797  0.00  0.00     0.302 C 
ATOM     19  O   UNL d   1     -41.591  15.102  20.714  0.00  0.00    -0.259 OA
BRANCH  18  20
ATOM     20  O   UNL d   1     -41.581  13.693  20.899  0.00  0.00    -0.271 OA
BRANCH  20  21
ATOM     21  C   UNL d   1     -42.376  13.709  21.157  0.00  0.00     0.126 C 
ATOM     22  C   UNL d   1     -42.784  13.010  21.263  0.00  0.00     0.029 C 
ENDBRANCH  20  21
ENDBRANCH  18  20
ENDBRANCH   1  18
TORSDOF 6
ENDMDL
