MODEL 1
REMARK VINA RESULT:       0.2      0.000      0.000
REMARK  2 active torsions:
REMARK  status: ('A' for Active; 'I' for Inactive)
REMARK    1  A    between atoms: C_9  and  C_1 
REMARK    2  A    between atoms: N_7  and  C_2 
ROOT
ATOM      1  C   UNL d   1      58.831   0.073  30.608  0.00  0.00     0.022 A 
ATOM      2  C   UNL d   1      59.631   0.231  30.688  0.00  0.00     0.123 A 
ATOM      3  C   UNL d   1      59.923   0.522  31.386  0.00  0.00     0.295 A 
ATOM      4  C   UNL d   1      58.311   0.211  31.248  0.00  0.00     0.020 A 
ATOM      5  N   UNL d   1      59.422   0.662  32.021  0.00  0.00    -0.207 NA
ATOM      6  C   UNL d   1      58.603   0.503  31.946  0.00  0.00     0.085 A 
ATOM      7  C   UNL d   1      57.518   0.053  31.164  0.00  0.00     0.013 A 
ATOM      8  O   UNL d   1      60.751   0.674  31.434  0.00  0.00    -0.264 OA
ATOM      9  C   UNL d   1      58.109   0.643  32.578  0.00  0.00     0.020 A 
ATOM     10  C   UNL d   1      56.998   0.192  31.805  0.00  0.00     0.058 A 
ATOM     11  C   UNL d   1      57.290   0.483  32.503  0.00  0.00     0.013 A 
ATOM     12 CL   UNL d   1      56.174   0.040  31.755  0.00  0.00    -0.082 Cl
ENDROOT
BRANCH   1  13
ATOM     13  C   UNL d   1      58.531  -0.227  29.889  0.00  0.00     0.002 A 
ATOM     14  C   UNL d   1      58.478  -1.031  29.771  0.00  0.00     0.000 A 
ATOM     15  C   UNL d   1      58.182  -1.327  29.062  0.00  0.00     0.000 A 
ATOM     16  C   UNL d   1      57.939  -0.801  28.473  0.00  0.00     0.000 A 
ATOM     17  C   UNL d   1      57.990   0.004  28.587  0.00  0.00     0.000 A 
ATOM     18  C   UNL d   1      58.290   0.304  29.306  0.00  0.00     0.000 A 
ENDBRANCH   1  13
BRANCH   2  19
ATOM     19  N   UNL d   1      60.122   0.092  30.060  0.00  0.00    -0.296 N 
ATOM     20  C   UNL d   1      60.495  -0.649  29.989  0.00  0.00     0.107 A 
ATOM     21  C   UNL d   1      61.001  -0.803  29.350  0.00  0.00     0.142 A 
ATOM     22  O   UNL d   1      61.133  -0.212  28.777  0.00  0.00    -0.300 OA
ATOM     23  C   UNL d   1      60.763   0.519  28.849  0.00  0.00     0.142 A 
ATOM     24  C   UNL d   1      60.256   0.681  29.485  0.00  0.00     0.107 A 
ENDBRANCH   2  19
TORSDOF 2
ENDMDL
