MODEL 1
REMARK VINA RESULT:      40.5      0.000      0.000
REMARK  3 active torsions:
REMARK  status: ('A' for Active; 'I' for Inactive)
REMARK    1  A    between atoms: C_8  and  N_1 
REMARK    2  A    between atoms: C_6  and  C_2 
REMARK    3  A    between atoms: C_14  and  C_8 
ROOT
ATOM      1  N   UNL d   1      58.778  49.637  50.611  0.00  0.00    -0.289 N 
ATOM      2  C   UNL d   1      58.284  49.656  49.943  0.00  0.00     0.154 A 
ATOM      3  N   UNL d   1      58.762  49.682  49.275  0.00  0.00    -0.226 NA
ATOM      4  C   UNL d   1      59.561  49.652  50.349  0.00  0.00     0.083 A 
ATOM      5  C   UNL d   1      59.553  49.680  49.525  0.00  0.00     0.099 A 
ATOM      6  C   UNL d   1      60.292  49.644  50.751  0.00  0.00     0.019 A 
ATOM      7  C   UNL d   1      60.267  49.700  49.102  0.00  0.00     0.021 A 
ATOM      8  C   UNL d   1      60.999  49.664  50.328  0.00  0.00     0.002 A 
ATOM      9  C   UNL d   1      60.986  49.692  49.503  0.00  0.00     0.002 A 
ENDROOT
BRANCH   2  10
ATOM     10  C   UNL d   1      57.460  49.649  49.956  0.00  0.00     0.064 A 
ATOM     11  S   UNL d   1      56.954  49.707  50.468  0.00  0.00    -0.083 SA
ATOM     12  C   UNL d   1      56.259  49.677  50.284  0.00  0.00     0.035 A 
ATOM     13  C   UNL d   1      56.063  49.591  49.600  0.00  0.00     0.008 A 
ATOM     14  C   UNL d   1      56.568  49.533  49.089  0.00  0.00     0.010 A 
ENDBRANCH   2  10
BRANCH   1  15
ATOM     15  C   UNL d   1      58.376  49.610  51.329  0.00  0.00     0.082 C 
BRANCH  15  16
ATOM     16  C   UNL d   1      58.725  49.246  51.980  0.00  0.00     0.018 C 
ATOM     17  C   UNL d   1      59.118  49.702  52.542  0.00  0.00     0.002 C 
ATOM     18  C   UNL d   1      58.681  48.427  52.069  0.00  0.00     0.002 C 
ENDBRANCH  15  16
ENDBRANCH   1  15
TORSDOF 3
ENDMDL
MODEL 2
REMARK VINA RESULT:      42.2      0.777      2.114
REMARK  3 active torsions:
REMARK  status: ('A' for Active; 'I' for Inactive)
REMARK    1  A    between atoms: C_8  and  N_1 
REMARK    2  A    between atoms: C_6  and  C_2 
REMARK    3  A    between atoms: C_14  and  C_8 
ROOT
ATOM      1  N   UNL d   1      58.769  49.488  50.860  0.00  0.00    -0.289 N 
ATOM      2  C   UNL d   1      58.014  49.554  51.198  0.00  0.00     0.154 A 
ATOM      3  N   UNL d   1      58.106  49.644  52.011  0.00  0.00    -0.226 NA
ATOM      4  C   UNL d   1      59.326  49.538  51.468  0.00  0.00     0.083 A 
ATOM      5  C   UNL d   1      58.919  49.635  52.179  0.00  0.00     0.099 A 
ATOM      6  C   UNL d   1      60.160  49.510  51.475  0.00  0.00     0.019 A 
ATOM      7  C   UNL d   1      59.337  49.702  52.892  0.00  0.00     0.021 A 
ATOM      8  C   UNL d   1      60.572  49.577  52.186  0.00  0.00     0.002 A 
ATOM      9  C   UNL d   1      60.160  49.673  52.894  0.00  0.00     0.002 A 
ENDROOT
BRANCH   2  10
ATOM     10  C   UNL d   1      57.300  49.532  50.787  0.00  0.00     0.064 A 
ATOM     11  S   UNL d   1      56.608  49.424  50.966  0.00  0.00    -0.083 SA
ATOM     12  C   UNL d   1      56.104  49.442  50.453  0.00  0.00     0.035 A 
ATOM     13  C   UNL d   1      56.279  49.565  49.769  0.00  0.00     0.008 A 
ATOM     14  C   UNL d   1      56.969  49.672  49.590  0.00  0.00     0.010 A 
ENDBRANCH   2  10
BRANCH   1  15
ATOM     15  C   UNL d   1      58.767  49.394  50.042  0.00  0.00     0.082 C 
BRANCH  15  16
ATOM     16  C   UNL d   1      59.471  49.463  49.620  0.00  0.00     0.018 C 
ATOM     17  C   UNL d   1      60.187  49.292  49.988  0.00  0.00     0.002 C 
ATOM     18  C   UNL d   1      59.458  49.704  48.831  0.00  0.00     0.002 C 
ENDBRANCH  15  16
ENDBRANCH   1  15
TORSDOF 3
ENDMDL
