MODEL 1
REMARK VINA RESULT:      38.0      0.000      0.000
REMARK  1 active torsions:
REMARK  status: ('A' for Active; 'I' for Inactive)
REMARK    1  A    between atoms: C_9  and  C_5 
ROOT
ATOM      1  C   UNL d   1     -57.108 -98.822 -44.250  0.00  0.00     0.062 A 
ATOM      2  C   UNL d   1     -57.476 -98.813 -43.529  0.00  0.00     0.197 A 
ATOM      3  C   UNL d   1     -57.585 -98.815 -44.954  0.00  0.00     0.044 A 
ATOM      4  C   UNL d   1     -56.276 -98.838 -44.288  0.00  0.00     0.112 A 
ATOM      5  C   UNL d   1     -55.934 -98.847 -45.046  0.00  0.00     0.084 A 
ATOM      6  C   UNL d   1     -58.408 -98.799 -44.905  0.00  0.00     0.196 A 
ATOM      7  C   UNL d   1     -58.324 -98.797 -43.463  0.00  0.00     0.042 A 
ATOM      8  C   UNL d   1     -58.783 -98.790 -44.142  0.00  0.00     0.042 A 
ATOM      9  C   UNL d   1     -57.233 -98.824 -45.701  0.00  0.00     0.004 A 
ATOM     10  C   UNL d   1     -56.431 -98.839 -45.781  0.00  0.00     0.008 A 
ATOM     11  O   UNL d   1     -56.999 -98.821 -42.825  0.00  0.00    -0.286 OA
ATOM     12  O   UNL d   1     -58.889 -98.791 -45.614  0.00  0.00    -0.287 OA
ATOM     13  N   UNL d   1     -55.825 -98.845 -43.621  0.00  0.00    -0.148 N 
ATOM     14  C   UNL d   1     -58.674 -98.788 -42.717  0.00  0.00     0.003 A 
ATOM     15  C   UNL d   1     -59.606 -98.774 -44.093  0.00  0.00     0.003 A 
ATOM     16  C   UNL d   1     -59.481 -98.772 -42.642  0.00  0.00     0.000 A 
ATOM     17  C   UNL d   1     -59.958 -98.765 -43.346  0.00  0.00     0.000 A 
ENDROOT
BRANCH   5  18
ATOM     18  C   UNL d   1     -55.117 -98.863 -45.065  0.00  0.00     0.212 C 
ATOM     19  O   UNL d   1     -54.733 -98.983 -44.361  0.00  0.00    -0.644 OA
ATOM     20  O   UNL d   1     -54.715 -98.757 -45.791  0.00  0.00    -0.644 OA
ENDBRANCH   5  18
TORSDOF 1
ENDMDL
