MODEL 1
REMARK VINA RESULT:      -4.6      0.000      0.000
REMARK  6 active torsions:
REMARK  status: ('A' for Active; 'I' for Inactive)
REMARK    1  A    between atoms: N_2  and  C_1 
REMARK    2  A    between atoms: N_3  and  C_1 
REMARK       I    between atoms: C_4  and  N_2 
REMARK    3  A    between atoms: C_5  and  N_3 
REMARK    4  A    between atoms: C_14  and  C_4 
REMARK    5  A    between atoms: C_8  and  O_10 
REMARK    6  A    between atoms: O_10  and  C_14 
ROOT
ATOM      1  N   UNL d   1      57.900  -0.650  30.608  0.00  0.00    -0.177 NA
ATOM      2  C   UNL d   1      58.202  -0.632  29.836  0.00  0.00     0.306 C 
ATOM      3  O   UNL d   1      58.182   0.108  29.414  0.00  0.00    -0.263 OA
ENDROOT
BRANCH   2   4
ATOM      4  C   UNL d   1      58.517  -1.291  29.465  0.00  0.00     0.185 C 
BRANCH   4   5
ATOM      5  O   UNL d   1      59.303  -1.336  29.248  0.00  0.00    -0.300 OA
BRANCH   5   6
ATOM      6  C   UNL d   1      59.642  -2.041  29.055  0.00  0.00     0.106 A 
ATOM      7  C   UNL d   1      60.485  -2.099  28.955  0.00  0.00     0.057 A 
ATOM      8  C   UNL d   1      60.807  -2.842  28.755  0.00  0.00     0.009 A 
ATOM      9 BR   UNL d   1      60.963  -1.420  29.058  0.00  0.00    -0.047 Br
ATOM     10  C   UNL d   1      60.373  -3.489  28.655  0.00  0.00     0.001 A 
ATOM     11  C   UNL d   1      59.520  -3.427  28.756  0.00  0.00     0.002 A 
ATOM     12  C   UNL d   1      60.713  -4.223  28.455  0.00  0.00     0.000 C 
ATOM     13  C   UNL d   1      59.197  -2.699  28.953  0.00  0.00     0.025 A 
ENDBRANCH   5   6
ENDBRANCH   4   5
ENDBRANCH   2   4
BRANCH   1  14
ATOM     14  C   UNL d   1      57.586   0.023  30.966  0.00  0.00     0.225 C 
ATOM     15  S   UNL d   1      58.086   0.662  31.173  0.00  0.00    -0.037 SA
BRANCH  14  16
ATOM     16  N   UNL d   1      56.778   0.055  31.116  0.00  0.00    -0.198 NA
BRANCH  16  17
ATOM     17  C   UNL d   1      56.492  -0.139  31.879  0.00  0.00     0.165 A 
ATOM     18  N   UNL d   1      56.410  -0.946  32.122  0.00  0.00    -0.225 NA
ATOM     19  C   UNL d   1      56.128  -1.126  32.874  0.00  0.00     0.101 A 
ATOM     20  C   UNL d   1      55.928  -0.510  33.384  0.00  0.00     0.021 A 
ATOM     21  C   UNL d   1      56.012   0.276  33.137  0.00  0.00     0.005 A 
ATOM     22  C   UNL d   1      56.288   0.459  32.401  0.00  0.00     0.039 A 
ENDBRANCH  16  17
ENDBRANCH  14  16
ENDBRANCH   1  14
TORSDOF 6
ENDMDL
MODEL 2
REMARK VINA RESULT:      -4.4      1.703      5.188
REMARK  6 active torsions:
REMARK  status: ('A' for Active; 'I' for Inactive)
REMARK    1  A    between atoms: N_2  and  C_1 
REMARK    2  A    between atoms: N_3  and  C_1 
REMARK       I    between atoms: C_4  and  N_2 
REMARK    3  A    between atoms: C_5  and  N_3 
REMARK    4  A    between atoms: C_14  and  C_4 
REMARK    5  A    between atoms: C_8  and  O_10 
REMARK    6  A    between atoms: O_10  and  C_14 
ROOT
ATOM      1  N   UNL d   1      58.571  -0.464  30.320  0.00  0.00    -0.177 NA
ATOM      2  C   UNL d   1      57.906   0.009  30.466  0.00  0.00     0.306 C 
ATOM      3  O   UNL d   1      57.565   0.434  29.811  0.00  0.00    -0.263 OA
ENDROOT
BRANCH   2   4
ATOM      4  C   UNL d   1      57.567   0.084  31.207  0.00  0.00     0.185 C 
BRANCH   4   5
ATOM      5  O   UNL d   1      56.990  -0.428  31.478  0.00  0.00    -0.300 OA
BRANCH   5   6
ATOM      6  C   UNL d   1      56.559  -0.258  32.137  0.00  0.00     0.106 A 
ATOM      7  C   UNL d   1      56.119  -0.870  32.532  0.00  0.00     0.057 A 
ATOM      8  C   UNL d   1      55.681  -0.664  33.211  0.00  0.00     0.009 A 
ATOM      9 BR   UNL d   1      56.135  -1.652  32.233  0.00  0.00    -0.047 Br
ATOM     10  C   UNL d   1      55.655   0.064  33.505  0.00  0.00     0.001 A 
ATOM     11  C   UNL d   1      56.101   0.681  33.103  0.00  0.00     0.002 A 
ATOM     12  C   UNL d   1      55.212   0.251  34.185  0.00  0.00     0.000 C 
ATOM     13  C   UNL d   1      56.534   0.485  32.434  0.00  0.00     0.025 A 
ENDBRANCH   5   6
ENDBRANCH   4   5
ENDBRANCH   2   4
BRANCH   1  14
ATOM     14  C   UNL d   1      58.900  -0.529  29.568  0.00  0.00     0.225 C 
ATOM     15  S   UNL d   1      59.401   0.074  29.274  0.00  0.00    -0.037 SA
BRANCH  14  16
ATOM     16  N   UNL d   1      58.729  -1.193  29.113  0.00  0.00    -0.198 NA
BRANCH  16  17
ATOM     17  C   UNL d   1      59.292  -1.809  29.056  0.00  0.00     0.165 A 
ATOM     18  N   UNL d   1      60.118  -1.640  28.973  0.00  0.00    -0.225 NA
ATOM     19  C   UNL d   1      60.664  -2.253  28.917  0.00  0.00     0.101 A 
ATOM     20  C   UNL d   1      60.394  -3.032  28.944  0.00  0.00     0.021 A 
ATOM     21  C   UNL d   1      59.584  -3.187  29.025  0.00  0.00     0.005 A 
ATOM     22  C   UNL d   1      59.045  -2.591  29.080  0.00  0.00     0.039 A 
ENDBRANCH  16  17
ENDBRANCH  14  16
ENDBRANCH   1  14
TORSDOF 6
ENDMDL
MODEL 3
REMARK VINA RESULT:      -2.8      1.252      1.768
REMARK  6 active torsions:
REMARK  status: ('A' for Active; 'I' for Inactive)
REMARK    1  A    between atoms: N_2  and  C_1 
REMARK    2  A    between atoms: N_3  and  C_1 
REMARK       I    between atoms: C_4  and  N_2 
REMARK    3  A    between atoms: C_5  and  N_3 
REMARK    4  A    between atoms: C_14  and  C_4 
REMARK    5  A    between atoms: C_8  and  O_10 
REMARK    6  A    between atoms: O_10  and  C_14 
ROOT
ATOM      1  N   UNL d   1      57.132  -0.624  31.927  0.00  0.00    -0.177 NA
ATOM      2  C   UNL d   1      57.222  -0.529  31.109  0.00  0.00     0.306 C 
ATOM      3  O   UNL d   1      56.769   0.082  30.723  0.00  0.00    -0.263 OA
ENDROOT
BRANCH   2   4
ATOM      4  C   UNL d   1      57.725  -0.994  30.659  0.00  0.00     0.185 C 
BRANCH   4   5
ATOM      5  O   UNL d   1      58.184  -0.685  30.057  0.00  0.00    -0.300 OA
BRANCH   5   6
ATOM      6  C   UNL d   1      58.724  -1.141  29.671  0.00  0.00     0.106 A 
ATOM      7  C   UNL d   1      59.436  -0.794  29.360  0.00  0.00     0.057 A 
ATOM      8  C   UNL d   1      59.977  -1.290  28.965  0.00  0.00     0.009 A 
ATOM      9 BR   UNL d   1      59.574   0.027  29.458  0.00  0.00    -0.047 Br
ATOM     10  C   UNL d   1      59.862  -2.061  28.865  0.00  0.00     0.001 A 
ATOM     11  C   UNL d   1      59.142  -2.410  29.180  0.00  0.00     0.002 A 
ATOM     12  C   UNL d   1      60.415  -2.541  28.467  0.00  0.00     0.000 C 
ATOM     13  C   UNL d   1      58.605  -1.927  29.570  0.00  0.00     0.025 A 
ENDBRANCH   5   6
ENDBRANCH   4   5
ENDBRANCH   2   4
BRANCH   1  14
ATOM     14  C   UNL d   1      56.622  -0.147  32.365  0.00  0.00     0.225 C 
ATOM     15  S   UNL d   1      56.737   0.682  32.390  0.00  0.00    -0.037 SA
BRANCH  14  16
ATOM     16  N   UNL d   1      56.002  -0.498  32.776  0.00  0.00    -0.198 NA
BRANCH  16  17
ATOM     17  C   UNL d   1      55.663  -0.101  33.429  0.00  0.00     0.165 A 
ATOM     18  N   UNL d   1      56.149   0.258  34.023  0.00  0.00    -0.225 NA
ATOM     19  C   UNL d   1      55.807   0.647  34.662  0.00  0.00     0.101 A 
ATOM     20  C   UNL d   1      54.984   0.682  34.714  0.00  0.00     0.021 A 
ATOM     21  C   UNL d   1      54.517   0.328  34.128  0.00  0.00     0.005 A 
ATOM     22  C   UNL d   1      54.847  -0.054  33.500  0.00  0.00     0.039 A 
ENDBRANCH  16  17
ENDBRANCH  14  16
ENDBRANCH   1  14
TORSDOF 6
ENDMDL
MODEL 4
REMARK VINA RESULT:      -2.5      2.211      5.460
REMARK  6 active torsions:
REMARK  status: ('A' for Active; 'I' for Inactive)
REMARK    1  A    between atoms: N_2  and  C_1 
REMARK    2  A    between atoms: N_3  and  C_1 
REMARK       I    between atoms: C_4  and  N_2 
REMARK    3  A    between atoms: C_5  and  N_3 
REMARK    4  A    between atoms: C_14  and  C_4 
REMARK    5  A    between atoms: C_8  and  O_10 
REMARK    6  A    between atoms: O_10  and  C_14 
ROOT
ATOM      1  N   UNL d   1      58.494   0.346  30.875  0.00  0.00    -0.177 NA
ATOM      2  C   UNL d   1      57.686   0.349  31.060  0.00  0.00     0.306 C 
ATOM      3  O   UNL d   1      57.127   0.266  30.422  0.00  0.00    -0.263 OA
ENDROOT
BRANCH   2   4
ATOM      4  C   UNL d   1      57.405   0.428  31.826  0.00  0.00     0.185 C 
BRANCH   4   5
ATOM      5  O   UNL d   1      57.084  -0.198  32.241  0.00  0.00    -0.300 OA
BRANCH   5   6
ATOM      6  C   UNL d   1      56.635  -0.075  32.898  0.00  0.00     0.106 A 
ATOM      7  C   UNL d   1      55.989  -0.598  33.081  0.00  0.00     0.057 A 
ATOM      8  C   UNL d   1      55.542  -0.446  33.768  0.00  0.00     0.009 A 
ATOM      9 BR   UNL d   1      55.821  -1.243  32.574  0.00  0.00    -0.047 Br
ATOM     10  C   UNL d   1      55.686   0.154  34.254  0.00  0.00     0.001 A 
ATOM     11  C   UNL d   1      56.340   0.682  34.066  0.00  0.00     0.002 A 
ATOM     12  C   UNL d   1      55.228   0.290  34.936  0.00  0.00     0.000 C 
ATOM     13  C   UNL d   1      56.784   0.537  33.392  0.00  0.00     0.025 A 
ENDBRANCH   5   6
ENDBRANCH   4   5
ENDBRANCH   2   4
BRANCH   1  14
ATOM     14  C   UNL d   1      58.760   0.265  30.099  0.00  0.00     0.225 C 
ATOM     15  S   UNL d   1      58.268  -0.085  29.519  0.00  0.00    -0.037 SA
BRANCH  14  16
ATOM     16  N   UNL d   1      59.513   0.534  29.905  0.00  0.00    -0.198 NA
BRANCH  16  17
ATOM     17  C   UNL d   1      60.056   0.011  29.541  0.00  0.00     0.165 A 
ATOM     18  N   UNL d   1      60.283  -0.713  29.917  0.00  0.00    -0.225 NA
ATOM     19  C   UNL d   1      60.818  -1.221  29.551  0.00  0.00     0.101 A 
ATOM     20  C   UNL d   1      61.127  -1.013  28.815  0.00  0.00     0.021 A 
ATOM     21  C   UNL d   1      60.897  -0.302  28.455  0.00  0.00     0.005 A 
ATOM     22  C   UNL d   1      60.374   0.198  28.809  0.00  0.00     0.039 A 
ENDBRANCH  16  17
ENDBRANCH  14  16
ENDBRANCH   1  14
TORSDOF 6
ENDMDL
