MODEL 1
REMARK VINA RESULT:      -8.4      0.000      0.000
REMARK  4 active torsions:
REMARK  status: ('A' for Active; 'I' for Inactive)
REMARK    1  A    between atoms: N_2  and  S_1 
REMARK    2  A    between atoms: C_3  and  S_1 
REMARK    3  A    between atoms: C_5  and  N_4 
REMARK    4  A    between atoms: O_16  and  C_13 
ROOT
ATOM      1  N   UNL d   1     -49.516  12.317  23.107  0.00  0.00    -0.226 N 
ATOM      2  N   UNL d   1     -47.942  12.751  22.902  0.00  0.00    -0.300 N 
ATOM      3  C   UNL d   1     -49.106  12.079  22.427  0.00  0.00     0.111 A 
ATOM      4  C   UNL d   1     -49.140  12.771  23.683  0.00  0.00     0.111 A 
ATOM      5  C   UNL d   1     -48.314  12.297  22.322  0.00  0.00     0.100 A 
ATOM      6  C   UNL d   1     -48.348  12.988  23.578  0.00  0.00     0.100 A 
ENDROOT
BRANCH   1   7
ATOM      7  S   UNL d   1     -50.291  12.100  23.202  0.00  0.00     0.272 S 
ATOM      8  O   UNL d   1     -51.064  11.884  23.298  0.00  0.00    -0.200 OA
ATOM      9  O   UNL d   1     -50.056  11.376  23.473  0.00  0.00    -0.200 OA
BRANCH   7  10
ATOM     10  C   UNL d   1     -50.529  12.832  22.929  0.00  0.00     0.106 A 
ATOM     11  C   UNL d   1     -50.676  12.938  22.125  0.00  0.00     0.043 A 
ATOM     12  C   UNL d   1     -50.917  13.677  21.849  0.00  0.00     0.141 A 
ATOM     13  F   UNL d   1     -51.063  13.788  21.055  0.00  0.00    -0.204 F 
ATOM     14  C   UNL d   1     -51.008  14.301  22.380  0.00  0.00     0.030 A 
ATOM     15  C   UNL d   1     -50.862  14.187  23.166  0.00  0.00     0.003 A 
ATOM     16  C   UNL d   1     -50.621  13.449  23.442  0.00  0.00     0.013 A 
ENDBRANCH   7  10
ENDBRANCH   1   7
BRANCH   2  17
ATOM     17  C   UNL d   1     -47.158  12.970  22.805  0.00  0.00     0.086 A 
ATOM     18  C   UNL d   1     -46.559  12.468  23.069  0.00  0.00     0.110 A 
ATOM     19  C   UNL d   1     -45.767  12.690  22.971  0.00  0.00     0.026 A 
ATOM     20  C   UNL d   1     -45.573  13.413  22.610  0.00  0.00     0.002 A 
ATOM     21  C   UNL d   1     -46.178  13.914  22.347  0.00  0.00     0.002 A 
ATOM     22  C   UNL d   1     -46.969  13.692  22.445  0.00  0.00     0.019 A 
BRANCH  18  23
ATOM     23  O   UNL d   1     -46.747  11.758  23.424  0.00  0.00    -0.327 OA
ATOM     24  C   UNL d   1     -46.240  11.327  23.605  0.00  0.00     0.181 C 
ENDBRANCH  18  23
ENDBRANCH   2  17
TORSDOF 4
ENDMDL
MODEL 2
REMARK VINA RESULT:      -8.2      1.575      1.824
REMARK  4 active torsions:
REMARK  status: ('A' for Active; 'I' for Inactive)
REMARK    1  A    between atoms: N_2  and  S_1 
REMARK    2  A    between atoms: C_3  and  S_1 
REMARK    3  A    between atoms: C_5  and  N_4 
REMARK    4  A    between atoms: O_16  and  C_13 
ROOT
ATOM      1  N   UNL d   1     -49.206  14.453  22.493  0.00  0.00    -0.226 N 
ATOM      2  N   UNL d   1     -47.739  13.721  22.625  0.00  0.00    -0.300 N 
ATOM      3  C   UNL d   1     -48.786  14.493  23.206  0.00  0.00     0.111 A 
ATOM      4  C   UNL d   1     -48.893  14.049  21.847  0.00  0.00     0.111 A 
ATOM      5  C   UNL d   1     -48.048  14.124  23.275  0.00  0.00     0.100 A 
ATOM      6  C   UNL d   1     -48.154  13.680  21.915  0.00  0.00     0.100 A 
ENDROOT
BRANCH   1   7
ATOM      7  S   UNL d   1     -49.929  14.817  22.433  0.00  0.00     0.272 S 
ATOM      8  O   UNL d   1     -50.649  15.178  22.374  0.00  0.00    -0.200 OA
ATOM      9  O   UNL d   1     -49.566  15.501  22.202  0.00  0.00    -0.200 OA
BRANCH   7  10
ATOM     10  C   UNL d   1     -50.295  14.126  22.667  0.00  0.00     0.106 A 
ATOM     11  C   UNL d   1     -50.495  13.559  22.102  0.00  0.00     0.043 A 
ATOM     12  C   UNL d   1     -50.865  12.861  22.338  0.00  0.00     0.141 A 
ATOM     13  F   UNL d   1     -51.064  12.298  21.784  0.00  0.00    -0.204 F 
ATOM     14  C   UNL d   1     -51.031  12.738  23.136  0.00  0.00     0.030 A 
ATOM     15  C   UNL d   1     -50.832  13.298  23.682  0.00  0.00     0.003 A 
ATOM     16  C   UNL d   1     -50.462  13.996  23.446  0.00  0.00     0.013 A 
ENDBRANCH   7  10
ENDBRANCH   1   7
BRANCH   2  17
ATOM     17  C   UNL d   1     -47.008  13.353  22.685  0.00  0.00     0.086 A 
ATOM     18  C   UNL d   1     -46.951  12.617  23.052  0.00  0.00     0.110 A 
ATOM     19  C   UNL d   1     -46.213  12.246  23.113  0.00  0.00     0.026 A 
ATOM     20  C   UNL d   1     -45.532  12.612  22.807  0.00  0.00     0.002 A 
ATOM     21  C   UNL d   1     -45.594  13.350  22.440  0.00  0.00     0.002 A 
ATOM     22  C   UNL d   1     -46.332  13.721  22.379  0.00  0.00     0.019 A 
BRANCH  18  23
ATOM     23  O   UNL d   1     -47.619  12.257  23.353  0.00  0.00    -0.327 OA
ATOM     24  C   UNL d   1     -47.567  11.626  23.626  0.00  0.00     0.181 C 
ENDBRANCH  18  23
ENDBRANCH   2  17
TORSDOF 4
ENDMDL
MODEL 3
REMARK VINA RESULT:      -8.0      1.626      3.930
REMARK  4 active torsions:
REMARK  status: ('A' for Active; 'I' for Inactive)
REMARK    1  A    between atoms: N_2  and  S_1 
REMARK    2  A    between atoms: C_3  and  S_1 
REMARK    3  A    between atoms: C_5  and  N_4 
REMARK    4  A    between atoms: O_16  and  C_13 
ROOT
ATOM      1  N   UNL d   1     -47.453  12.243  23.088  0.00  0.00    -0.226 N 
ATOM      2  N   UNL d   1     -48.893  12.748  22.473  0.00  0.00    -0.300 N 
ATOM      3  C   UNL d   1     -47.784  11.854  22.435  0.00  0.00     0.111 A 
ATOM      4  C   UNL d   1     -47.842  12.882  23.432  0.00  0.00     0.111 A 
ATOM      5  C   UNL d   1     -48.508  12.107  22.124  0.00  0.00     0.100 A 
ATOM      6  C   UNL d   1     -48.566  13.135  23.122  0.00  0.00     0.100 A 
ENDROOT
BRANCH   1   7
ATOM      7  S   UNL d   1     -46.743  11.990  23.387  0.00  0.00     0.272 S 
ATOM      8  O   UNL d   1     -46.035  11.737  23.685  0.00  0.00    -0.200 OA
ATOM      9  O   UNL d   1     -47.106  11.337  23.697  0.00  0.00    -0.200 OA
BRANCH   7  10
ATOM     10  C   UNL d   1     -46.376  12.648  23.074  0.00  0.00     0.106 A 
ATOM     11  C   UNL d   1     -45.985  12.592  22.350  0.00  0.00     0.043 A 
ATOM     12  C   UNL d   1     -45.615  13.258  22.035  0.00  0.00     0.141 A 
ATOM     13  F   UNL d   1     -45.227  13.208  21.320  0.00  0.00    -0.204 F 
ATOM     14  C   UNL d   1     -45.640  13.972  22.446  0.00  0.00     0.030 A 
ATOM     15  C   UNL d   1     -46.026  14.017  23.154  0.00  0.00     0.003 A 
ATOM     16  C   UNL d   1     -46.396  13.352  23.470  0.00  0.00     0.013 A 
ENDBRANCH   7  10
ENDBRANCH   1   7
BRANCH   2  17
ATOM     17  C   UNL d   1     -49.611  13.003  22.171  0.00  0.00     0.086 A 
ATOM     18  C   UNL d   1     -50.314  12.705  22.481  0.00  0.00     0.110 A 
ATOM     19  C   UNL d   1     -51.039  12.963  22.176  0.00  0.00     0.026 A 
ATOM     20  C   UNL d   1     -51.062  13.521  21.560  0.00  0.00     0.002 A 
ATOM     21  C   UNL d   1     -50.354  13.818  21.251  0.00  0.00     0.002 A 
ATOM     22  C   UNL d   1     -49.629  13.559  21.556  0.00  0.00     0.019 A 
BRANCH  18  23
ATOM     23  O   UNL d   1     -50.294  12.157  23.087  0.00  0.00    -0.327 OA
ATOM     24  C   UNL d   1     -50.887  11.931  23.356  0.00  0.00     0.181 C 
ENDBRANCH  18  23
ENDBRANCH   2  17
TORSDOF 4
ENDMDL
MODEL 4
REMARK VINA RESULT:      -6.4      8.998     10.712
REMARK  4 active torsions:
REMARK  status: ('A' for Active; 'I' for Inactive)
REMARK    1  A    between atoms: N_2  and  S_1 
REMARK    2  A    between atoms: C_3  and  S_1 
REMARK    3  A    between atoms: C_5  and  N_4 
REMARK    4  A    between atoms: O_16  and  C_13 
ROOT
ATOM      1  N   UNL d   1     -40.324  15.114  17.837  0.00  0.00    -0.226 N 
ATOM      2  N   UNL d   1     -39.851  15.265  19.405  0.00  0.00    -0.300 N 
ATOM      3  C   UNL d   1     -40.050  15.844  18.118  0.00  0.00     0.111 A 
ATOM      4  C   UNL d   1     -40.362  14.462  18.339  0.00  0.00     0.111 A 
ATOM      5  C   UNL d   1     -39.811  15.922  18.908  0.00  0.00     0.100 A 
ATOM      6  C   UNL d   1     -40.123  14.540  19.128  0.00  0.00     0.100 A 
ENDROOT
BRANCH   1   7
ATOM      7  S   UNL d   1     -40.557  15.046  17.063  0.00  0.00     0.272 S 
ATOM      8  O   UNL d   1     -40.788  14.977  16.292  0.00  0.00    -0.200 OA
ATOM      9  O   UNL d   1     -41.324  15.172  17.282  0.00  0.00    -0.200 OA
BRANCH   7  10
ATOM     10  C   UNL d   1     -39.782  14.918  16.842  0.00  0.00     0.106 A 
ATOM     11  C   UNL d   1     -39.490  14.148  16.801  0.00  0.00     0.043 A 
ATOM     12  C   UNL d   1     -38.708  14.019  16.578  0.00  0.00     0.141 A 
ATOM     13  F   UNL d   1     -38.414  13.260  16.536  0.00  0.00    -0.204 F 
ATOM     14  C   UNL d   1     -38.224  14.662  16.397  0.00  0.00     0.030 A 
ATOM     15  C   UNL d   1     -38.518  15.413  16.440  0.00  0.00     0.003 A 
ATOM     16  C   UNL d   1     -39.301  15.542  16.663  0.00  0.00     0.013 A 
ENDBRANCH   7  10
ENDBRANCH   1   7
BRANCH   2  17
ATOM     17  C   UNL d   1     -39.616  15.335  20.188  0.00  0.00     0.086 A 
ATOM     18  C   UNL d   1     -40.161  15.577  20.757  0.00  0.00     0.110 A 
ATOM     19  C   UNL d   1     -39.924  15.647  21.548  0.00  0.00     0.026 A 
ATOM     20  C   UNL d   1     -39.142  15.475  21.769  0.00  0.00     0.002 A 
ATOM     21  C   UNL d   1     -38.598  15.232  21.195  0.00  0.00     0.002 A 
ATOM     22  C   UNL d   1     -38.835  15.162  20.405  0.00  0.00     0.019 A 
BRANCH  18  23
ATOM     23  O   UNL d   1     -40.930  15.747  20.541  0.00  0.00    -0.327 OA
ATOM     24  C   UNL d   1     -41.386  15.922  21.028  0.00  0.00     0.181 C 
ENDBRANCH  18  23
ENDBRANCH   2  17
TORSDOF 4
ENDMDL
