MODEL 1
REMARK VINA RESULT:      -4.1      0.000      0.000
REMARK  2 active torsions:
REMARK  status: ('A' for Active; 'I' for Inactive)
REMARK    1  A    between atoms: N_2  and  S_1 
REMARK    2  A    between atoms: C_3  and  S_1 
ROOT
ATOM      1  S   UNL d   1     -41.785-122.682 -52.682  0.00  0.00     0.274 S 
ATOM      2  O   UNL d   1     -42.442-122.181 -52.793  0.00  0.00    -0.200 OA
ATOM      3  O   UNL d   1     -41.128-123.179 -52.566  0.00  0.00    -0.200 OA
ENDROOT
BRANCH   1   4
ATOM      4  N   UNL d   1     -41.926-123.030 -53.427  0.00  0.00    -0.212 N 
ATOM      5  C   UNL d   1     -42.011-123.808 -53.664  0.00  0.00     0.193 A 
ATOM      6  N   UNL d   1     -42.144-123.817 -54.485  0.00  0.00    -0.223 NA
ATOM      7  C   UNL d   1     -42.139-123.029 -54.749  0.00  0.00     0.100 A 
ATOM      8  C   UNL d   1     -42.005-122.557 -54.093  0.00  0.00     0.094 A 
ATOM      9  C   UNL d   1     -42.240-122.701 -55.498  0.00  0.00     0.021 A 
ATOM     10  C   UNL d   1     -41.970-121.724 -54.189  0.00  0.00     0.020 A 
ATOM     11  C   UNL d   1     -42.071-121.383 -54.945  0.00  0.00     0.002 A 
ATOM     12  C   UNL d   1     -42.206-121.888 -55.591  0.00  0.00     0.002 A 
ENDBRANCH   1   4
BRANCH   1  13
ATOM     13  C   UNL d   1     -41.650-122.330 -51.941  0.00  0.00     0.122 A 
ATOM     14  C   UNL d   1     -41.891-122.704 -51.258  0.00  0.00     0.093 A 
ATOM     15  N   UNL d   1     -42.271-123.437 -51.297  0.00  0.00    -0.243 NA
ATOM     16  C   UNL d   1     -41.756-122.353 -50.517  0.00  0.00     0.018 A 
ATOM     17  C   UNL d   1     -42.511-123.809 -50.616  0.00  0.00     0.099 A 
ATOM     18  C   UNL d   1     -42.384-123.471 -49.860  0.00  0.00     0.021 A 
ATOM     19  C   UNL d   1     -42.006-122.743 -49.826  0.00  0.00     0.003 A 
ATOM     20  C   UNL d   1     -41.387-121.639 -50.467  0.00  0.00     0.002 A 
ATOM     21  C   UNL d   1     -41.144-121.261 -51.145  0.00  0.00     0.001 A 
ATOM     22  C   UNL d   1     -41.271-121.600 -51.899  0.00  0.00     0.014 A 
ENDBRANCH   1  13
TORSDOF 2
ENDMDL
MODEL 2
REMARK VINA RESULT:      -2.5      1.418      2.132
REMARK  2 active torsions:
REMARK  status: ('A' for Active; 'I' for Inactive)
REMARK    1  A    between atoms: N_2  and  S_1 
REMARK    2  A    between atoms: C_3  and  S_1 
ROOT
ATOM      1  S   UNL d   1     -41.674-123.114 -50.786  0.00  0.00     0.274 S 
ATOM      2  O   UNL d   1     -42.226-122.497 -50.882  0.00  0.00    -0.200 OA
ATOM      3  O   UNL d   1     -41.123-123.729 -50.684  0.00  0.00    -0.200 OA
ENDROOT
BRANCH   1   4
ATOM      4  N   UNL d   1     -41.605-123.179 -51.614  0.00  0.00    -0.212 N 
ATOM      5  C   UNL d   1     -41.664-123.817 -52.124  0.00  0.00     0.193 A 
ATOM      6  N   UNL d   1     -41.542-123.543 -52.900  0.00  0.00    -0.223 NA
ATOM      7  C   UNL d   1     -41.407-122.724 -52.858  0.00  0.00     0.100 A 
ATOM      8  C   UNL d   1     -41.447-122.513 -52.068  0.00  0.00     0.094 A 
ATOM      9  C   UNL d   1     -41.255-122.164 -53.443  0.00  0.00     0.021 A 
ATOM     10  C   UNL d   1     -41.331-121.710 -51.853  0.00  0.00     0.020 A 
ATOM     11  C   UNL d   1     -41.177-121.136 -52.438  0.00  0.00     0.002 A 
ATOM     12  C   UNL d   1     -41.142-121.380 -53.232  0.00  0.00     0.002 A 
ENDBRANCH   1   4
BRANCH   1  13
ATOM     13  C   UNL d   1     -41.748-123.043 -49.961  0.00  0.00     0.122 A 
ATOM     14  C   UNL d   1     -42.433-123.276 -49.587  0.00  0.00     0.093 A 
ATOM     15  N   UNL d   1     -43.061-123.585 -50.026  0.00  0.00    -0.243 NA
ATOM     16  C   UNL d   1     -42.507-123.204 -48.762  0.00  0.00     0.018 A 
ATOM     17  C   UNL d   1     -43.744-123.816 -49.653  0.00  0.00     0.099 A 
ATOM     18  C   UNL d   1     -43.838-123.753 -48.824  0.00  0.00     0.021 A 
ATOM     19  C   UNL d   1     -43.211-123.445 -48.392  0.00  0.00     0.003 A 
ATOM     20  C   UNL d   1     -41.901-122.905 -48.325  0.00  0.00     0.002 A 
ATOM     21  C   UNL d   1     -41.215-122.671 -48.693  0.00  0.00     0.001 A 
ATOM     22  C   UNL d   1     -41.123-122.735 -49.521  0.00  0.00     0.014 A 
ENDBRANCH   1  13
TORSDOF 2
ENDMDL
MODEL 3
REMARK VINA RESULT:      -1.7      1.740      4.309
REMARK  2 active torsions:
REMARK  status: ('A' for Active; 'I' for Inactive)
REMARK    1  A    between atoms: N_2  and  S_1 
REMARK    2  A    between atoms: C_3  and  S_1 
ROOT
ATOM      1  S   UNL d   1     -41.723-123.060 -50.625  0.00  0.00     0.274 S 
ATOM      2  O   UNL d   1     -41.123-123.637 -50.612  0.00  0.00    -0.200 OA
ATOM      3  O   UNL d   1     -42.322-122.484 -50.645  0.00  0.00    -0.200 OA
ENDROOT
BRANCH   1   4
ATOM      4  N   UNL d   1     -41.725-123.044 -49.791  0.00  0.00    -0.212 N 
ATOM      5  C   UNL d   1     -41.163-122.814 -49.243  0.00  0.00     0.193 A 
ATOM      6  N   UNL d   1     -41.481-122.923 -48.482  0.00  0.00    -0.223 NA
ATOM      7  C   UNL d   1     -42.251-123.226 -48.573  0.00  0.00     0.100 A 
ATOM      8  C   UNL d   1     -42.388-123.295 -49.377  0.00  0.00     0.094 A 
ATOM      9  C   UNL d   1     -42.824-123.439 -48.021  0.00  0.00     0.021 A 
ATOM     10  C   UNL d   1     -43.129-123.590 -49.641  0.00  0.00     0.020 A 
ATOM     11  C   UNL d   1     -43.715-123.808 -49.089  0.00  0.00     0.002 A 
ATOM     12  C   UNL d   1     -43.546-123.726 -48.280  0.00  0.00     0.002 A 
ENDBRANCH   1   4
BRANCH   1  13
ATOM     13  C   UNL d   1     -41.716-123.081 -51.456  0.00  0.00     0.122 A 
ATOM     14  C   UNL d   1     -41.544-122.409 -51.883  0.00  0.00     0.093 A 
ATOM     15  N   UNL d   1     -41.377-121.700 -51.494  0.00  0.00    -0.243 NA
ATOM     16  C   UNL d   1     -41.537-122.429 -52.715  0.00  0.00     0.018 A 
ATOM     17  C   UNL d   1     -41.206-121.030 -51.920  0.00  0.00     0.099 A 
ATOM     18  C   UNL d   1     -41.194-121.031 -52.757  0.00  0.00     0.021 A 
ATOM     19  C   UNL d   1     -41.361-121.737 -53.141  0.00  0.00     0.003 A 
ATOM     20  C   UNL d   1     -41.699-123.115 -53.105  0.00  0.00     0.002 A 
ATOM     21  C   UNL d   1     -41.870-123.789 -52.683  0.00  0.00     0.001 A 
ATOM     22  C   UNL d   1     -41.882-123.786 -51.848  0.00  0.00     0.014 A 
ENDBRANCH   1  13
TORSDOF 2
ENDMDL
