MODEL 1
REMARK VINA RESULT:      -9.4      0.000      0.000
REMARK  5 active torsions:
REMARK  status: ('A' for Active; 'I' for Inactive)
REMARK    1  A    between atoms: N_2  and  C_3 
REMARK       I    between atoms: C_4  and  N_5 
REMARK    2  A    between atoms: C_8  and  C_4 
REMARK    3  A    between atoms: N_5  and  C_9 
REMARK    4  A    between atoms: C_14  and  N_5 
REMARK    5  A    between atoms: C_20  and  C_14 
ROOT
ATOM      1  C   UNL d   1      52.768  31.917  52.929  0.00  0.00     0.265 C 
ATOM      2  N   UNL d   1      53.437  31.700  53.361  0.00  0.00    -0.273 N 
ATOM      3  O   UNL d   1      52.471  31.406  52.349  0.00  0.00    -0.267 OA
ENDROOT
BRANCH   2   4
ATOM      4  C   UNL d   1      53.744  32.200  53.942  0.00  0.00     0.079 A 
ATOM      5  C   UNL d   1      54.445  32.628  53.882  0.00  0.00     0.116 A 
ATOM      6  S   UNL d   1      54.543  33.054  54.585  0.00  0.00     0.213 S 
ATOM      7  O   UNL d   1      54.807  33.541  55.193  0.00  0.00    -0.217 OA
ATOM      8  O   UNL d   1      55.205  33.259  54.141  0.00  0.00    -0.217 OA
ATOM      9  C   UNL d   1      53.896  32.885  55.076  0.00  0.00     0.100 A 
ATOM     10  C   UNL d   1      53.402  32.357  54.680  0.00  0.00     0.030 A 
ENDBRANCH   2   4
BRANCH   2  11
ATOM     11  C   UNL d   1      53.810  30.967  53.211  0.00  0.00     0.083 C 
BRANCH  11  12
ATOM     12  C   UNL d   1      53.455  30.269  53.465  0.00  0.00     0.018 A 
ATOM     13  C   UNL d   1      53.696  29.924  54.182  0.00  0.00     0.013 A 
ATOM     14  C   UNL d   1      53.342  29.223  54.439  0.00  0.00     0.058 A 
ATOM     15 CL   UNL d   1      53.576  28.880  55.144  0.00  0.00    -0.082 Cl
ATOM     16  C   UNL d   1      52.751  28.869  53.983  0.00  0.00     0.011 A 
ATOM     17  C   UNL d   1      52.514  29.217  53.270  0.00  0.00     0.001 A 
ATOM     18  C   UNL d   1      52.864  29.912  53.013  0.00  0.00     0.002 A 
ENDBRANCH  11  12
ENDBRANCH   2  11
BRANCH   1  19
ATOM     19  C   UNL d   1      52.405  32.635  53.077  0.00  0.00     0.058 A 
ATOM     20  C   UNL d   1      52.567  33.283  52.591  0.00  0.00     0.029 A 
ATOM     21  C   UNL d   1      52.205  34.001  52.738  0.00  0.00     0.137 A 
ATOM     22  C   UNL d   1      51.682  34.074  53.369  0.00  0.00     0.080 A 
ATOM     23  C   UNL d   1      51.521  33.426  53.854  0.00  0.00     0.013 A 
ATOM     24 CL   UNL d   1      51.318  34.803  53.513  0.00  0.00    -0.081 Cl
ATOM     25  C   UNL d   1      51.883  32.708  53.707  0.00  0.00     0.006 A 
BRANCH  21  26
ATOM     26  N   UNL d   1      52.366  34.649  52.252  0.00  0.00    -0.113 N 
ATOM     27  O   UNL d   1      52.886  35.226  52.505  0.00  0.00    -0.532 OA
ATOM     28  O   UNL d   1      52.001  34.705  51.518  0.00  0.00    -0.532 OA
ENDBRANCH  21  26
ENDBRANCH   1  19
TORSDOF 5
ENDMDL
MODEL 2
REMARK VINA RESULT:      -9.1      0.931      1.057
REMARK  5 active torsions:
REMARK  status: ('A' for Active; 'I' for Inactive)
REMARK    1  A    between atoms: N_2  and  C_3 
REMARK       I    between atoms: C_4  and  N_5 
REMARK    2  A    between atoms: C_8  and  C_4 
REMARK    3  A    between atoms: N_5  and  C_9 
REMARK    4  A    between atoms: C_14  and  N_5 
REMARK    5  A    between atoms: C_20  and  C_14 
ROOT
ATOM      1  C   UNL d   1      53.067  32.194  52.839  0.00  0.00     0.265 C 
ATOM      2  N   UNL d   1      53.617  31.928  53.395  0.00  0.00    -0.273 N 
ATOM      3  O   UNL d   1      52.866  31.710  52.197  0.00  0.00    -0.267 OA
ENDROOT
BRANCH   2   4
ATOM      4  C   UNL d   1      53.826  32.400  54.039  0.00  0.00     0.079 A 
ATOM      5  C   UNL d   1      54.540  32.801  54.125  0.00  0.00     0.116 A 
ATOM      6  S   UNL d   1      54.518  33.204  54.848  0.00  0.00     0.213 S 
ATOM      7  O   UNL d   1      54.680  33.664  55.511  0.00  0.00    -0.217 OA
ATOM      8  O   UNL d   1      55.257  33.395  54.542  0.00  0.00    -0.217 OA
ATOM      9  C   UNL d   1      53.786  33.046  55.204  0.00  0.00     0.100 A 
ATOM     10  C   UNL d   1      53.357  32.549  54.706  0.00  0.00     0.030 A 
ENDBRANCH   2   4
BRANCH   2  11
ATOM     11  C   UNL d   1      53.966  31.174  53.306  0.00  0.00     0.083 C 
BRANCH  11  12
ATOM     12  C   UNL d   1      53.535  30.499  53.495  0.00  0.00     0.018 A 
ATOM     13  C   UNL d   1      53.708  30.084  54.193  0.00  0.00     0.013 A 
ATOM     14  C   UNL d   1      53.276  29.405  54.385  0.00  0.00     0.058 A 
ATOM     15 CL   UNL d   1      53.444  28.993  55.072  0.00  0.00    -0.082 Cl
ATOM     16  C   UNL d   1      52.676  29.144  53.881  0.00  0.00     0.011 A 
ATOM     17  C   UNL d   1      52.508  29.560  53.186  0.00  0.00     0.001 A 
ATOM     18  C   UNL d   1      52.934  30.234  52.994  0.00  0.00     0.002 A 
ENDBRANCH  11  12
ENDBRANCH   2  11
BRANCH   1  19
ATOM     19  C   UNL d   1      52.726  32.932  52.927  0.00  0.00     0.058 A 
ATOM     20  C   UNL d   1      51.923  32.992  53.112  0.00  0.00     0.029 A 
ATOM     21  C   UNL d   1      51.581  33.729  53.201  0.00  0.00     0.137 A 
ATOM     22  C   UNL d   1      52.038  34.406  53.106  0.00  0.00     0.080 A 
ATOM     23  C   UNL d   1      52.840  34.346  52.921  0.00  0.00     0.013 A 
ATOM     24 CL   UNL d   1      51.687  35.150  53.196  0.00  0.00    -0.081 Cl
ATOM     25  C   UNL d   1      53.182  33.608  52.832  0.00  0.00     0.006 A 
BRANCH  21  26
ATOM     26  N   UNL d   1      50.778  33.789  53.386  0.00  0.00    -0.113 N 
ATOM     27  O   UNL d   1      50.531  33.681  54.156  0.00  0.00    -0.532 OA
ATOM     28  O   UNL d   1      50.237  33.958  52.791  0.00  0.00    -0.532 OA
ENDBRANCH  21  26
ENDBRANCH   1  19
TORSDOF 5
ENDMDL
MODEL 3
REMARK VINA RESULT:      -8.0      1.417      4.037
REMARK  5 active torsions:
REMARK  status: ('A' for Active; 'I' for Inactive)
REMARK    1  A    between atoms: N_2  and  C_3 
REMARK       I    between atoms: C_4  and  N_5 
REMARK    2  A    between atoms: C_8  and  C_4 
REMARK    3  A    between atoms: N_5  and  C_9 
REMARK    4  A    between atoms: C_14  and  N_5 
REMARK    5  A    between atoms: C_20  and  C_14 
ROOT
ATOM      1  C   UNL d   1      52.130  32.050  53.474  0.00  0.00     0.265 C 
ATOM      2  N   UNL d   1      52.424  32.784  53.715  0.00  0.00    -0.273 N 
ATOM      3  O   UNL d   1      51.323  31.967  53.305  0.00  0.00    -0.267 OA
ENDROOT
BRANCH   2   4
ATOM      4  C   UNL d   1      53.225  32.880  53.886  0.00  0.00     0.079 A 
ATOM      5  C   UNL d   1      53.541  33.006  54.637  0.00  0.00     0.116 A 
ATOM      6  S   UNL d   1      54.363  33.073  54.557  0.00  0.00     0.213 S 
ATOM      7  O   UNL d   1      55.172  33.163  54.677  0.00  0.00    -0.217 OA
ATOM      8  O   UNL d   1      54.238  33.165  55.365  0.00  0.00    -0.217 OA
ATOM      9  C   UNL d   1      54.548  32.987  53.753  0.00  0.00     0.100 A 
ATOM     10  C   UNL d   1      53.846  32.868  53.337  0.00  0.00     0.030 A 
ENDBRANCH   2   4
BRANCH   2  11
ATOM     11  C   UNL d   1      51.906  33.436  53.786  0.00  0.00     0.083 C 
BRANCH  11  12
ATOM     12  C   UNL d   1      51.596  33.788  53.110  0.00  0.00     0.018 A 
ATOM     13  C   UNL d   1      50.774  33.885  53.038  0.00  0.00     0.013 A 
ATOM     14  C   UNL d   1      50.460  34.238  52.359  0.00  0.00     0.058 A 
ATOM     15 CL   UNL d   1      49.652  34.335  52.284  0.00  0.00    -0.082 Cl
ATOM     16  C   UNL d   1      50.966  34.493  51.757  0.00  0.00     0.011 A 
ATOM     17  C   UNL d   1      51.784  34.395  51.834  0.00  0.00     0.001 A 
ATOM     18  C   UNL d   1      52.097  34.045  52.506  0.00  0.00     0.002 A 
ENDBRANCH  11  12
ENDBRANCH   2  11
BRANCH   1  19
ATOM     19  C   UNL d   1      52.638  31.414  53.405  0.00  0.00     0.058 A 
ATOM     20  C   UNL d   1      52.641  30.828  53.987  0.00  0.00     0.029 A 
ATOM     21  C   UNL d   1      53.148  30.191  53.919  0.00  0.00     0.137 A 
ATOM     22  C   UNL d   1      53.652  30.136  53.271  0.00  0.00     0.080 A 
ATOM     23  C   UNL d   1      53.649  30.722  52.689  0.00  0.00     0.013 A 
ATOM     24 CL   UNL d   1      54.164  29.489  53.207  0.00  0.00    -0.081 Cl
ATOM     25  C   UNL d   1      53.141  31.359  52.758  0.00  0.00     0.006 A 
BRANCH  21  26
ATOM     26  N   UNL d   1      53.152  29.605  54.501  0.00  0.00    -0.113 N 
ATOM     27  O   UNL d   1      53.436  29.776  55.246  0.00  0.00    -0.532 OA
ATOM     28  O   UNL d   1      52.868  28.854  54.322  0.00  0.00    -0.532 OA
ENDBRANCH  21  26
ENDBRANCH   1  19
TORSDOF 5
ENDMDL
MODEL 4
REMARK VINA RESULT:      -7.7      1.938      4.146
REMARK  5 active torsions:
REMARK  status: ('A' for Active; 'I' for Inactive)
REMARK    1  A    between atoms: N_2  and  C_3 
REMARK       I    between atoms: C_4  and  N_5 
REMARK    2  A    between atoms: C_8  and  C_4 
REMARK    3  A    between atoms: N_5  and  C_9 
REMARK    4  A    between atoms: C_14  and  N_5 
REMARK    5  A    between atoms: C_20  and  C_14 
ROOT
ATOM      1  C   UNL d   1      52.726  34.311  53.285  0.00  0.00     0.265 C 
ATOM      2  N   UNL d   1      52.283  33.794  52.818  0.00  0.00    -0.273 N 
ATOM      3  O   UNL d   1      52.715  35.123  53.122  0.00  0.00    -0.267 OA
ENDROOT
BRANCH   2   4
ATOM      4  C   UNL d   1      52.285  32.983  52.969  0.00  0.00     0.079 A 
ATOM      5  C   UNL d   1      52.668  32.413  52.513  0.00  0.00     0.116 A 
ATOM      6  S   UNL d   1      52.528  31.675  52.860  0.00  0.00     0.213 S 
ATOM      7  O   UNL d   1      52.501  30.875  53.053  0.00  0.00    -0.217 OA
ATOM      8  O   UNL d   1      52.994  31.496  52.207  0.00  0.00    -0.217 OA
ATOM      9  C   UNL d   1      52.057  31.796  53.532  0.00  0.00     0.100 A 
ATOM     10  C   UNL d   1      51.906  32.604  53.601  0.00  0.00     0.030 A 
ENDBRANCH   2   4
BRANCH   2  11
ATOM     11  C   UNL d   1      51.826  34.093  52.185  0.00  0.00     0.083 C 
BRANCH  11  12
ATOM     12  C   UNL d   1      51.039  34.299  52.310  0.00  0.00     0.018 A 
ATOM     13  C   UNL d   1      50.484  34.186  51.703  0.00  0.00     0.013 A 
ATOM     14  C   UNL d   1      49.692  34.392  51.826  0.00  0.00     0.058 A 
ATOM     15 CL   UNL d   1      49.143  34.283  51.230  0.00  0.00    -0.082 Cl
ATOM     16  C   UNL d   1      49.459  34.709  52.553  0.00  0.00     0.011 A 
ATOM     17  C   UNL d   1      50.015  34.819  53.155  0.00  0.00     0.001 A 
ATOM     18  C   UNL d   1      50.800  34.616  53.035  0.00  0.00     0.002 A 
ENDBRANCH  11  12
ENDBRANCH   2  11
BRANCH   1  19
ATOM     19  C   UNL d   1      53.172  34.017  53.903  0.00  0.00     0.058 A 
ATOM     20  C   UNL d   1      53.989  33.933  53.814  0.00  0.00     0.029 A 
ATOM     21  C   UNL d   1      54.436  33.638  54.432  0.00  0.00     0.137 A 
ATOM     22  C   UNL d   1      54.071  33.428  55.138  0.00  0.00     0.080 A 
ATOM     23  C   UNL d   1      53.255  33.512  55.227  0.00  0.00     0.013 A 
ATOM     24 CL   UNL d   1      54.528  33.130  55.760  0.00  0.00    -0.081 Cl
ATOM     25  C   UNL d   1      52.807  33.806  54.608  0.00  0.00     0.006 A 
BRANCH  21  26
ATOM     26  N   UNL d   1      55.253  33.554  54.343  0.00  0.00    -0.113 N 
ATOM     27  O   UNL d   1      55.549  33.007  53.815  0.00  0.00    -0.532 OA
ATOM     28  O   UNL d   1      55.759  34.023  54.789  0.00  0.00    -0.532 OA
ENDBRANCH  21  26
ENDBRANCH   1  19
TORSDOF 5
ENDMDL
MODEL 5
REMARK VINA RESULT:      -7.6      1.729      2.778
REMARK  5 active torsions:
REMARK  status: ('A' for Active; 'I' for Inactive)
REMARK    1  A    between atoms: N_2  and  C_3 
REMARK       I    between atoms: C_4  and  N_5 
REMARK    2  A    between atoms: C_8  and  C_4 
REMARK    3  A    between atoms: N_5  and  C_9 
REMARK    4  A    between atoms: C_14  and  N_5 
REMARK    5  A    between atoms: C_20  and  C_14 
ROOT
ATOM      1  C   UNL d   1      53.497  33.181  53.140  0.00  0.00     0.265 C 
ATOM      2  N   UNL d   1      52.831  32.759  52.892  0.00  0.00    -0.273 N 
ATOM      3  O   UNL d   1      54.253  32.868  53.010  0.00  0.00    -0.267 OA
ENDROOT
BRANCH   2   4
ATOM      4  C   UNL d   1      52.072  33.059  53.015  0.00  0.00     0.079 A 
ATOM      5  C   UNL d   1      51.606  33.426  52.444  0.00  0.00     0.116 A 
ATOM      6  S   UNL d   1      50.891  33.641  52.801  0.00  0.00     0.213 S 
ATOM      7  O   UNL d   1      50.137  33.925  52.973  0.00  0.00    -0.217 OA
ATOM      8  O   UNL d   1      50.804  33.899  52.025  0.00  0.00    -0.217 OA
ATOM      9  C   UNL d   1      50.922  33.402  53.595  0.00  0.00     0.100 A 
ATOM     10  C   UNL d   1      51.652  33.043  53.729  0.00  0.00     0.030 A 
ENDBRANCH   2   4
BRANCH   2  11
ATOM     11  C   UNL d   1      52.925  32.019  52.514  0.00  0.00     0.083 C 
BRANCH  11  12
ATOM     12  C   UNL d   1      53.040  31.341  52.964  0.00  0.00     0.018 A 
ATOM     13  C   UNL d   1      52.493  30.717  52.913  0.00  0.00     0.013 A 
ATOM     14  C   UNL d   1      52.606  30.034  53.365  0.00  0.00     0.058 A 
ATOM     15 CL   UNL d   1      52.071  29.418  53.317  0.00  0.00    -0.082 Cl
ATOM     16  C   UNL d   1      53.261  29.975  53.865  0.00  0.00     0.011 A 
ATOM     17  C   UNL d   1      53.803  30.600  53.913  0.00  0.00     0.001 A 
ATOM     18  C   UNL d   1      53.693  31.278  53.466  0.00  0.00     0.002 A 
ENDBRANCH  11  12
ENDBRANCH   2  11
BRANCH   1  19
ATOM     19  C   UNL d   1      53.403  33.904  53.510  0.00  0.00     0.058 A 
ATOM     20  C   UNL d   1      53.497  33.960  54.329  0.00  0.00     0.029 A 
ATOM     21  C   UNL d   1      53.403  34.681  54.700  0.00  0.00     0.137 A 
ATOM     22  C   UNL d   1      53.216  35.349  54.256  0.00  0.00     0.080 A 
ATOM     23  C   UNL d   1      53.123  35.293  53.438  0.00  0.00     0.013 A 
ATOM     24 CL   UNL d   1      53.123  36.077  54.637  0.00  0.00    -0.081 Cl
ATOM     25  C   UNL d   1      53.216  34.570  53.067  0.00  0.00     0.006 A 
BRANCH  21  26
ATOM     26  N   UNL d   1      53.497  34.737  55.519  0.00  0.00    -0.113 N 
ATOM     27  O   UNL d   1      52.903  35.066  55.973  0.00  0.00    -0.532 OA
ATOM     28  O   UNL d   1      54.187  34.460  55.867  0.00  0.00    -0.532 OA
ENDBRANCH  21  26
ENDBRANCH   1  19
TORSDOF 5
ENDMDL
MODEL 6
REMARK VINA RESULT:      -7.2      2.279      4.240
REMARK  5 active torsions:
REMARK  status: ('A' for Active; 'I' for Inactive)
REMARK    1  A    between atoms: N_2  and  C_3 
REMARK       I    between atoms: C_4  and  N_5 
REMARK    2  A    between atoms: C_8  and  C_4 
REMARK    3  A    between atoms: N_5  and  C_9 
REMARK    4  A    between atoms: C_14  and  N_5 
REMARK    5  A    between atoms: C_20  and  C_14 
ROOT
ATOM      1  C   UNL d   1      51.988  33.175  53.587  0.00  0.00     0.265 C 
ATOM      2  N   UNL d   1      51.691  33.944  53.630  0.00  0.00    -0.273 N 
ATOM      3  O   UNL d   1      51.466  32.538  53.498  0.00  0.00    -0.267 OA
ENDROOT
BRANCH   2   4
ATOM      4  C   UNL d   1      52.200  34.588  53.718  0.00  0.00     0.079 A 
ATOM      5  C   UNL d   1      52.268  35.053  54.395  0.00  0.00     0.116 A 
ATOM      6  S   UNL d   1      52.839  35.634  54.246  0.00  0.00     0.213 S 
ATOM      7  O   UNL d   1      53.363  36.267  54.286  0.00  0.00    -0.217 OA
ATOM      8  O   UNL d   1      52.599  35.792  55.017  0.00  0.00    -0.217 OA
ATOM      9  C   UNL d   1      53.120  35.521  53.474  0.00  0.00     0.100 A 
ATOM     10  C   UNL d   1      52.726  34.875  53.146  0.00  0.00     0.030 A 
ENDBRANCH   2   4
BRANCH   2  11
ATOM     11  C   UNL d   1      50.866  34.075  53.584  0.00  0.00     0.083 C 
BRANCH  11  12
ATOM     12  C   UNL d   1      50.514  34.206  52.852  0.00  0.00     0.018 A 
ATOM     13  C   UNL d   1      49.809  34.643  52.809  0.00  0.00     0.013 A 
ATOM     14  C   UNL d   1      49.452  34.776  52.074  0.00  0.00     0.058 A 
ATOM     15 CL   UNL d   1      48.758  35.206  52.028  0.00  0.00    -0.082 Cl
ATOM     16  C   UNL d   1      49.799  34.474  51.388  0.00  0.00     0.011 A 
ATOM     17  C   UNL d   1      50.502  34.040  51.436  0.00  0.00     0.001 A 
ATOM     18  C   UNL d   1      50.857  33.906  52.163  0.00  0.00     0.002 A 
ENDBRANCH  11  12
ENDBRANCH   2  11
BRANCH   1  19
ATOM     19  C   UNL d   1      52.794  33.049  53.632  0.00  0.00     0.058 A 
ATOM     20  C   UNL d   1      53.147  32.914  54.367  0.00  0.00     0.029 A 
ATOM     21  C   UNL d   1      53.953  32.789  54.414  0.00  0.00     0.137 A 
ATOM     22  C   UNL d   1      54.409  32.797  53.729  0.00  0.00     0.080 A 
ATOM     23  C   UNL d   1      54.057  32.931  52.995  0.00  0.00     0.013 A 
ATOM     24 CL   UNL d   1      55.224  32.669  53.782  0.00  0.00    -0.081 Cl
ATOM     25  C   UNL d   1      53.250  33.057  52.949  0.00  0.00     0.006 A 
BRANCH  21  26
ATOM     26  N   UNL d   1      54.305  32.654  55.148  0.00  0.00    -0.113 N 
ATOM     27  O   UNL d   1      54.883  33.163  55.420  0.00  0.00    -0.532 OA
ATOM     28  O   UNL d   1      54.069  32.008  55.598  0.00  0.00    -0.532 OA
ENDBRANCH  21  26
ENDBRANCH   1  19
TORSDOF 5
ENDMDL
MODEL 7
REMARK VINA RESULT:      -6.5      2.110      3.344
REMARK  5 active torsions:
REMARK  status: ('A' for Active; 'I' for Inactive)
REMARK    1  A    between atoms: N_2  and  C_3 
REMARK       I    between atoms: C_4  and  N_5 
REMARK    2  A    between atoms: C_8  and  C_4 
REMARK    3  A    between atoms: N_5  and  C_9 
REMARK    4  A    between atoms: C_14  and  N_5 
REMARK    5  A    between atoms: C_20  and  C_14 
ROOT
ATOM      1  C   UNL d   1      52.541  33.840  54.059  0.00  0.00     0.265 C 
ATOM      2  N   UNL d   1      52.897  33.102  54.161  0.00  0.00    -0.273 N 
ATOM      3  O   UNL d   1      52.624  34.420  54.646  0.00  0.00    -0.267 OA
ENDROOT
BRANCH   2   4
ATOM      4  C   UNL d   1      52.822  32.516  53.585  0.00  0.00     0.079 A 
ATOM      5  C   UNL d   1      52.407  31.810  53.673  0.00  0.00     0.116 A 
ATOM      6  S   UNL d   1      52.475  31.386  52.965  0.00  0.00     0.213 S 
ATOM      7  O   UNL d   1      52.430  30.831  52.359  0.00  0.00    -0.217 OA
ATOM      8  O   UNL d   1      52.015  30.897  53.439  0.00  0.00    -0.217 OA
ATOM      9  C   UNL d   1      52.935  31.838  52.442  0.00  0.00     0.100 A 
ATOM     10  C   UNL d   1      53.150  32.536  52.824  0.00  0.00     0.030 A 
ENDBRANCH   2   4
BRANCH   2  11
ATOM     11  C   UNL d   1      53.338  32.944  54.854  0.00  0.00     0.083 C 
BRANCH  11  12
ATOM     12  C   UNL d   1      54.082  33.281  54.950  0.00  0.00     0.018 A 
ATOM     13  C   UNL d   1      54.639  33.229  54.336  0.00  0.00     0.013 A 
ATOM     14  C   UNL d   1      55.388  33.567  54.430  0.00  0.00     0.058 A 
ATOM     15 CL   UNL d   1      55.938  33.517  53.828  0.00  0.00    -0.082 Cl
ATOM     16  C   UNL d   1      55.578  33.955  55.134  0.00  0.00     0.011 A 
ATOM     17  C   UNL d   1      55.020  34.004  55.744  0.00  0.00     0.001 A 
ATOM     18  C   UNL d   1      54.277  33.670  55.652  0.00  0.00     0.002 A 
ENDBRANCH  11  12
ENDBRANCH   2  11
BRANCH   1  19
ATOM     19  C   UNL d   1      52.110  33.992  53.381  0.00  0.00     0.058 A 
ATOM     20  C   UNL d   1      51.285  33.975  53.408  0.00  0.00     0.029 A 
ATOM     21  C   UNL d   1      50.854  34.127  52.731  0.00  0.00     0.137 A 
ATOM     22  C   UNL d   1      51.244  34.296  52.026  0.00  0.00     0.080 A 
ATOM     23  C   UNL d   1      52.068  34.313  52.000  0.00  0.00     0.013 A 
ATOM     24 CL   UNL d   1      50.802  34.449  51.344  0.00  0.00    -0.081 Cl
ATOM     25  C   UNL d   1      52.499  34.161  52.678  0.00  0.00     0.006 A 
BRANCH  21  26
ATOM     26  N   UNL d   1      50.028  34.110  52.758  0.00  0.00    -0.113 N 
ATOM     27  O   UNL d   1      49.630  33.425  52.561  0.00  0.00    -0.532 OA
ATOM     28  O   UNL d   1      49.616  34.785  52.983  0.00  0.00    -0.532 OA
ENDBRANCH  21  26
ENDBRANCH   1  19
TORSDOF 5
ENDMDL
