MODEL 1
REMARK VINA RESULT:      46.4      0.000      0.000
REMARK  4 active torsions:
REMARK  status: ('A' for Active; 'I' for Inactive)
REMARK       I    between atoms: N_3  and  C_1 
REMARK    1  A    between atoms: C_13  and  C_1 
REMARK    2  A    between atoms: C_2  and  N_5 
REMARK    3  A    between atoms: C_14  and  N_3 
REMARK    4  A    between atoms: C_4  and  C_14 
REMARK       I    between atoms: N_5  and  C_4 
ROOT
ATOM      1  C   UNL d   1     -55.328-102.241 -42.081  0.00  0.00     0.299 C 
ATOM      2  N   UNL d   1     -54.787-101.622 -42.026  0.00  0.00    -0.207 NA
ATOM      3  O   UNL d   1     -55.887-102.259 -42.688  0.00  0.00    -0.263 OA
ENDROOT
BRANCH   1   4
ATOM      4  C   UNL d   1     -55.310-102.848 -41.524  0.00  0.00     0.165 C 
BRANCH   4   5
ATOM      5  N   UNL d   1     -55.097-102.683 -40.741  0.00  0.00    -0.201 NA
ATOM      6  C   UNL d   1     -55.690-102.639 -40.166  0.00  0.00     0.279 C 
ATOM      7  O   UNL d   1     -56.480-102.758 -40.373  0.00  0.00    -0.265 OA
BRANCH   6   8
ATOM      8  C   UNL d   1     -55.486-102.473 -39.378  0.00  0.00     0.058 A 
ATOM      9  C   UNL d   1     -54.906-101.913 -39.210  0.00  0.00     0.005 A 
ATOM     10  C   UNL d   1     -54.712-101.756 -38.433  0.00  0.00     0.000 A 
ATOM     11  C   UNL d   1     -55.092-102.154 -37.819  0.00  0.00     0.000 A 
ATOM     12  C   UNL d   1     -55.667-102.710 -37.981  0.00  0.00     0.000 A 
ATOM     13  C   UNL d   1     -55.866-102.872 -38.764  0.00  0.00     0.005 A 
ENDBRANCH   6   8
ENDBRANCH   4   5
ENDBRANCH   1   4
BRANCH   2  14
ATOM     14  C   UNL d   1     -54.808-101.014 -42.587  0.00  0.00     0.086 A 
ATOM     15  C   UNL d   1     -54.753-100.227 -42.344  0.00  0.00     0.031 A 
ATOM     16  C   UNL d   1     -54.775 -99.631 -42.913  0.00  0.00     0.060 A 
ATOM     17 CL   UNL d   1     -54.718 -98.897 -42.626  0.00  0.00    -0.082 Cl
ATOM     18  C   UNL d   1     -54.851 -99.811 -43.713  0.00  0.00     0.023 A 
ATOM     19  C   UNL d   1     -54.906-100.605 -43.948  0.00  0.00     0.060 A 
ATOM     20  C   UNL d   1     -54.885-101.208 -43.386  0.00  0.00     0.031 A 
ATOM     21 CL   UNL d   1     -54.983-100.793 -44.751  0.00  0.00    -0.082 Cl
ENDBRANCH   2  14
TORSDOF 4
ENDMDL
MODEL 2
REMARK VINA RESULT:      46.7      0.965      1.686
REMARK  4 active torsions:
REMARK  status: ('A' for Active; 'I' for Inactive)
REMARK       I    between atoms: N_3  and  C_1 
REMARK    1  A    between atoms: C_13  and  C_1 
REMARK    2  A    between atoms: C_2  and  N_5 
REMARK    3  A    between atoms: C_14  and  N_3 
REMARK    4  A    between atoms: C_4  and  C_14 
REMARK       I    between atoms: N_5  and  C_4 
ROOT
ATOM      1  C   UNL d   1     -55.466-101.644 -42.701  0.00  0.00     0.299 C 
ATOM      2  N   UNL d   1     -55.880-101.479 -43.393  0.00  0.00    -0.207 NA
ATOM      3  O   UNL d   1     -54.726-101.309 -42.561  0.00  0.00    -0.263 OA
ENDROOT
BRANCH   1   4
ATOM      4  C   UNL d   1     -55.796-102.152 -42.140  0.00  0.00     0.165 C 
BRANCH   4   5
ATOM      5  N   UNL d   1     -55.515-102.143 -41.361  0.00  0.00    -0.201 NA
ATOM      6  C   UNL d   1     -55.968-102.501 -40.769  0.00  0.00     0.279 C 
ATOM      7  O   UNL d   1     -56.688-102.859 -40.955  0.00  0.00    -0.265 OA
BRANCH   6   8
ATOM      8  C   UNL d   1     -55.694-102.498 -39.984  0.00  0.00     0.058 A 
ATOM      9  C   UNL d   1     -56.129-102.874 -39.394  0.00  0.00     0.005 A 
ATOM     10  C   UNL d   1     -55.853-102.866 -38.625  0.00  0.00     0.000 A 
ATOM     11  C   UNL d   1     -55.145-102.486 -38.440  0.00  0.00     0.000 A 
ATOM     12  C   UNL d   1     -54.712-102.113 -39.022  0.00  0.00     0.000 A 
ATOM     13  C   UNL d   1     -54.986-102.118 -39.799  0.00  0.00     0.005 A 
ENDBRANCH   6   8
ENDBRANCH   4   5
ENDBRANCH   1   4
BRANCH   2  14
ATOM     14  C   UNL d   1     -55.546-100.969 -43.953  0.00  0.00     0.086 A 
ATOM     15  C   UNL d   1     -55.282-101.268 -44.676  0.00  0.00     0.031 A 
ATOM     16  C   UNL d   1     -54.951-100.750 -45.225  0.00  0.00     0.060 A 
ATOM     17 CL   UNL d   1     -54.716-101.088 -45.899  0.00  0.00    -0.082 Cl
ATOM     18  C   UNL d   1     -54.881 -99.946 -45.062  0.00  0.00     0.023 A 
ATOM     19  C   UNL d   1     -55.149 -99.654 -44.332  0.00  0.00     0.060 A 
ATOM     20  C   UNL d   1     -55.482-100.165 -43.777  0.00  0.00     0.031 A 
ATOM     21 CL   UNL d   1     -55.082 -98.847 -44.160  0.00  0.00    -0.082 Cl
ENDBRANCH   2  14
TORSDOF 4
ENDMDL
