MODEL 1
REMARK VINA RESULT:      -3.5      0.000      0.000
REMARK  4 active torsions:
REMARK  status: ('A' for Active; 'I' for Inactive)
REMARK    1  A    between atoms: C_10  and  C_3 
REMARK    2  A    between atoms: S_8  and  C_4 
REMARK       I    between atoms: N_6  and  C_7 
REMARK    3  A    between atoms: C_7  and  C_9 
REMARK    4  A    between atoms: C_9  and  S_8 
ROOT
ATOM      1  O   UNL d   1      32.860  20.046 -22.693  0.00  0.00    -0.263 OA
ATOM      2  N   UNL d   1      33.196  19.594 -21.484  0.00  0.00    -0.120 NA
ATOM      3  C   UNL d   1      32.963  20.258 -21.901  0.00  0.00     0.205 A 
ATOM      4  C   UNL d   1      33.032  19.244 -22.763  0.00  0.00     0.236 A 
ATOM      5  N   UNL d   1      33.239  18.962 -22.019  0.00  0.00    -0.114 NA
ENDROOT
BRANCH   4   6
ATOM      6  S   UNL d   1      33.001  18.797 -23.464  0.00  0.00    -0.036 SA
BRANCH   6   7
ATOM      7  C   UNL d   1      32.491  18.149 -23.517  0.00  0.00     0.100 C 
BRANCH   7   8
ATOM      8  C   UNL d   1      32.386  17.749 -24.231  0.00  0.00     0.272 C 
ATOM      9  N   UNL d   1      31.886  17.099 -24.273  0.00  0.00    -0.272 N 
ATOM     10  C   UNL d   1      31.482  16.836 -23.600  0.00  0.00     0.083 A 
ATOM     11  C   UNL d   1      31.789  16.705 -25.000  0.00  0.00     0.083 A 
ATOM     12  C   UNL d   1      30.982  16.180 -23.655  0.00  0.00     0.019 A 
ATOM     13  C   UNL d   1      30.886  15.791 -24.369  0.00  0.00     0.003 A 
ATOM     14  C   UNL d   1      31.283  16.047 -25.039  0.00  0.00     0.019 A 
ATOM     15  O   UNL d   1      32.789  18.012 -24.904  0.00  0.00    -0.266 OA
ENDBRANCH   7   8
ENDBRANCH   6   7
ENDBRANCH   4   6
BRANCH   3  16
ATOM     16  C   UNL d   1      32.842  21.017 -21.619  0.00  0.00     0.043 A 
ATOM     17  C   UNL d   1      32.347  21.135 -20.969  0.00  0.00     0.004 A 
ATOM     18  C   UNL d   1      32.221  21.896 -20.679  0.00  0.00     0.000 A 
ATOM     19  C   UNL d   1      32.597  22.537 -21.049  0.00  0.00     0.000 A 
ATOM     20  C   UNL d   1      33.092  22.420 -21.699  0.00  0.00     0.000 A 
ATOM     21  C   UNL d   1      33.207  21.654 -21.976  0.00  0.00     0.004 A 
ENDBRANCH   3  16
TORSDOF 4
ENDMDL
MODEL 2
REMARK VINA RESULT:      -3.4      0.953      1.185
REMARK  4 active torsions:
REMARK  status: ('A' for Active; 'I' for Inactive)
REMARK    1  A    between atoms: C_10  and  C_3 
REMARK    2  A    between atoms: S_8  and  C_4 
REMARK       I    between atoms: N_6  and  C_7 
REMARK    3  A    between atoms: C_7  and  C_9 
REMARK    4  A    between atoms: C_9  and  S_8 
ROOT
ATOM      1  O   UNL d   1      32.940  19.970 -22.012  0.00  0.00    -0.263 OA
ATOM      2  N   UNL d   1      33.125  20.862 -22.987  0.00  0.00    -0.120 NA
ATOM      3  C   UNL d   1      32.941  20.776 -22.193  0.00  0.00     0.205 A 
ATOM      4  C   UNL d   1      33.125  19.557 -22.699  0.00  0.00     0.236 A 
ATOM      5  N   UNL d   1      33.240  20.104 -23.302  0.00  0.00    -0.114 NA
ENDROOT
BRANCH   4   6
ATOM      6  S   UNL d   1      33.185  18.730 -22.772  0.00  0.00    -0.036 SA
BRANCH   6   7
ATOM      7  C   UNL d   1      32.617  18.312 -23.202  0.00  0.00     0.100 C 
BRANCH   7   8
ATOM      8  C   UNL d   1      32.624  17.487 -23.224  0.00  0.00     0.272 C 
ATOM      9  N   UNL d   1      32.026  17.077 -23.610  0.00  0.00    -0.272 N 
ATOM     10  C   UNL d   1      31.409  17.486 -23.981  0.00  0.00     0.083 A 
ATOM     11  C   UNL d   1      32.046  16.245 -23.625  0.00  0.00     0.083 A 
ATOM     12  C   UNL d   1      30.813  17.062 -24.367  0.00  0.00     0.019 A 
ATOM     13  C   UNL d   1      30.831  16.243 -24.382  0.00  0.00     0.003 A 
ATOM     14  C   UNL d   1      31.439  15.834 -24.016  0.00  0.00     0.019 A 
ATOM     15  O   UNL d   1      33.240  17.079 -22.853  0.00  0.00    -0.266 OA
ENDBRANCH   7   8
ENDBRANCH   6   7
ENDBRANCH   4   6
BRANCH   3  16
ATOM     16  C   UNL d   1      32.780  21.362 -21.645  0.00  0.00     0.043 A 
ATOM     17  C   UNL d   1      33.083  22.121 -21.759  0.00  0.00     0.004 A 
ATOM     18  C   UNL d   1      32.924  22.715 -21.211  0.00  0.00     0.000 A 
ATOM     19  C   UNL d   1      32.459  22.539 -20.547  0.00  0.00     0.000 A 
ATOM     20  C   UNL d   1      32.156  21.780 -20.431  0.00  0.00     0.000 A 
ATOM     21  C   UNL d   1      32.323  21.199 -20.988  0.00  0.00     0.004 A 
ENDBRANCH   3  16
TORSDOF 4
ENDMDL
MODEL 3
REMARK VINA RESULT:      -3.2      0.872      1.224
REMARK  4 active torsions:
REMARK  status: ('A' for Active; 'I' for Inactive)
REMARK    1  A    between atoms: C_10  and  C_3 
REMARK    2  A    between atoms: S_8  and  C_4 
REMARK       I    between atoms: N_6  and  C_7 
REMARK    3  A    between atoms: C_7  and  C_9 
REMARK    4  A    between atoms: C_9  and  S_8 
ROOT
ATOM      1  O   UNL d   1      33.004  20.875 -21.915  0.00  0.00    -0.263 OA
ATOM      2  N   UNL d   1      33.101  20.195 -20.771  0.00  0.00    -0.120 NA
ATOM      3  C   UNL d   1      32.969  20.936 -21.092  0.00  0.00     0.205 A 
ATOM      4  C   UNL d   1      33.159  20.088 -22.102  0.00  0.00     0.236 A 
ATOM      5  N   UNL d   1      33.220  19.666 -21.399  0.00  0.00    -0.114 NA
ENDROOT
BRANCH   4   6
ATOM      6  S   UNL d   1      33.241  19.774 -22.869  0.00  0.00    -0.036 SA
BRANCH   6   7
ATOM      7  C   UNL d   1      32.895  19.048 -23.054  0.00  0.00     0.100 C 
BRANCH   7   8
ATOM      8  C   UNL d   1      32.855  18.784 -23.835  0.00  0.00     0.272 C 
ATOM      9  N   UNL d   1      32.462  18.087 -24.019  0.00  0.00    -0.272 N 
ATOM     10  C   UNL d   1      32.100  17.640 -23.424  0.00  0.00     0.083 A 
ATOM     11  C   UNL d   1      32.430  17.833 -24.811  0.00  0.00     0.083 A 
ATOM     12  C   UNL d   1      31.707  16.940 -23.622  0.00  0.00     0.019 A 
ATOM     13  C   UNL d   1      31.675  16.689 -24.400  0.00  0.00     0.003 A 
ATOM     14  C   UNL d   1      32.031  17.127 -24.994  0.00  0.00     0.019 A 
ATOM     15  O   UNL d   1      33.217  19.231 -24.430  0.00  0.00    -0.266 OA
ENDBRANCH   7   8
ENDBRANCH   6   7
ENDBRANCH   4   6
BRANCH   3  16
ATOM     16  C   UNL d   1      32.824  21.640 -20.699  0.00  0.00     0.043 A 
ATOM     17  C   UNL d   1      33.241  21.813 -20.008  0.00  0.00     0.004 A 
ATOM     18  C   UNL d   1      33.099  22.519 -19.607  0.00  0.00     0.000 A 
ATOM     19  C   UNL d   1      32.535  23.048 -19.907  0.00  0.00     0.000 A 
ATOM     20  C   UNL d   1      32.118  22.876 -20.598  0.00  0.00     0.000 A 
ATOM     21  C   UNL d   1      32.271  22.167 -20.986  0.00  0.00     0.004 A 
ENDBRANCH   3  16
TORSDOF 4
ENDMDL
MODEL 4
REMARK VINA RESULT:      -2.3      3.218      4.919
REMARK  4 active torsions:
REMARK  status: ('A' for Active; 'I' for Inactive)
REMARK    1  A    between atoms: C_10  and  C_3 
REMARK    2  A    between atoms: S_8  and  C_4 
REMARK       I    between atoms: N_6  and  C_7 
REMARK    3  A    between atoms: C_7  and  C_9 
REMARK    4  A    between atoms: C_9  and  S_8 
ROOT
ATOM      1  O   UNL d   1      32.967  22.958 -19.094  0.00  0.00    -0.263 OA
ATOM      2  N   UNL d   1      31.839  23.575 -18.737  0.00  0.00    -0.120 NA
ATOM      3  C   UNL d   1      32.512  23.207 -18.451  0.00  0.00     0.205 A 
ATOM      4  C   UNL d   1      32.569  23.174 -19.781  0.00  0.00     0.236 A 
ATOM      5  N   UNL d   1      31.873  23.555 -19.565  0.00  0.00    -0.114 NA
ENDROOT
BRANCH   4   6
ATOM      6  S   UNL d   1      32.827  23.032 -20.560  0.00  0.00    -0.036 SA
BRANCH   6   7
ATOM      7  C   UNL d   1      32.798  22.267 -20.870  0.00  0.00     0.100 C 
BRANCH   7   8
ATOM      8  C   UNL d   1      33.013  22.118 -21.653  0.00  0.00     0.272 C 
ATOM      9  N   UNL d   1      33.010  21.351 -21.946  0.00  0.00    -0.272 N 
ATOM     10  C   UNL d   1      32.792  20.717 -21.460  0.00  0.00     0.083 A 
ATOM     11  C   UNL d   1      33.230  21.215 -22.738  0.00  0.00     0.083 A 
ATOM     12  C   UNL d   1      32.794  19.949 -21.766  0.00  0.00     0.019 A 
ATOM     13  C   UNL d   1      33.009  19.815 -22.545  0.00  0.00     0.003 A 
ATOM     14  C   UNL d   1      33.226  20.438 -23.030  0.00  0.00     0.019 A 
ATOM     15  O   UNL d   1      33.231  22.752 -22.139  0.00  0.00    -0.266 OA
ENDBRANCH   7   8
ENDBRANCH   6   7
ENDBRANCH   4   6
BRANCH   3  16
ATOM     16  C   UNL d   1      32.731  23.089 -17.671  0.00  0.00     0.043 A 
ATOM     17  C   UNL d   1      32.991  22.343 -17.430  0.00  0.00     0.004 A 
ATOM     18  C   UNL d   1      33.213  22.217 -16.646  0.00  0.00     0.000 A 
ATOM     19  C   UNL d   1      33.172  22.848 -16.108  0.00  0.00     0.000 A 
ATOM     20  C   UNL d   1      32.913  23.593 -16.348  0.00  0.00     0.000 A 
ATOM     21  C   UNL d   1      32.695  23.702 -17.134  0.00  0.00     0.004 A 
ENDBRANCH   3  16
TORSDOF 4
ENDMDL
MODEL 5
REMARK VINA RESULT:      -2.2      1.673      5.063
REMARK  4 active torsions:
REMARK  status: ('A' for Active; 'I' for Inactive)
REMARK    1  A    between atoms: C_10  and  C_3 
REMARK    2  A    between atoms: S_8  and  C_4 
REMARK       I    between atoms: N_6  and  C_7 
REMARK    3  A    between atoms: C_7  and  C_9 
REMARK    4  A    between atoms: C_9  and  S_8 
ROOT
ATOM      1  O   UNL d   1      30.677  17.017 -24.403  0.00  0.00    -0.263 OA
ATOM      2  N   UNL d   1      30.858  15.712 -24.613  0.00  0.00    -0.120 NA
ATOM      3  C   UNL d   1      30.331  16.270 -24.329  0.00  0.00     0.205 A 
ATOM      4  C   UNL d   1      31.423  16.916 -24.736  0.00  0.00     0.236 A 
ATOM      5  N   UNL d   1      31.538  16.112 -24.867  0.00  0.00    -0.114 NA
ENDROOT
BRANCH   4   6
ATOM      6  S   UNL d   1      31.967  17.522 -24.911  0.00  0.00    -0.036 SA
BRANCH   6   7
ATOM      7  C   UNL d   1      32.398  17.875 -24.301  0.00  0.00     0.100 C 
BRANCH   7   8
ATOM      8  C   UNL d   1      32.616  18.670 -24.342  0.00  0.00     0.272 C 
ATOM      9  N   UNL d   1      32.819  19.081 -23.660  0.00  0.00    -0.272 N 
ATOM     10  C   UNL d   1      32.807  18.703 -22.924  0.00  0.00     0.083 A 
ATOM     11  C   UNL d   1      33.037  19.882 -23.716  0.00  0.00     0.083 A 
ATOM     12  C   UNL d   1      33.013  19.127 -22.244  0.00  0.00     0.019 A 
ATOM     13  C   UNL d   1      33.227  19.915 -22.298  0.00  0.00     0.003 A 
ATOM     14  C   UNL d   1      33.241  20.294 -23.024  0.00  0.00     0.019 A 
ATOM     15  O   UNL d   1      32.628  19.048 -25.078  0.00  0.00    -0.266 OA
ENDBRANCH   7   8
ENDBRANCH   6   7
ENDBRANCH   4   6
BRANCH   3  16
ATOM     16  C   UNL d   1      29.584  16.149 -24.017  0.00  0.00     0.043 A 
ATOM     17  C   UNL d   1      28.947  16.585 -24.308  0.00  0.00     0.004 A 
ATOM     18  C   UNL d   1      28.191  16.467 -23.999  0.00  0.00     0.000 A 
ATOM     19  C   UNL d   1      28.084  15.908 -23.395  0.00  0.00     0.000 A 
ATOM     20  C   UNL d   1      28.721  15.472 -23.104  0.00  0.00     0.000 A 
ATOM     21  C   UNL d   1      29.468  15.601 -23.423  0.00  0.00     0.004 A 
ENDBRANCH   3  16
TORSDOF 4
ENDMDL
MODEL 6
REMARK VINA RESULT:      -0.7      2.385      3.737
REMARK  4 active torsions:
REMARK  status: ('A' for Active; 'I' for Inactive)
REMARK    1  A    between atoms: C_10  and  C_3 
REMARK    2  A    between atoms: S_8  and  C_4 
REMARK       I    between atoms: N_6  and  C_7 
REMARK    3  A    between atoms: C_7  and  C_9 
REMARK    4  A    between atoms: C_9  and  S_8 
ROOT
ATOM      1  O   UNL d   1      31.480  17.047 -24.107  0.00  0.00    -0.263 OA
ATOM      2  N   UNL d   1      32.615  16.521 -23.644  0.00  0.00    -0.120 NA
ATOM      3  C   UNL d   1      32.219  17.224 -23.783  0.00  0.00     0.205 A 
ATOM      4  C   UNL d   1      31.421  16.228 -24.168  0.00  0.00     0.236 A 
ATOM      5  N   UNL d   1      32.120  15.901 -23.883  0.00  0.00    -0.114 NA
ENDROOT
BRANCH   4   6
ATOM      6  S   UNL d   1      30.769  15.805 -24.465  0.00  0.00    -0.036 SA
BRANCH   6   7
ATOM      7  C   UNL d   1      30.148  15.599 -23.961  0.00  0.00     0.100 C 
BRANCH   7   8
ATOM      8  C   UNL d   1      29.375  15.539 -24.244  0.00  0.00     0.272 C 
ATOM      9  N   UNL d   1      28.739  15.566 -23.724  0.00  0.00    -0.272 N 
ATOM     10  C   UNL d   1      28.866  15.653 -22.911  0.00  0.00     0.083 A 
ATOM     11  C   UNL d   1      27.965  15.504 -24.023  0.00  0.00     0.083 A 
ATOM     12  C   UNL d   1      28.218  15.678 -22.397  0.00  0.00     0.019 A 
ATOM     13  C   UNL d   1      27.456  15.618 -22.690  0.00  0.00     0.003 A 
ATOM     14  C   UNL d   1      27.324  15.531 -23.494  0.00  0.00     0.019 A 
ATOM     15  O   UNL d   1      29.248  15.453 -25.057  0.00  0.00    -0.266 OA
ENDBRANCH   7   8
ENDBRANCH   6   7
ENDBRANCH   4   6
BRANCH   3  16
ATOM     16  C   UNL d   1      32.477  17.987 -23.640  0.00  0.00     0.043 A 
ATOM     17  C   UNL d   1      32.453  18.287 -22.872  0.00  0.00     0.004 A 
ATOM     18  C   UNL d   1      32.711  19.056 -22.720  0.00  0.00     0.000 A 
ATOM     19  C   UNL d   1      32.995  19.518 -23.349  0.00  0.00     0.000 A 
ATOM     20  C   UNL d   1      33.020  19.218 -24.117  0.00  0.00     0.000 A 
ATOM     21  C   UNL d   1      32.758  18.450 -24.251  0.00  0.00     0.004 A 
ENDBRANCH   3  16
TORSDOF 4
ENDMDL
