MODEL 1
REMARK VINA RESULT:      32.0      0.000      0.000
REMARK  6 active torsions:
REMARK  status: ('A' for Active; 'I' for Inactive)
REMARK    1  A    between atoms: N_5  and  C_1 
REMARK    2  A    between atoms: N_14  and  C_3 
REMARK    3  A    between atoms: N_9  and  C_20 
REMARK    4  A    between atoms: C_22  and  N_14 
REMARK    5  A    between atoms: C_20  and  C_21 
REMARK    6  A    between atoms: C_21  and  C_22 
ROOT
ATOM      1  C   UNL d   1      44.236 -14.399  44.209  0.00  0.00     0.200 A 
ATOM      2  C   UNL d   1      43.968 -13.709  43.836  0.00  0.00     0.288 A 
ATOM      3  C   UNL d   1      44.973 -14.416  44.584  0.00  0.00     0.109 A 
ATOM      4  N   UNL d   1      44.436 -13.033  43.837  0.00  0.00    -0.270 N 
ATOM      5  C   UNL d   1      45.438 -13.732  44.581  0.00  0.00     0.036 A 
ATOM      6  C   UNL d   1      45.176 -13.043  44.211  0.00  0.00     0.069 A 
ATOM      7  O   UNL d   1      43.234 -13.700  43.465  0.00  0.00    -0.265 OA
ATOM      8  C   UNL d   1      44.173 -12.344  43.467  0.00  0.00     0.102 C 
ATOM      9  C   UNL d   1      46.176 -13.740  44.954  0.00  0.00     0.003 A 
ATOM     10  C   UNL d   1      45.642 -12.363  44.210  0.00  0.00     0.018 A 
ATOM     11  C   UNL d   1      46.644 -13.063  44.954  0.00  0.00     0.000 A 
ATOM     12  C   UNL d   1      46.376 -12.373  44.581  0.00  0.00     0.002 A 
ENDROOT
BRANCH   3  13
ATOM     13  N   UNL d   1      45.239 -15.103  44.955  0.00  0.00    -0.242 NA
BRANCH  13  14
ATOM     14  C   UNL d   1      45.845 -15.546  44.617  0.00  0.00     0.101 C 
BRANCH  14  15
ATOM     15  C   UNL d   1      45.825 -16.372  44.661  0.00  0.00     0.040 C 
BRANCH  15  16
ATOM     16  C   UNL d   1      46.485 -16.811  44.437  0.00  0.00     0.083 C 
BRANCH  16  17
ATOM     17  N   UNL d   1      46.396 -17.601  44.197  0.00  0.00    -0.285 N 
ATOM     18  C   UNL d   1      46.415 -17.875  43.422  0.00  0.00     0.183 A 
ATOM     19  N   UNL d   1      46.305 -18.690  43.442  0.00  0.00    -0.222 NA
ATOM     20  C   UNL d   1      46.218 -18.916  44.229  0.00  0.00     0.120 A 
ATOM     21  C   UNL d   1      46.274 -18.247  44.695  0.00  0.00     0.102 A 
ENDBRANCH  16  17
ENDBRANCH  15  16
ENDBRANCH  14  15
ENDBRANCH  13  14
ENDBRANCH   3  13
BRANCH   1  22
ATOM     22  N   UNL d   1      43.760 -15.076  44.205  0.00  0.00    -0.107 N 
ATOM     23  O   UNL d   1      43.929 -15.702  43.696  0.00  0.00    -0.531 OA
ATOM     24  O   UNL d   1      43.110 -15.122  44.717  0.00  0.00    -0.531 OA
ENDBRANCH   1  22
TORSDOF 6
ENDMDL
