MODEL 1
REMARK VINA RESULT:      -5.4      0.000      0.000
REMARK  7 active torsions:
REMARK  status: ('A' for Active; 'I' for Inactive)
REMARK    1  A    between atoms: C_3  and  S_1 
REMARK    2  A    between atoms: N_4  and  S_1 
REMARK    3  A    between atoms: C_2  and  C_11 
REMARK       I    between atoms: N_5  and  C_2 
REMARK    4  A    between atoms: C_18  and  N_4 
REMARK    5  A    between atoms: C_12  and  N_5 
REMARK    6  A    between atoms: C_22  and  C_18 
REMARK    7  A    between atoms: O_26  and  C_19 
ROOT
ATOM      1  C   UNL d   1     -42.764  13.322  21.207  0.00  0.00     0.058 A 
ATOM      2  C   UNL d   1     -43.420  13.834  21.203  0.00  0.00     0.005 A 
ATOM      3  C   UNL d   1     -42.839  12.561  21.516  0.00  0.00     0.005 A 
ATOM      4  C   UNL d   1     -44.216  12.827  21.814  0.00  0.00     0.020 A 
ATOM      5  C   UNL d   1     -44.140  13.587  21.505  0.00  0.00     0.002 A 
ATOM      6  C   UNL d   1     -43.572  12.312  21.822  0.00  0.00     0.002 A 
ENDROOT
BRANCH   4   7
ATOM      7  C   UNL d   1     -44.944  12.571  22.121  0.00  0.00     0.112 C 
BRANCH   7   8
ATOM      8  N   UNL d   1     -45.430  13.104  22.537  0.00  0.00    -0.157 NA
BRANCH   8   9
ATOM      9  S   UNL d   1     -46.178  12.864  22.811  0.00  0.00     0.285 S 
ATOM     10  O   UNL d   1     -46.495  12.949  22.045  0.00  0.00    -0.198 OA
ATOM     11  O   UNL d   1     -45.867  12.775  23.587  0.00  0.00    -0.198 OA
BRANCH   9  12
ATOM     12  C   UNL d   1     -46.929  12.622  23.092  0.00  0.00     0.107 A 
ATOM     13  C   UNL d   1     -47.577  13.131  23.042  0.00  0.00     0.037 A 
ATOM     14  C   UNL d   1     -48.314  12.895  23.317  0.00  0.00     0.095 A 
ATOM     15  C   UNL d   1     -48.411  12.148  23.645  0.00  0.00     0.024 A 
ATOM     16  C   UNL d   1     -47.763  11.631  23.698  0.00  0.00     0.003 A 
ATOM     17  C   UNL d   1     -47.025  11.867  23.423  0.00  0.00     0.013 A 
BRANCH  14  18
ATOM     18  O   UNL d   1     -48.970  13.406  23.268  0.00  0.00    -0.328 OA
ATOM     19  C   UNL d   1     -49.723  13.111  23.402  0.00  0.00     0.181 C 
ENDBRANCH  14  18
ENDBRANCH   9  12
ENDBRANCH   8   9
ENDBRANCH   7   8
ENDBRANCH   4   7
BRANCH   1  20
ATOM     20  C   UNL d   1     -42.036  13.563  20.905  0.00  0.00     0.279 C 
ATOM     21  N   UNL d   1     -41.574  14.100  21.324  0.00  0.00    -0.208 NA
ATOM     22  O   UNL d   1     -41.765  13.268  20.182  0.00  0.00    -0.265 OA
BRANCH  21  23
ATOM     23  C   UNL d   1     -40.839  14.343  21.018  0.00  0.00     0.086 A 
ATOM     24  C   UNL d   1     -40.142  14.010  21.328  0.00  0.00     0.032 A 
ATOM     25  C   UNL d   1     -39.411  14.256  21.020  0.00  0.00     0.070 A 
ATOM     26 CL   UNL d   1     -38.718  13.928  21.325  0.00  0.00    -0.081 Cl
ATOM     27  C   UNL d   1     -39.383  14.819  20.418  0.00  0.00     0.068 A 
ATOM     28  C   UNL d   1     -40.085  15.142  20.118  0.00  0.00     0.014 A 
ATOM     29 CL   UNL d   1     -38.649  15.058  20.117  0.00  0.00    -0.082 Cl
ATOM     30  C   UNL d   1     -40.810  14.899  20.423  0.00  0.00     0.020 A 
ENDBRANCH  21  23
ENDBRANCH   1  20
TORSDOF 7
ENDMDL
MODEL 2
REMARK VINA RESULT:      -3.9      1.770      2.334
REMARK  7 active torsions:
REMARK  status: ('A' for Active; 'I' for Inactive)
REMARK    1  A    between atoms: C_3  and  S_1 
REMARK    2  A    between atoms: N_4  and  S_1 
REMARK    3  A    between atoms: C_2  and  C_11 
REMARK       I    between atoms: N_5  and  C_2 
REMARK    4  A    between atoms: C_18  and  N_4 
REMARK    5  A    between atoms: C_12  and  N_5 
REMARK    6  A    between atoms: C_22  and  C_18 
REMARK    7  A    between atoms: O_26  and  C_19 
ROOT
ATOM      1  C   UNL d   1     -41.356  13.961  20.280  0.00  0.00     0.058 A 
ATOM      2  C   UNL d   1     -41.745  13.232  20.174  0.00  0.00     0.005 A 
ATOM      3  C   UNL d   1     -41.587  14.464  20.890  0.00  0.00     0.005 A 
ATOM      4  C   UNL d   1     -42.587  13.516  21.285  0.00  0.00     0.020 A 
ATOM      5  C   UNL d   1     -42.356  13.013  20.674  0.00  0.00     0.002 A 
ATOM      6  C   UNL d   1     -42.208  14.240  21.397  0.00  0.00     0.002 A 
ENDROOT
BRANCH   4   7
ATOM      7  C   UNL d   1     -43.205  13.298  21.794  0.00  0.00     0.112 C 
BRANCH   7   8
ATOM      8  N   UNL d   1     -43.908  12.978  21.483  0.00  0.00    -0.157 NA
BRANCH   8   9
ATOM      9  S   UNL d   1     -44.592  12.931  21.953  0.00  0.00     0.285 S 
ATOM     10  O   UNL d   1     -44.828  13.689  21.701  0.00  0.00    -0.198 OA
ATOM     11  O   UNL d   1     -44.363  12.165  22.213  0.00  0.00    -0.198 OA
BRANCH   9  12
ATOM     12  C   UNL d   1     -45.280  12.877  22.429  0.00  0.00     0.107 A 
ATOM     13  C   UNL d   1     -45.796  13.519  22.488  0.00  0.00     0.037 A 
ATOM     14  C   UNL d   1     -46.471  13.468  22.954  0.00  0.00     0.095 A 
ATOM     15  C   UNL d   1     -46.637  12.777  23.365  0.00  0.00     0.024 A 
ATOM     16  C   UNL d   1     -46.120  12.128  23.309  0.00  0.00     0.003 A 
ATOM     17  C   UNL d   1     -45.446  12.179  22.843  0.00  0.00     0.013 A 
BRANCH  14  18
ATOM     18  O   UNL d   1     -46.995  14.114  23.016  0.00  0.00    -0.328 OA
ATOM     19  C   UNL d   1     -47.803  13.979  23.017  0.00  0.00     0.181 C 
ENDBRANCH  14  18
ENDBRANCH   9  12
ENDBRANCH   8   9
ENDBRANCH   7   8
ENDBRANCH   4   7
BRANCH   1  20
ATOM     20  C   UNL d   1     -40.741  14.189  19.781  0.00  0.00     0.279 C 
ATOM     21  N   UNL d   1     -40.843  14.166  18.965  0.00  0.00    -0.208 NA
ATOM     22  O   UNL d   1     -40.020  14.441  20.096  0.00  0.00    -0.265 OA
BRANCH  21  23
ATOM     23  C   UNL d   1     -40.221  14.397  18.462  0.00  0.00     0.086 A 
ATOM     24  C   UNL d   1     -39.739  13.811  18.120  0.00  0.00     0.032 A 
ATOM     25  C   UNL d   1     -39.119  14.046  17.619  0.00  0.00     0.070 A 
ATOM     26 CL   UNL d   1     -38.640  13.468  17.279  0.00  0.00    -0.081 Cl
ATOM     27  C   UNL d   1     -38.990  14.846  17.468  0.00  0.00     0.068 A 
ATOM     28  C   UNL d   1     -39.477  15.419  17.815  0.00  0.00     0.014 A 
ATOM     29 CL   UNL d   1     -38.369  15.071  16.967  0.00  0.00    -0.082 Cl
ATOM     30  C   UNL d   1     -40.092  15.188  18.312  0.00  0.00     0.020 A 
ENDBRANCH  21  23
ENDBRANCH   1  20
TORSDOF 7
ENDMDL
