MODEL 1
REMARK VINA RESULT:      -4.8      0.000      0.000
REMARK  5 active torsions:
REMARK  status: ('A' for Active; 'I' for Inactive)
REMARK    1  A    between atoms: C_5  and  N_1 
REMARK    2  A    between atoms: C_2  and  N_3 
REMARK    3  A    between atoms: C_7  and  C_2 
REMARK    4  A    between atoms: N_4  and  C_8 
REMARK    5  A    between atoms: N_16  and  C_11 
ROOT
ATOM      1  N   UNL d   1      58.167  -0.434  30.029  0.00  0.00    -0.293 N 
ATOM      2  N   UNL d   1      57.356  -0.143  31.428  0.00  0.00    -0.301 N 
ATOM      3  C   UNL d   1      58.182   0.327  30.364  0.00  0.00     0.100 A 
ATOM      4  C   UNL d   1      57.756  -1.038  30.386  0.00  0.00     0.100 A 
ATOM      5  C   UNL d   1      57.344  -0.897  31.093  0.00  0.00     0.100 A 
ATOM      6  C   UNL d   1      57.780   0.470  31.056  0.00  0.00     0.100 A 
ENDROOT
BRANCH   1   7
ATOM      7  C   UNL d   1      58.578  -0.574  29.324  0.00  0.00     0.120 C 
ATOM      8  S   UNL d   1      58.510  -0.048  28.690  0.00  0.00    -0.059 SA
BRANCH   7   9
ATOM      9  C   UNL d   1      59.056  -1.240  29.257  0.00  0.00     0.027 A 
ATOM     10  C   UNL d   1      58.726  -1.970  29.073  0.00  0.00     0.004 A 
ATOM     11  C   UNL d   1      59.204  -2.639  29.005  0.00  0.00     0.018 A 
ATOM     12  C   UNL d   1      60.024  -2.566  29.125  0.00  0.00     0.064 A 
ATOM     13  C   UNL d   1      60.349  -1.832  29.309  0.00  0.00     0.018 A 
ATOM     14  C   UNL d   1      59.870  -1.170  29.376  0.00  0.00     0.004 A 
BRANCH  12  15
ATOM     15  N   UNL d   1      60.502  -3.236  29.057  0.00  0.00    -0.301 N 
ATOM     16  C   UNL d   1      61.131  -3.343  29.585  0.00  0.00     0.100 C 
ATOM     17  C   UNL d   1      60.352  -3.795  28.467  0.00  0.00     0.100 C 
ENDBRANCH  12  15
ENDBRANCH   7   9
ENDBRANCH   1   7
BRANCH   2  18
ATOM     18  C   UNL d   1      56.947   0.001  32.132  0.00  0.00     0.064 A 
ATOM     19  C   UNL d   1      57.247   0.538  32.670  0.00  0.00     0.019 A 
ATOM     20  C   UNL d   1      56.838   0.682  33.374  0.00  0.00     0.025 A 
ATOM     21  C   UNL d   1      56.132   0.284  33.528  0.00  0.00     0.127 A 
ATOM     22  C   UNL d   1      55.830  -0.259  32.982  0.00  0.00     0.025 A 
ATOM     23  C   UNL d   1      56.239  -0.397  32.287  0.00  0.00     0.019 A 
BRANCH  21  24
ATOM     24  N   UNL d   1      55.725   0.427  34.228  0.00  0.00    -0.114 N 
ATOM     25  O   UNL d   1      56.135   0.670  34.905  0.00  0.00    -0.532 OA
ATOM     26  O   UNL d   1      54.907   0.331  34.263  0.00  0.00    -0.532 OA
ENDBRANCH  21  24
ENDBRANCH   2  18
TORSDOF 5
ENDMDL
