MODEL 1
REMARK VINA RESULT:      -7.0      0.000      0.000
REMARK  4 active torsions:
REMARK  status: ('A' for Active; 'I' for Inactive)
REMARK       I    between atoms: C_4  and  N_10 
REMARK    1  A    between atoms: C_7  and  C_4 
REMARK    2  A    between atoms: C_11  and  C_5 
REMARK    3  A    between atoms: N_10  and  C_13 
REMARK    4  A    between atoms: C_13  and  C_11 
ROOT
ATOM      1  C   UNL d   1     -48.673  11.733  22.953  0.00  0.00     0.279 C 
ATOM      2  O   UNL d   1     -48.465  10.990  22.662  0.00  0.00    -0.265 OA
ATOM      3  N   UNL d   1     -48.085  12.266  23.194  0.00  0.00    -0.206 NA
ENDROOT
BRANCH   1   4
ATOM      4  C   UNL d   1     -49.483  11.953  23.008  0.00  0.00     0.058 A 
ATOM      5  C   UNL d   1     -49.823  12.425  22.423  0.00  0.00     0.005 A 
ATOM      6  C   UNL d   1     -50.606  12.640  22.470  0.00  0.00     0.000 A 
ATOM      7  C   UNL d   1     -50.935  13.113  21.879  0.00  0.00     0.000 C 
ATOM      8  C   UNL d   1     -51.062  12.386  23.106  0.00  0.00     0.000 A 
ATOM      9  C   UNL d   1     -50.734  11.916  23.695  0.00  0.00     0.000 A 
ATOM     10  C   UNL d   1     -49.945  11.695  23.654  0.00  0.00     0.005 A 
ENDBRANCH   1   4
BRANCH   3  11
ATOM     11  C   UNL d   1     -47.304  12.056  23.142  0.00  0.00     0.104 C 
BRANCH  11  12
ATOM     12  C   UNL d   1     -46.721  12.554  23.457  0.00  0.00     0.040 C 
BRANCH  12  13
ATOM     13  C   UNL d   1     -46.151  12.871  22.975  0.00  0.00     0.090 A 
ATOM     14  N   UNL d   1     -45.478  12.432  22.774  0.00  0.00    -0.238 NA
ATOM     15  C   UNL d   1     -45.006  12.890  22.286  0.00  0.00     0.111 A 
ATOM     16  S   UNL d   1     -45.375  13.613  22.177  0.00  0.00    -0.066 SA
ATOM     17  C   UNL d   1     -44.271  12.670  21.948  0.00  0.00     0.028 C 
ATOM     18  C   UNL d   1     -46.084  13.607  22.601  0.00  0.00     0.056 A 
ENDBRANCH  12  13
ENDBRANCH  11  12
ENDBRANCH   3  11
TORSDOF 4
ENDMDL
MODEL 2
REMARK VINA RESULT:      -6.9      1.975      2.333
REMARK  4 active torsions:
REMARK  status: ('A' for Active; 'I' for Inactive)
REMARK       I    between atoms: C_4  and  N_10 
REMARK    1  A    between atoms: C_7  and  C_4 
REMARK    2  A    between atoms: C_11  and  C_5 
REMARK    3  A    between atoms: N_10  and  C_13 
REMARK    4  A    between atoms: C_13  and  C_11 
ROOT
ATOM      1  C   UNL d   1     -48.124  13.610  22.231  0.00  0.00     0.279 C 
ATOM      2  O   UNL d   1     -47.837  13.396  21.487  0.00  0.00    -0.265 OA
ATOM      3  N   UNL d   1     -47.775  13.300  22.916  0.00  0.00    -0.206 NA
ENDROOT
BRANCH   1   4
ATOM      4  C   UNL d   1     -48.771  14.142  22.296  0.00  0.00     0.058 A 
ATOM      5  C   UNL d   1     -49.539  13.880  22.146  0.00  0.00     0.005 A 
ATOM      6  C   UNL d   1     -50.169  14.390  22.208  0.00  0.00     0.000 A 
ATOM      7  C   UNL d   1     -50.933  14.115  22.056  0.00  0.00     0.000 C 
ATOM      8  C   UNL d   1     -50.040  15.174  22.421  0.00  0.00     0.000 A 
ATOM      9  C   UNL d   1     -49.280  15.447  22.572  0.00  0.00     0.000 A 
ATOM     10  C   UNL d   1     -48.640  14.938  22.512  0.00  0.00     0.005 A 
ENDBRANCH   1   4
BRANCH   3  11
ATOM     11  C   UNL d   1     -47.151  12.787  22.856  0.00  0.00     0.104 C 
BRANCH  11  12
ATOM     12  C   UNL d   1     -46.739  12.556  23.537  0.00  0.00     0.040 C 
BRANCH  12  13
ATOM     13  C   UNL d   1     -46.356  11.842  23.558  0.00  0.00     0.090 A 
ATOM     14  N   UNL d   1     -45.538  11.798  23.430  0.00  0.00    -0.238 NA
ATOM     15  C   UNL d   1     -45.309  11.014  23.485  0.00  0.00     0.111 A 
ATOM     16  S   UNL d   1     -45.973  10.563  23.647  0.00  0.00    -0.066 SA
ATOM     17  C   UNL d   1     -44.533  10.710  23.395  0.00  0.00     0.028 C 
ATOM     18  C   UNL d   1     -46.624  11.070  23.693  0.00  0.00     0.056 A 
ENDBRANCH  12  13
ENDBRANCH  11  12
ENDBRANCH   3  11
TORSDOF 4
ENDMDL
MODEL 3
REMARK VINA RESULT:      -6.5      2.288      4.706
REMARK  4 active torsions:
REMARK  status: ('A' for Active; 'I' for Inactive)
REMARK       I    between atoms: C_4  and  N_10 
REMARK    1  A    between atoms: C_7  and  C_4 
REMARK    2  A    between atoms: C_11  and  C_5 
REMARK    3  A    between atoms: N_10  and  C_13 
REMARK    4  A    between atoms: C_13  and  C_11 
ROOT
ATOM      1  C   UNL d   1     -47.090  13.750  22.877  0.00  0.00     0.279 C 
ATOM      2  O   UNL d   1     -46.921  14.556  22.933  0.00  0.00    -0.265 OA
ATOM      3  N   UNL d   1     -47.877  13.490  22.858  0.00  0.00    -0.206 NA
ENDROOT
BRANCH   1   4
ATOM      4  C   UNL d   1     -46.464  13.190  22.839  0.00  0.00     0.058 A 
ATOM      5  C   UNL d   1     -45.826  13.317  22.332  0.00  0.00     0.005 A 
ATOM      6  C   UNL d   1     -45.217  12.779  22.292  0.00  0.00     0.000 A 
ATOM      7  C   UNL d   1     -44.584  12.918  21.781  0.00  0.00     0.000 C 
ATOM      8  C   UNL d   1     -45.239  12.102  22.759  0.00  0.00     0.000 A 
ATOM      9  C   UNL d   1     -45.870  11.965  23.268  0.00  0.00     0.000 A 
ATOM     10  C   UNL d   1     -46.486  12.503  23.314  0.00  0.00     0.005 A 
ENDBRANCH   1   4
BRANCH   3  11
ATOM     11  C   UNL d   1     -48.482  14.028  22.894  0.00  0.00     0.104 C 
BRANCH  11  12
ATOM     12  C   UNL d   1     -49.266  13.765  22.951  0.00  0.00     0.040 C 
BRANCH  12  13
ATOM     13  C   UNL d   1     -49.878  14.290  22.876  0.00  0.00     0.090 A 
ATOM     14  N   UNL d   1     -50.056  14.822  23.486  0.00  0.00    -0.238 NA
ATOM     15  C   UNL d   1     -50.695  15.278  23.254  0.00  0.00     0.111 A 
ATOM     16  S   UNL d   1     -50.922  15.040  22.504  0.00  0.00    -0.066 SA
ATOM     17  C   UNL d   1     -51.064  15.887  23.698  0.00  0.00     0.028 C 
ATOM     18  C   UNL d   1     -50.420  14.429  22.264  0.00  0.00     0.056 A 
ENDBRANCH  12  13
ENDBRANCH  11  12
ENDBRANCH   3  11
TORSDOF 4
ENDMDL
MODEL 4
REMARK VINA RESULT:      -6.1      9.244      9.752
REMARK  4 active torsions:
REMARK  status: ('A' for Active; 'I' for Inactive)
REMARK       I    between atoms: C_4  and  N_10 
REMARK    1  A    between atoms: C_7  and  C_4 
REMARK    2  A    between atoms: C_11  and  C_5 
REMARK    3  A    between atoms: N_10  and  C_13 
REMARK    4  A    between atoms: C_13  and  C_11 
ROOT
ATOM      1  C   UNL d   1     -40.112  14.441  18.395  0.00  0.00     0.279 C 
ATOM      2  O   UNL d   1     -40.418  13.675  18.395  0.00  0.00    -0.265 OA
ATOM      3  N   UNL d   1     -39.715  14.732  19.062  0.00  0.00    -0.206 NA
ENDROOT
BRANCH   1   4
ATOM      4  C   UNL d   1     -40.204  14.932  17.718  0.00  0.00     0.058 A 
ATOM      5  C   UNL d   1     -40.954  15.193  17.495  0.00  0.00     0.005 A 
ATOM      6  C   UNL d   1     -41.048  15.668  16.841  0.00  0.00     0.000 A 
ATOM      7  C   UNL d   1     -41.804  15.922  16.628  0.00  0.00     0.000 C 
ATOM      8  C   UNL d   1     -40.391  15.889  16.399  0.00  0.00     0.000 A 
ATOM      9  C   UNL d   1     -39.639  15.635  16.611  0.00  0.00     0.000 A 
ATOM     10  C   UNL d   1     -39.536  15.156  17.269  0.00  0.00     0.005 A 
ENDBRANCH   1   4
BRANCH   3  11
ATOM     11  C   UNL d   1     -39.625  14.261  19.716  0.00  0.00     0.104 C 
BRANCH  11  12
ATOM     12  C   UNL d   1     -39.404  14.597  20.440  0.00  0.00     0.040 C 
BRANCH  12  13
ATOM     13  C   UNL d   1     -39.026  14.149  20.999  0.00  0.00     0.090 A 
ATOM     14  N   UNL d   1     -39.326  14.094  21.770  0.00  0.00    -0.238 NA
ATOM     15  C   UNL d   1     -38.832  13.608  22.206  0.00  0.00     0.111 A 
ATOM     16  S   UNL d   1     -38.224  13.355  21.719  0.00  0.00    -0.066 SA
ATOM     17  C   UNL d   1     -38.921  13.397  23.012  0.00  0.00     0.028 C 
ATOM     18  C   UNL d   1     -38.339  13.687  20.971  0.00  0.00     0.056 A 
ENDBRANCH  12  13
ENDBRANCH  11  12
ENDBRANCH   3  11
TORSDOF 4
ENDMDL
MODEL 5
REMARK VINA RESULT:      -6.0      8.445     10.176
REMARK  4 active torsions:
REMARK  status: ('A' for Active; 'I' for Inactive)
REMARK       I    between atoms: C_4  and  N_10 
REMARK    1  A    between atoms: C_7  and  C_4 
REMARK    2  A    between atoms: C_11  and  C_5 
REMARK    3  A    between atoms: N_10  and  C_13 
REMARK    4  A    between atoms: C_13  and  C_11 
ROOT
ATOM      1  C   UNL d   1     -40.345  14.572  18.590  0.00  0.00     0.279 C 
ATOM      2  O   UNL d   1     -40.970  14.322  18.114  0.00  0.00    -0.265 OA
ATOM      3  N   UNL d   1     -39.569  14.562  18.299  0.00  0.00    -0.206 NA
ENDROOT
BRANCH   1   4
ATOM      4  C   UNL d   1     -40.493  14.838  19.374  0.00  0.00     0.058 A 
ATOM      5  C   UNL d   1     -40.595  14.291  19.984  0.00  0.00     0.005 A 
ATOM      6  C   UNL d   1     -40.739  14.543  20.744  0.00  0.00     0.000 A 
ATOM      7  C   UNL d   1     -40.840  13.986  21.345  0.00  0.00     0.000 C 
ATOM      8  C   UNL d   1     -40.782  15.348  20.906  0.00  0.00     0.000 A 
ATOM      9  C   UNL d   1     -40.681  15.902  20.308  0.00  0.00     0.000 A 
ATOM     10  C   UNL d   1     -40.536  15.655  19.539  0.00  0.00     0.005 A 
ENDBRANCH   1   4
BRANCH   3  11
ATOM     11  C   UNL d   1     -39.424  14.306  17.544  0.00  0.00     0.104 C 
BRANCH  11  12
ATOM     12  C   UNL d   1     -38.656  14.088  17.322  0.00  0.00     0.040 C 
BRANCH  12  13
ATOM     13  C   UNL d   1     -38.396  14.223  16.567  0.00  0.00     0.090 A 
ATOM     14  N   UNL d   1     -38.351  13.603  16.018  0.00  0.00    -0.238 NA
ATOM     15  C   UNL d   1     -38.072  13.904  15.310  0.00  0.00     0.111 A 
ATOM     16  S   UNL d   1     -37.941  14.707  15.405  0.00  0.00    -0.066 SA
ATOM     17  C   UNL d   1     -37.940  13.476  14.601  0.00  0.00     0.028 C 
ATOM     18  C   UNL d   1     -38.139  14.910  16.181  0.00  0.00     0.056 A 
ENDBRANCH  12  13
ENDBRANCH  11  12
ENDBRANCH   3  11
TORSDOF 4
ENDMDL
MODEL 6
REMARK VINA RESULT:      -5.9      8.911      9.670
REMARK  4 active torsions:
REMARK  status: ('A' for Active; 'I' for Inactive)
REMARK       I    between atoms: C_4  and  N_10 
REMARK    1  A    between atoms: C_7  and  C_4 
REMARK    2  A    between atoms: C_11  and  C_5 
REMARK    3  A    between atoms: N_10  and  C_13 
REMARK    4  A    between atoms: C_13  and  C_11 
ROOT
ATOM      1  C   UNL d   1     -40.037  14.684  20.861  0.00  0.00     0.279 C 
ATOM      2  O   UNL d   1     -40.749  14.269  20.821  0.00  0.00    -0.265 OA
ATOM      3  N   UNL d   1     -39.757  15.097  20.200  0.00  0.00    -0.206 NA
ENDROOT
BRANCH   1   4
ATOM      4  C   UNL d   1     -39.593  14.690  21.575  0.00  0.00     0.058 A 
ATOM      5  C   UNL d   1     -39.264  13.990  21.864  0.00  0.00     0.005 A 
ATOM      6  C   UNL d   1     -38.833  13.990  22.554  0.00  0.00     0.000 A 
ATOM      7  C   UNL d   1     -38.510  13.283  22.831  0.00  0.00     0.000 C 
ATOM      8  C   UNL d   1     -38.725  14.693  22.967  0.00  0.00     0.000 A 
ATOM      9  C   UNL d   1     -39.047  15.396  22.690  0.00  0.00     0.000 A 
ATOM     10  C   UNL d   1     -39.483  15.404  21.995  0.00  0.00     0.005 A 
ENDBRANCH   1   4
BRANCH   3  11
ATOM     11  C   UNL d   1     -40.184  15.092  19.510  0.00  0.00     0.104 C 
BRANCH  11  12
ATOM     12  C   UNL d   1     -39.987  15.617  18.900  0.00  0.00     0.040 C 
BRANCH  12  13
ATOM     13  C   UNL d   1     -40.259  15.487  18.147  0.00  0.00     0.090 A 
ATOM     14  N   UNL d   1     -40.920  15.898  17.860  0.00  0.00    -0.238 NA
ATOM     15  C   UNL d   1     -41.063  15.654  17.092  0.00  0.00     0.111 A 
ATOM     16  S   UNL d   1     -40.500  15.093  16.891  0.00  0.00    -0.066 SA
ATOM     17  C   UNL d   1     -41.675  15.922  16.587  0.00  0.00     0.028 C 
ATOM     18  C   UNL d   1     -40.000  14.986  17.540  0.00  0.00     0.056 A 
ENDBRANCH  12  13
ENDBRANCH  11  12
ENDBRANCH   3  11
TORSDOF 4
ENDMDL
MODEL 7
REMARK VINA RESULT:      -5.8      8.990     10.541
REMARK  4 active torsions:
REMARK  status: ('A' for Active; 'I' for Inactive)
REMARK       I    between atoms: C_4  and  N_10 
REMARK    1  A    between atoms: C_7  and  C_4 
REMARK    2  A    between atoms: C_11  and  C_5 
REMARK    3  A    between atoms: N_10  and  C_13 
REMARK    4  A    between atoms: C_13  and  C_11 
ROOT
ATOM      1  C   UNL d   1     -39.521  13.945  18.066  0.00  0.00     0.279 C 
ATOM      2  O   UNL d   1     -40.313  13.714  18.073  0.00  0.00    -0.265 OA
ATOM      3  N   UNL d   1     -39.251  14.523  18.595  0.00  0.00    -0.206 NA
ENDROOT
BRANCH   1   4
ATOM      4  C   UNL d   1     -38.985  13.595  17.521  0.00  0.00     0.058 A 
ATOM      5  C   UNL d   1     -38.822  13.967  16.804  0.00  0.00     0.005 A 
ATOM      6  C   UNL d   1     -38.304  13.633  16.273  0.00  0.00     0.000 A 
ATOM      7  C   UNL d   1     -38.150  14.016  15.558  0.00  0.00     0.000 C 
ATOM      8  C   UNL d   1     -37.940  12.918  16.453  0.00  0.00     0.000 A 
ATOM      9  C   UNL d   1     -38.093  12.538  17.165  0.00  0.00     0.000 A 
ATOM     10  C   UNL d   1     -38.615  12.869  17.705  0.00  0.00     0.005 A 
ENDBRANCH   1   4
BRANCH   3  11
ATOM     11  C   UNL d   1     -39.766  14.862  19.121  0.00  0.00     0.104 C 
BRANCH  11  12
ATOM     12  C   UNL d   1     -39.558  15.565  19.508  0.00  0.00     0.040 C 
BRANCH  12  13
ATOM     13  C   UNL d   1     -39.758  15.676  20.286  0.00  0.00     0.090 A 
ATOM     14  N   UNL d   1     -39.198  15.563  20.886  0.00  0.00    -0.238 NA
ATOM     15  C   UNL d   1     -39.556  15.715  21.606  0.00  0.00     0.111 A 
ATOM     16  S   UNL d   1     -40.336  15.922  21.467  0.00  0.00    -0.066 SA
ATOM     17  C   UNL d   1     -39.198  15.669  22.363  0.00  0.00     0.028 C 
ATOM     18  C   UNL d   1     -40.467  15.900  20.652  0.00  0.00     0.056 A 
ENDBRANCH  12  13
ENDBRANCH  11  12
ENDBRANCH   3  11
TORSDOF 4
ENDMDL
MODEL 8
REMARK VINA RESULT:      -4.0      8.894     10.760
REMARK  4 active torsions:
REMARK  status: ('A' for Active; 'I' for Inactive)
REMARK       I    between atoms: C_4  and  N_10 
REMARK    1  A    between atoms: C_7  and  C_4 
REMARK    2  A    between atoms: C_11  and  C_5 
REMARK    3  A    between atoms: N_10  and  C_13 
REMARK    4  A    between atoms: C_13  and  C_11 
ROOT
ATOM      1  C   UNL d   1     -38.596  14.847  20.076  0.00  0.00     0.279 C 
ATOM      2  O   UNL d   1     -38.667  15.667  20.017  0.00  0.00    -0.265 OA
ATOM      3  N   UNL d   1     -38.460  14.390  19.398  0.00  0.00    -0.206 NA
ENDROOT
BRANCH   1   4
ATOM      4  C   UNL d   1     -38.660  14.471  20.826  0.00  0.00     0.058 A 
ATOM      5  C   UNL d   1     -39.402  14.258  21.119  0.00  0.00     0.005 A 
ATOM      6  C   UNL d   1     -39.470  13.894  21.843  0.00  0.00     0.000 A 
ATOM      7  C   UNL d   1     -40.218  13.687  22.125  0.00  0.00     0.000 C 
ATOM      8  C   UNL d   1     -38.795  13.737  22.287  0.00  0.00     0.000 A 
ATOM      9  C   UNL d   1     -38.052  13.945  22.005  0.00  0.00     0.000 A 
ATOM     10  C   UNL d   1     -37.975  14.312  21.276  0.00  0.00     0.005 A 
ENDBRANCH   1   4
BRANCH   3  11
ATOM     11  C   UNL d   1     -38.397  14.750  18.674  0.00  0.00     0.104 C 
BRANCH  11  12
ATOM     12  C   UNL d   1     -37.940  14.402  18.078  0.00  0.00     0.040 C 
BRANCH  12  13
ATOM     13  C   UNL d   1     -38.058  14.605  17.302  0.00  0.00     0.090 A 
ATOM     14  N   UNL d   1     -38.109  14.022  16.715  0.00  0.00    -0.238 NA
ATOM     15  C   UNL d   1     -38.228  14.390  15.994  0.00  0.00     0.111 A 
ATOM     16  S   UNL d   1     -38.253  15.198  16.119  0.00  0.00    -0.066 SA
ATOM     17  C   UNL d   1     -38.312  14.015  15.248  0.00  0.00     0.028 C 
ATOM     18  C   UNL d   1     -38.148  15.338  16.926  0.00  0.00     0.056 A 
ENDBRANCH  12  13
ENDBRANCH  11  12
ENDBRANCH   3  11
TORSDOF 4
ENDMDL
