MODEL 1
REMARK VINA RESULT:       5.9      0.000      0.000
REMARK  5 active torsions:
REMARK  status: ('A' for Active; 'I' for Inactive)
REMARK    1  A    between atoms: C_5  and  N_1 
REMARK    2  A    between atoms: C_8  and  C_2 
REMARK    3  A    between atoms: C_7  and  C_5 
REMARK    4  A    between atoms: N_10  and  C_8 
REMARK       I    between atoms: C_9  and  N_10 
REMARK    5  A    between atoms: C_17  and  C_9 
ROOT
ATOM      1  N   UNL d   1     -41.370-122.373 -52.108  0.00  0.00    -0.288 N 
ATOM      2  C   UNL d   1     -41.260-121.574 -52.280  0.00  0.00     0.167 A 
ATOM      3  N   UNL d   1     -41.251-121.486 -53.091  0.00  0.00    -0.225 NA
ATOM      4  C   UNL d   1     -41.427-122.776 -52.827  0.00  0.00     0.083 A 
ATOM      5  C   UNL d   1     -41.354-122.225 -53.431  0.00  0.00     0.099 A 
ATOM      6  C   UNL d   1     -41.538-123.575 -53.003  0.00  0.00     0.019 A 
ATOM      7  C   UNL d   1     -41.389-122.465 -54.224  0.00  0.00     0.021 A 
ATOM      8  C   UNL d   1     -41.573-123.811 -53.795  0.00  0.00     0.002 A 
ATOM      9  C   UNL d   1     -41.500-123.263 -54.401  0.00  0.00     0.002 A 
ENDROOT
BRANCH   1  10
ATOM     10  C   UNL d   1     -41.413-122.704 -51.354  0.00  0.00     0.084 C 
BRANCH  10  11
ATOM     11  C   UNL d   1     -42.094-122.623 -50.911  0.00  0.00     0.045 A 
ATOM     12  C   UNL d   1     -42.070-122.759 -50.088  0.00  0.00     0.141 A 
ATOM     13  F   UNL d   1     -41.360-122.972 -49.727  0.00  0.00    -0.204 F 
ATOM     14  C   UNL d   1     -42.757-122.679 -49.632  0.00  0.00     0.030 A 
ATOM     15  C   UNL d   1     -43.473-122.464 -49.991  0.00  0.00     0.002 A 
ATOM     16  C   UNL d   1     -43.484-122.331 -50.818  0.00  0.00     0.000 A 
ATOM     17  C   UNL d   1     -42.804-122.410 -51.267  0.00  0.00     0.004 A 
ENDBRANCH  10  11
ENDBRANCH   1  10
BRANCH   2  18
ATOM     18  C   UNL d   1     -41.175-120.969 -51.724  0.00  0.00     0.140 C 
BRANCH  18  19
ATOM     19  N   UNL d   1     -41.201-120.182 -51.972  0.00  0.00    -0.203 NA
ATOM     20  C   UNL d   1     -41.175-119.576 -51.426  0.00  0.00     0.279 C 
ATOM     21  O   UNL d   1     -41.123-119.753 -50.619  0.00  0.00    -0.265 OA
BRANCH  20  22
ATOM     22  C   UNL d   1     -41.200-118.796 -51.667  0.00  0.00     0.062 C 
ATOM     23  C   UNL d   1     -41.124-118.201 -51.126  0.00  0.00     0.005 C 
ENDBRANCH  20  22
ENDBRANCH  18  19
ENDBRANCH   2  18
TORSDOF 5
ENDMDL
MODEL 2
REMARK VINA RESULT:       7.5      1.867      3.912
REMARK  5 active torsions:
REMARK  status: ('A' for Active; 'I' for Inactive)
REMARK    1  A    between atoms: C_5  and  N_1 
REMARK    2  A    between atoms: C_8  and  C_2 
REMARK    3  A    between atoms: C_7  and  C_5 
REMARK    4  A    between atoms: N_10  and  C_8 
REMARK       I    between atoms: C_9  and  N_10 
REMARK    5  A    between atoms: C_17  and  C_9 
ROOT
ATOM      1  N   UNL d   1     -42.249-122.141 -50.523  0.00  0.00    -0.288 N 
ATOM      2  C   UNL d   1     -42.113-122.591 -49.847  0.00  0.00     0.167 A 
ATOM      3  N   UNL d   1     -42.834-122.805 -49.531  0.00  0.00    -0.225 NA
ATOM      4  C   UNL d   1     -43.068-122.080 -50.620  0.00  0.00     0.083 A 
ATOM      5  C   UNL d   1     -43.425-122.491 -50.005  0.00  0.00     0.099 A 
ATOM      6  C   UNL d   1     -43.529-121.701 -51.190  0.00  0.00     0.019 A 
ATOM      7  C   UNL d   1     -44.251-122.531 -49.951  0.00  0.00     0.021 A 
ATOM      8  C   UNL d   1     -44.353-121.742 -51.134  0.00  0.00     0.002 A 
ATOM      9  C   UNL d   1     -44.713-122.152 -50.521  0.00  0.00     0.002 A 
ENDROOT
BRANCH   1  10
ATOM     10  C   UNL d   1     -41.672-121.813 -51.011  0.00  0.00     0.084 C 
BRANCH  10  11
ATOM     11  C   UNL d   1     -41.494-122.163 -51.727  0.00  0.00     0.045 A 
ATOM     12  C   UNL d   1     -41.305-121.686 -52.385  0.00  0.00     0.141 A 
ATOM     13  F   UNL d   1     -41.298-120.865 -52.309  0.00  0.00    -0.204 F 
ATOM     14  C   UNL d   1     -41.124-122.035 -53.115  0.00  0.00     0.030 A 
ATOM     15  C   UNL d   1     -41.130-122.860 -53.196  0.00  0.00     0.002 A 
ATOM     16  C   UNL d   1     -41.322-123.328 -52.528  0.00  0.00     0.000 A 
ATOM     17  C   UNL d   1     -41.501-122.982 -51.807  0.00  0.00     0.004 A 
ENDBRANCH  10  11
ENDBRANCH   1  10
BRANCH   2  18
ATOM     18  C   UNL d   1     -41.371-122.790 -49.543  0.00  0.00     0.140 C 
BRANCH  18  19
ATOM     19  N   UNL d   1     -41.308-123.395 -48.985  0.00  0.00    -0.203 NA
ATOM     20  C   UNL d   1     -41.185-123.220 -48.197  0.00  0.00     0.279 C 
ATOM     21  O   UNL d   1     -41.123-122.430 -47.958  0.00  0.00    -0.265 OA
BRANCH  20  22
ATOM     22  C   UNL d   1     -41.123-123.815 -47.642  0.00  0.00     0.062 C 
ATOM     23  C   UNL d   1     -41.158-123.641 -46.853  0.00  0.00     0.005 C 
ENDBRANCH  20  22
ENDBRANCH  18  19
ENDBRANCH   2  18
TORSDOF 5
ENDMDL
MODEL 3
REMARK VINA RESULT:       8.2      2.046      3.959
REMARK  5 active torsions:
REMARK  status: ('A' for Active; 'I' for Inactive)
REMARK    1  A    between atoms: C_5  and  N_1 
REMARK    2  A    between atoms: C_8  and  C_2 
REMARK    3  A    between atoms: C_7  and  C_5 
REMARK    4  A    between atoms: N_10  and  C_8 
REMARK       I    between atoms: C_9  and  N_10 
REMARK    5  A    between atoms: C_17  and  C_9 
ROOT
ATOM      1  N   UNL d   1     -42.187-122.927 -49.475  0.00  0.00    -0.288 N 
ATOM      2  C   UNL d   1     -41.634-123.387 -49.877  0.00  0.00     0.167 A 
ATOM      3  N   UNL d   1     -41.156-123.754 -49.327  0.00  0.00    -0.225 NA
ATOM      4  C   UNL d   1     -42.043-123.016 -48.666  0.00  0.00     0.083 A 
ATOM      5  C   UNL d   1     -41.406-123.527 -48.579  0.00  0.00     0.099 A 
ATOM      6  C   UNL d   1     -42.413-122.695 -48.002  0.00  0.00     0.019 A 
ATOM      7  C   UNL d   1     -41.128-123.726 -47.824  0.00  0.00     0.021 A 
ATOM      8  C   UNL d   1     -42.133-122.895 -47.250  0.00  0.00     0.002 A 
ATOM      9  C   UNL d   1     -41.497-123.405 -47.159  0.00  0.00     0.002 A 
ENDROOT
BRANCH   1  10
ATOM     10  C   UNL d   1     -42.774-122.464 -49.821  0.00  0.00     0.084 C 
BRANCH  10  11
ATOM     11  C   UNL d   1     -43.543-122.738 -49.856  0.00  0.00     0.045 A 
ATOM     12  C   UNL d   1     -44.140-122.254 -50.180  0.00  0.00     0.141 A 
ATOM     13  F   UNL d   1     -43.952-121.503 -50.462  0.00  0.00    -0.204 F 
ATOM     14  C   UNL d   1     -44.922-122.526 -50.219  0.00  0.00     0.030 A 
ATOM     15  C   UNL d   1     -45.116-123.281 -49.937  0.00  0.00     0.002 A 
ATOM     16  C   UNL d   1     -44.507-123.758 -49.614  0.00  0.00     0.000 A 
ATOM     17  C   UNL d   1     -43.735-123.488 -49.576  0.00  0.00     0.004 A 
ENDBRANCH  10  11
ENDBRANCH   1  10
BRANCH   2  18
ATOM     18  C   UNL d   1     -41.576-123.461 -50.698  0.00  0.00     0.140 C 
BRANCH  18  19
ATOM     19  N   UNL d   1     -41.389-122.799 -51.155  0.00  0.00    -0.203 NA
ATOM     20  C   UNL d   1     -41.307-122.866 -51.964  0.00  0.00     0.279 C 
ATOM     21  O   UNL d   1     -41.411-123.601 -52.328  0.00  0.00    -0.265 OA
BRANCH  20  22
ATOM     22  C   UNL d   1     -41.123-122.213 -52.419  0.00  0.00     0.062 C 
ATOM     23  C   UNL d   1     -41.402-122.153 -53.176  0.00  0.00     0.005 C 
ENDBRANCH  20  22
ENDBRANCH  18  19
ENDBRANCH   2  18
TORSDOF 5
ENDMDL
