MODEL 1
REMARK VINA RESULT:      32.7      0.000      0.000
REMARK  4 active torsions:
REMARK  status: ('A' for Active; 'I' for Inactive)
REMARK    1  A    between atoms: N_2  and  C_1 
REMARK    2  A    between atoms: C_4  and  C_1 
REMARK    3  A    between atoms: C_8  and  N_2 
REMARK    4  A    between atoms: N_7  and  C_6 
ROOT
ATOM      1  C   UNL d   1      57.313  49.604  50.237  0.00  0.00     0.064 A 
ATOM      2  C   UNL d   1      58.955  49.663  50.321  0.00  0.00     0.083 A 
ATOM      3  C   UNL d   1      57.763  49.593  49.545  0.00  0.00     0.019 A 
ATOM      4  C   UNL d   1      57.688  49.644  50.971  0.00  0.00     0.019 A 
ATOM      5  C   UNL d   1      58.587  49.623  49.583  0.00  0.00     0.021 A 
ATOM      6  C   UNL d   1      58.511  49.673  51.019  0.00  0.00     0.021 A 
ENDROOT
BRANCH   2   7
ATOM      7  N   UNL d   1      59.780  49.692  50.366  0.00  0.00    -0.233 NA
BRANCH   7   8
ATOM      8  C   UNL d   1      60.167  49.354  51.013  0.00  0.00     0.153 C 
ATOM      9  S   UNL d   1      60.094  49.691  51.765  0.00  0.00    -0.056 SA
BRANCH   8  10
ATOM     10  C   UNL d   1      60.632  48.673  50.907  0.00  0.00     0.109 A 
ATOM     11  N   UNL d   1      61.135  48.615  50.248  0.00  0.00    -0.242 NA
ATOM     12  C   UNL d   1      61.598  47.940  50.138  0.00  0.00     0.099 A 
ATOM     13  C   UNL d   1      61.560  47.324  50.685  0.00  0.00     0.021 A 
ATOM     14  C   UNL d   1      61.057  47.381  51.344  0.00  0.00     0.003 A 
ATOM     15  C   UNL d   1      60.595  48.056  51.453  0.00  0.00     0.021 A 
ENDBRANCH   8  10
ENDBRANCH   7   8
ENDBRANCH   2   7
BRANCH   1  16
ATOM     16  N   UNL d   1      56.489  49.574  50.199  0.00  0.00    -0.301 N 
ATOM     17  C   UNL d   1      56.042  49.559  50.894  0.00  0.00     0.100 C 
ATOM     18  C   UNL d   1      56.112  49.560  49.465  0.00  0.00     0.100 C 
ENDBRANCH   1  16
TORSDOF 4
ENDMDL
