MODEL 1
REMARK VINA RESULT:      -2.7      0.000      0.000
REMARK  2 active torsions:
REMARK  status: ('A' for Active; 'I' for Inactive)
REMARK       I    between atoms: C_9  and  N_1 
REMARK    1  A    between atoms: C_5  and  C_3 
REMARK    2  A    between atoms: C_8  and  C_4 
ROOT
ATOM      1  N   UNL d   1      33.004  19.576 -23.522  0.00  0.00    -0.193 N 
ATOM      2  N   UNL d   1      33.106  20.258 -23.100  0.00  0.00    -0.162 NA
ATOM      3  C   UNL d   1      32.825  18.970 -22.989  0.00  0.00     0.110 A 
ATOM      4  C   UNL d   1      32.993  20.092 -22.298  0.00  0.00     0.109 A 
ATOM      5  C   UNL d   1      32.821  19.293 -22.251  0.00  0.00     0.043 A 
ATOM      6  C   UNL d   1      33.062  19.421 -24.450  0.00  0.00     0.281 C 
ATOM      7  O   UNL d   1      32.930  18.672 -24.706  0.00  0.00    -0.265 OA
ATOM      8  C   UNL d   1      33.241  20.026 -24.983  0.00  0.00     0.068 C 
ENDROOT
BRANCH   3   9
ATOM      9  C   UNL d   1      32.684  18.201 -23.194  0.00  0.00     0.118 A 
ATOM     10  O   UNL d   1      31.935  17.863 -23.270  0.00  0.00    -0.306 OA
ATOM     11  C   UNL d   1      32.044  17.066 -23.488  0.00  0.00     0.100 A 
ATOM     12  C   UNL d   1      31.423  16.521 -23.622  0.00  0.00     0.027 C 
ATOM     13  C   UNL d   1      32.851  16.905 -23.548  0.00  0.00     0.027 A 
ATOM     14  C   UNL d   1      33.241  17.606 -23.367  0.00  0.00     0.028 A 
ENDBRANCH   3   9
BRANCH   4  15
ATOM     15  C   UNL d   1      33.044  20.628 -21.671  0.00  0.00     0.049 A 
ATOM     16  S   UNL d   1      32.914  21.420 -21.720  0.00  0.00    -0.085 SA
ATOM     17  C   UNL d   1      33.020  21.740 -20.988  0.00  0.00     0.035 A 
ATOM     18  C   UNL d   1      33.221  21.123 -20.477  0.00  0.00     0.007 A 
ATOM     19  C   UNL d   1      33.234  20.437 -20.905  0.00  0.00     0.009 A 
ENDBRANCH   4  15
TORSDOF 2
ENDMDL
MODEL 2
REMARK VINA RESULT:      -2.6      2.753      4.636
REMARK  2 active torsions:
REMARK  status: ('A' for Active; 'I' for Inactive)
REMARK       I    between atoms: C_9  and  N_1 
REMARK    1  A    between atoms: C_5  and  C_3 
REMARK    2  A    between atoms: C_8  and  C_4 
ROOT
ATOM      1  N   UNL d   1      31.831  16.356 -23.606  0.00  0.00    -0.193 N 
ATOM      2  N   UNL d   1      31.193  15.860 -23.606  0.00  0.00    -0.162 NA
ATOM      3  C   UNL d   1      31.579  17.096 -23.872  0.00  0.00     0.110 A 
ATOM      4  C   UNL d   1      30.531  16.279 -23.871  0.00  0.00     0.109 A 
ATOM      5  C   UNL d   1      30.791  17.039 -24.030  0.00  0.00     0.043 A 
ATOM      6  C   UNL d   1      32.727  16.193 -23.361  0.00  0.00     0.281 C 
ATOM      7  O   UNL d   1      33.241  16.806 -23.422  0.00  0.00    -0.265 OA
ATOM      8  C   UNL d   1      32.979  15.453 -23.095  0.00  0.00     0.068 C 
ENDROOT
BRANCH   3   9
ATOM      9  C   UNL d   1      32.054  17.745 -23.951  0.00  0.00     0.118 A 
ATOM     10  O   UNL d   1      32.321  18.049 -24.670  0.00  0.00    -0.306 OA
ATOM     11  C   UNL d   1      32.792  18.715 -24.498  0.00  0.00     0.100 A 
ATOM     12  C   UNL d   1      33.173  19.189 -25.073  0.00  0.00     0.027 C 
ATOM     13  C   UNL d   1      32.821  18.828 -23.681  0.00  0.00     0.027 A 
ATOM     14  C   UNL d   1      32.365  18.229 -23.348  0.00  0.00     0.028 A 
ENDBRANCH   3   9
BRANCH   4  15
ATOM     15  C   UNL d   1      29.764  15.987 -23.958  0.00  0.00     0.049 A 
ATOM     16  S   UNL d   1      29.429  15.745 -24.648  0.00  0.00    -0.085 SA
ATOM     17  C   UNL d   1      28.677  15.500 -24.493  0.00  0.00     0.035 A 
ATOM     18  C   UNL d   1      28.549  15.596 -23.682  0.00  0.00     0.007 A 
ATOM     19  C   UNL d   1      29.225  15.898 -23.357  0.00  0.00     0.009 A 
ENDBRANCH   4  15
TORSDOF 2
ENDMDL
MODEL 3
REMARK VINA RESULT:      -2.5      2.378      3.447
REMARK  2 active torsions:
REMARK  status: ('A' for Active; 'I' for Inactive)
REMARK       I    between atoms: C_9  and  N_1 
REMARK    1  A    between atoms: C_5  and  C_3 
REMARK    2  A    between atoms: C_8  and  C_4 
ROOT
ATOM      1  N   UNL d   1      31.792  16.796 -24.015  0.00  0.00    -0.193 N 
ATOM      2  N   UNL d   1      32.412  17.315 -24.028  0.00  0.00    -0.162 NA
ATOM      3  C   UNL d   1      31.105  17.213 -24.208  0.00  0.00     0.110 A 
ATOM      4  C   UNL d   1      32.126  18.065 -24.229  0.00  0.00     0.109 A 
ATOM      5  C   UNL d   1      31.318  17.980 -24.336  0.00  0.00     0.043 A 
ATOM      6  C   UNL d   1      31.776  15.873 -23.824  0.00  0.00     0.281 C 
ATOM      7  O   UNL d   1      31.065  15.504 -23.856  0.00  0.00    -0.265 OA
ATOM      8  C   UNL d   1      32.463  15.456 -23.630  0.00  0.00     0.068 C 
ENDROOT
BRANCH   3   9
ATOM      9  C   UNL d   1      30.366  16.890 -24.254  0.00  0.00     0.118 A 
ATOM     10  O   UNL d   1      29.797  16.927 -23.658  0.00  0.00    -0.306 OA
ATOM     11  C   UNL d   1      29.121  16.525 -23.935  0.00  0.00     0.100 A 
ATOM     12  C   UNL d   1      28.413  16.432 -23.500  0.00  0.00     0.027 C 
ATOM     13  C   UNL d   1      29.264  16.240 -24.697  0.00  0.00     0.027 A 
ATOM     14  C   UNL d   1      30.031  16.467 -24.889  0.00  0.00     0.028 A 
ENDBRANCH   3   9
BRANCH   4  15
ATOM     15  C   UNL d   1      32.568  18.758 -24.306  0.00  0.00     0.049 A 
ATOM     16  S   UNL d   1      32.808  19.086 -25.000  0.00  0.00    -0.085 SA
ATOM     17  C   UNL d   1      33.225  19.755 -24.832  0.00  0.00     0.035 A 
ATOM     18  C   UNL d   1      33.239  19.837 -24.011  0.00  0.00     0.007 A 
ATOM     19  C   UNL d   1      32.832  19.217 -23.690  0.00  0.00     0.009 A 
ENDBRANCH   4  15
TORSDOF 2
ENDMDL
MODEL 4
REMARK VINA RESULT:      -1.9      3.573      4.998
REMARK  2 active torsions:
REMARK  status: ('A' for Active; 'I' for Inactive)
REMARK       I    between atoms: C_9  and  N_1 
REMARK    1  A    between atoms: C_5  and  C_3 
REMARK    2  A    between atoms: C_8  and  C_4 
ROOT
ATOM      1  N   UNL d   1      32.986  22.036 -20.122  0.00  0.00    -0.193 N 
ATOM      2  N   UNL d   1      33.078  22.005 -19.319  0.00  0.00    -0.162 NA
ATOM      3  C   UNL d   1      32.809  22.815 -20.329  0.00  0.00     0.110 A 
ATOM      4  C   UNL d   1      32.961  22.763 -19.010  0.00  0.00     0.109 A 
ATOM      5  C   UNL d   1      32.796  23.247 -19.649  0.00  0.00     0.043 A 
ATOM      6  C   UNL d   1      33.053  21.352 -20.768  0.00  0.00     0.281 C 
ATOM      7  O   UNL d   1      32.930  21.557 -21.533  0.00  0.00    -0.265 OA
ATOM      8  C   UNL d   1      33.230  20.572 -20.561  0.00  0.00     0.068 C 
ENDROOT
BRANCH   3   9
ATOM      9  C   UNL d   1      32.676  23.074 -21.083  0.00  0.00     0.118 A 
ATOM     10  O   UNL d   1      31.932  23.212 -21.410  0.00  0.00    -0.306 OA
ATOM     11  C   UNL d   1      32.049  23.472 -22.194  0.00  0.00     0.100 A 
ATOM     12  C   UNL d   1      31.434  23.673 -22.724  0.00  0.00     0.027 C 
ATOM     13  C   UNL d   1      32.858  23.497 -22.357  0.00  0.00     0.027 A 
ATOM     14  C   UNL d   1      33.240  23.251 -21.671  0.00  0.00     0.028 A 
ENDBRANCH   3   9
BRANCH   4  15
ATOM     15  C   UNL d   1      33.002  22.983 -18.215  0.00  0.00     0.049 A 
ATOM     16  S   UNL d   1      33.241  23.700 -17.939  0.00  0.00    -0.085 SA
ATOM     17  C   UNL d   1      33.200  23.688 -17.135  0.00  0.00     0.035 A 
ATOM     18  C   UNL d   1      32.928  22.940 -16.913  0.00  0.00     0.007 A 
ATOM     19  C   UNL d   1      32.807  22.508 -17.586  0.00  0.00     0.009 A 
ENDBRANCH   4  15
TORSDOF 2
ENDMDL
MODEL 5
REMARK VINA RESULT:      -1.9      3.495      4.596
REMARK  2 active torsions:
REMARK  status: ('A' for Active; 'I' for Inactive)
REMARK       I    between atoms: C_9  and  N_1 
REMARK    1  A    between atoms: C_5  and  C_3 
REMARK    2  A    between atoms: C_8  and  C_4 
ROOT
ATOM      1  N   UNL d   1      30.051  17.137 -24.401  0.00  0.00    -0.193 N 
ATOM      2  N   UNL d   1      30.847  17.266 -24.333  0.00  0.00    -0.162 NA
ATOM      3  C   UNL d   1      29.884  16.397 -24.076  0.00  0.00     0.110 A 
ATOM      4  C   UNL d   1      31.190  16.610 -23.964  0.00  0.00     0.109 A 
ATOM      5  C   UNL d   1      30.579  16.086 -23.814  0.00  0.00     0.043 A 
ATOM      6  C   UNL d   1      29.377  17.683 -24.771  0.00  0.00     0.281 C 
ATOM      7  O   UNL d   1      28.627  17.399 -24.758  0.00  0.00    -0.265 OA
ATOM      8  C   UNL d   1      29.544  18.423 -25.097  0.00  0.00     0.068 C 
ENDROOT
BRANCH   3   9
ATOM      9  C   UNL d   1      29.148  16.065 -24.038  0.00  0.00     0.118 A 
ATOM     10  O   UNL d   1      28.691  16.007 -23.353  0.00  0.00    -0.306 OA
ATOM     11  C   UNL d   1      27.978  15.630 -23.562  0.00  0.00     0.100 A 
ATOM     12  C   UNL d   1      27.356  15.462 -23.028  0.00  0.00     0.027 C 
ATOM     13  C   UNL d   1      27.986  15.453 -24.367  0.00  0.00     0.027 A 
ATOM     14  C   UNL d   1      28.708  15.722 -24.656  0.00  0.00     0.028 A 
ENDBRANCH   3   9
BRANCH   4  15
ATOM     15  C   UNL d   1      31.990  16.508 -23.785  0.00  0.00     0.049 A 
ATOM     16  S   UNL d   1      32.487  15.984 -24.140  0.00  0.00    -0.085 SA
ATOM     17  C   UNL d   1      33.216  16.060 -23.805  0.00  0.00     0.035 A 
ATOM     18  C   UNL d   1      33.162  16.649 -23.228  0.00  0.00     0.007 A 
ATOM     19  C   UNL d   1      32.401  16.922 -23.221  0.00  0.00     0.009 A 
ENDBRANCH   4  15
TORSDOF 2
ENDMDL
MODEL 6
REMARK VINA RESULT:      -1.9      2.377      4.568
REMARK  2 active torsions:
REMARK  status: ('A' for Active; 'I' for Inactive)
REMARK       I    between atoms: C_9  and  N_1 
REMARK    1  A    between atoms: C_5  and  C_3 
REMARK    2  A    between atoms: C_8  and  C_4 
ROOT
ATOM      1  N   UNL d   1      33.009  22.178 -21.963  0.00  0.00    -0.193 N 
ATOM      2  N   UNL d   1      33.072  21.562 -22.483  0.00  0.00    -0.162 NA
ATOM      3  C   UNL d   1      32.862  21.865 -21.213  0.00  0.00     0.110 A 
ATOM      4  C   UNL d   1      32.967  20.854 -22.069  0.00  0.00     0.109 A 
ATOM      5  C   UNL d   1      32.838  21.063 -21.288  0.00  0.00     0.043 A 
ATOM      6  C   UNL d   1      33.077  23.107 -22.111  0.00  0.00     0.281 C 
ATOM      7  O   UNL d   1      32.987  23.587 -21.475  0.00  0.00    -0.265 OA
ATOM      8  C   UNL d   1      33.224  23.420 -22.861  0.00  0.00     0.068 C 
ENDROOT
BRANCH   3   9
ATOM      9  C   UNL d   1      32.763  22.303 -20.541  0.00  0.00     0.118 A 
ATOM     10  O   UNL d   1      33.218  22.227 -19.857  0.00  0.00    -0.306 OA
ATOM     11  C   UNL d   1      32.930  22.781 -19.305  0.00  0.00     0.100 A 
ATOM     12  C   UNL d   1      33.238  22.887 -18.534  0.00  0.00     0.027 C 
ATOM     13  C   UNL d   1      32.302  23.201 -19.638  0.00  0.00     0.027 A 
ATOM     14  C   UNL d   1      32.203  22.903 -20.399  0.00  0.00     0.028 A 
ENDBRANCH   3   9
BRANCH   4  15
ATOM     15  C   UNL d   1      32.988  20.090 -22.383  0.00  0.00     0.049 A 
ATOM     16  S   UNL d   1      33.241  19.893 -23.120  0.00  0.00    -0.085 SA
ATOM     17  C   UNL d   1      33.171  19.096 -23.208  0.00  0.00     0.035 A 
ATOM     18  C   UNL d   1      32.866  18.796 -22.501  0.00  0.00     0.007 A 
ATOM     19  C   UNL d   1      32.754  19.417 -21.994  0.00  0.00     0.009 A 
ENDBRANCH   4  15
TORSDOF 2
ENDMDL
MODEL 7
REMARK VINA RESULT:      -1.1      1.688      3.687
REMARK  2 active torsions:
REMARK  status: ('A' for Active; 'I' for Inactive)
REMARK       I    between atoms: C_9  and  N_1 
REMARK    1  A    between atoms: C_5  and  C_3 
REMARK    2  A    between atoms: C_8  and  C_4 
ROOT
ATOM      1  N   UNL d   1      32.971  20.353 -23.064  0.00  0.00    -0.193 N 
ATOM      2  N   UNL d   1      32.994  19.684 -23.518  0.00  0.00    -0.162 NA
ATOM      3  C   UNL d   1      32.819  20.127 -22.285  0.00  0.00     0.110 A 
ATOM      4  C   UNL d   1      32.856  19.029 -23.033  0.00  0.00     0.109 A 
ATOM      5  C   UNL d   1      32.751  19.325 -22.276  0.00  0.00     0.043 A 
ATOM      6  C   UNL d   1      33.088  21.257 -23.308  0.00  0.00     0.281 C 
ATOM      7  O   UNL d   1      33.033  21.804 -22.724  0.00  0.00    -0.265 OA
ATOM      8  C   UNL d   1      33.241  21.482 -24.087  0.00  0.00     0.068 C 
ENDROOT
BRANCH   3   9
ATOM      9  C   UNL d   1      32.754  20.636 -21.661  0.00  0.00     0.118 A 
ATOM     10  O   UNL d   1      33.177  20.574 -20.955  0.00  0.00    -0.306 OA
ATOM     11  C   UNL d   1      32.941  21.209 -20.468  0.00  0.00     0.100 A 
ATOM     12  C   UNL d   1      33.238  21.352 -19.699  0.00  0.00     0.027 C 
ATOM     13  C   UNL d   1      32.377  21.664 -20.863  0.00  0.00     0.027 A 
ATOM     14  C   UNL d   1      32.265  21.308 -21.596  0.00  0.00     0.028 A 
ENDBRANCH   3   9
BRANCH   4  15
ATOM     15  C   UNL d   1      32.831  18.238 -23.267  0.00  0.00     0.049 A 
ATOM     16  S   UNL d   1      32.403  17.944 -23.881  0.00  0.00    -0.085 SA
ATOM     17  C   UNL d   1      32.531  17.150 -23.922  0.00  0.00     0.035 A 
ATOM     18  C   UNL d   1      33.054  16.953 -23.313  0.00  0.00     0.007 A 
ATOM     19  C   UNL d   1      33.236  17.630 -22.911  0.00  0.00     0.009 A 
ENDBRANCH   4  15
TORSDOF 2
ENDMDL
MODEL 8
REMARK VINA RESULT:      -1.0      3.872      5.046
REMARK  2 active torsions:
REMARK  status: ('A' for Active; 'I' for Inactive)
REMARK       I    between atoms: C_9  and  N_1 
REMARK    1  A    between atoms: C_5  and  C_3 
REMARK    2  A    between atoms: C_8  and  C_4 
ROOT
ATOM      1  N   UNL d   1      30.188  16.964 -24.439  0.00  0.00    -0.193 N 
ATOM      2  N   UNL d   1      29.383  16.925 -24.378  0.00  0.00    -0.162 NA
ATOM      3  C   UNL d   1      30.502  16.264 -24.132  0.00  0.00     0.110 A 
ATOM      4  C   UNL d   1      29.178  16.202 -24.032  0.00  0.00     0.109 A 
ATOM      5  C   UNL d   1      29.882  15.810 -23.889  0.00  0.00     0.043 A 
ATOM      6  C   UNL d   1      30.739  17.647 -24.784  0.00  0.00     0.281 C 
ATOM      7  O   UNL d   1      31.531  17.522 -24.769  0.00  0.00    -0.265 OA
ATOM      8  C   UNL d   1      30.426  18.347 -25.091  0.00  0.00     0.068 C 
ENDROOT
BRANCH   3   9
ATOM      9  C   UNL d   1      31.289  16.089 -24.093  0.00  0.00     0.118 A 
ATOM     10  O   UNL d   1      31.763  16.191 -23.425  0.00  0.00    -0.306 OA
ATOM     11  C   UNL d   1      32.533  15.942 -23.627  0.00  0.00     0.100 A 
ATOM     12  C   UNL d   1      33.187  15.955 -23.106  0.00  0.00     0.027 C 
ATOM     13  C   UNL d   1      32.543  15.687 -24.412  0.00  0.00     0.027 A 
ATOM     14  C   UNL d   1      31.776  15.779 -24.695  0.00  0.00     0.028 A 
ENDBRANCH   3   9
BRANCH   4  15
ATOM     15  C   UNL d   1      28.415  15.933 -23.867  0.00  0.00     0.049 A 
ATOM     16  S   UNL d   1      28.084  15.882 -23.136  0.00  0.00    -0.085 SA
ATOM     17  C   UNL d   1      27.336  15.593 -23.216  0.00  0.00     0.035 A 
ATOM     18  C   UNL d   1      27.206  15.465 -24.022  0.00  0.00     0.007 A 
ATOM     19  C   UNL d   1      27.878  15.677 -24.420  0.00  0.00     0.009 A 
ENDBRANCH   4  15
TORSDOF 2
ENDMDL
MODEL 9
REMARK VINA RESULT:      -0.2      4.108      4.989
REMARK  2 active torsions:
REMARK  status: ('A' for Active; 'I' for Inactive)
REMARK       I    between atoms: C_9  and  N_1 
REMARK    1  A    between atoms: C_5  and  C_3 
REMARK    2  A    between atoms: C_8  and  C_4 
ROOT
ATOM      1  N   UNL d   1      29.953  16.132 -23.535  0.00  0.00    -0.193 N 
ATOM      2  N   UNL d   1      30.638  15.751 -23.337  0.00  0.00    -0.162 NA
ATOM      3  C   UNL d   1      30.131  16.693 -24.114  0.00  0.00     0.110 A 
ATOM      4  C   UNL d   1      31.256  16.066 -23.788  0.00  0.00     0.109 A 
ATOM      5  C   UNL d   1      30.922  16.645 -24.260  0.00  0.00     0.043 A 
ATOM      6  C   UNL d   1      29.076  16.014 -23.208  0.00  0.00     0.281 C 
ATOM      7  O   UNL d   1      28.504  16.483 -23.517  0.00  0.00    -0.265 OA
ATOM      8  C   UNL d   1      28.898  15.453 -22.629  0.00  0.00     0.068 C 
ENDROOT
BRANCH   3   9
ATOM      9  C   UNL d   1      29.593  17.190 -24.457  0.00  0.00     0.118 A 
ATOM     10  O   UNL d   1      29.684  18.006 -24.529  0.00  0.00    -0.306 OA
ATOM     11  C   UNL d   1      29.005  18.299 -24.914  0.00  0.00     0.100 A 
ATOM     12  C   UNL d   1      28.872  19.104 -25.097  0.00  0.00     0.027 C 
ATOM     13  C   UNL d   1      28.493  17.673 -25.082  0.00  0.00     0.027 A 
ATOM     14  C   UNL d   1      28.860  16.993 -24.799  0.00  0.00     0.028 A 
ENDBRANCH   3   9
BRANCH   4  15
ATOM     15  C   UNL d   1      32.050  15.839 -23.764  0.00  0.00     0.049 A 
ATOM     16  S   UNL d   1      32.503  15.650 -24.401  0.00  0.00    -0.085 SA
ATOM     17  C   UNL d   1      33.241  15.461 -24.140  0.00  0.00     0.035 A 
ATOM     18  C   UNL d   1      33.238  15.536 -23.318  0.00  0.00     0.007 A 
ATOM     19  C   UNL d   1      32.498  15.770 -23.091  0.00  0.00     0.009 A 
ENDBRANCH   4  15
TORSDOF 2
ENDMDL
