MODEL 1
REMARK VINA RESULT:     104.1      0.000      0.000
REMARK  11 active torsions:
REMARK  status: ('A' for Active; 'I' for Inactive)
REMARK    1  A    between atoms: C_4  and  C_1 
REMARK    2  A    between atoms: C_10  and  C_2 
REMARK    3  A    between atoms: C_16  and  C_9 
REMARK    4  A    between atoms: O_24  and  C_10 
REMARK    5  A    between atoms: O_18  and  C_14 
REMARK    6  A    between atoms: O_25  and  C_16 
REMARK    7  A    between atoms: C_26  and  C_17 
REMARK    8  A    between atoms: C_19  and  O_18 
REMARK    9  A    between atoms: C_29  and  O_24 
REMARK   10  A    between atoms: C_28  and  O_25 
REMARK   11  A    between atoms: C_30  and  C_26 
ROOT
ATOM      1  C   UNL d   1      61.281  45.774  50.233  0.00  0.00     0.090 A 
ATOM      2  C   UNL d   1      60.948  45.782  50.987  0.00  0.00     0.168 A 
ATOM      3  C   UNL d   1      61.449  46.493  49.850  0.00  0.00     0.201 A 
ATOM      4  C   UNL d   1      61.284  47.218  50.220  0.00  0.00     0.062 A 
ATOM      5  O   UNL d   1      60.782  46.507  51.358  0.00  0.00    -0.301 OA
ATOM      6  C   UNL d   1      60.950  47.226  50.975  0.00  0.00     0.105 A 
ATOM      7  C   UNL d   1      61.452  47.919  49.837  0.00  0.00     0.007 A 
ATOM      8  C   UNL d   1      60.785  47.933  51.345  0.00  0.00     0.050 A 
ATOM      9  C   UNL d   1      60.953  48.651  50.962  0.00  0.00     0.105 A 
ATOM     10  C   UNL d   1      61.287  48.644  50.208  0.00  0.00     0.023 A 
ATOM     11  O   UNL d   1      61.783  46.486  49.095  0.00  0.00    -0.286 OA
ENDROOT
BRANCH   1  12
ATOM     12  C   UNL d   1      61.447  45.050  49.862  0.00  0.00     0.105 A 
ATOM     13  O   UNL d   1      61.927  44.475  50.209  0.00  0.00    -0.302 OA
ATOM     14  C   UNL d   1      61.965  43.847  49.694  0.00  0.00     0.163 A 
ATOM     15  C   UNL d   1      61.518  44.019  49.035  0.00  0.00     0.032 A 
ATOM     16  C   UNL d   1      61.184  44.782  49.133  0.00  0.00     0.027 A 
BRANCH  14  17
ATOM     17  C   UNL d   1      62.394  43.129  49.813  0.00  0.00     0.323 C 
ATOM     18  O   UNL d   1      62.334  42.509  49.237  0.00  0.00    -0.257 OA
BRANCH  17  19
ATOM     19  O   UNL d   1      62.865  43.019  50.469  0.00  0.00    -0.270 OA
BRANCH  19  20
ATOM     20  C   UNL d   1      63.153  42.277  50.681  0.00  0.00     0.126 C 
ATOM     21  C   UNL d   1      62.956  41.941  51.390  0.00  0.00     0.029 C 
ENDBRANCH  19  20
ENDBRANCH  17  19
ENDBRANCH  14  17
ENDBRANCH   1  12
BRANCH   2  22
ATOM     22  C   UNL d   1      60.771  45.047  51.390  0.00  0.00     0.323 C 
ATOM     23  O   UNL d   1      60.128  44.605  51.149  0.00  0.00    -0.257 OA
BRANCH  22  24
ATOM     24  O   UNL d   1      61.245  44.789  52.014  0.00  0.00    -0.270 OA
BRANCH  24  25
ATOM     25  C   UNL d   1      60.919  44.303  52.605  0.00  0.00     0.126 C 
ATOM     26  C   UNL d   1      61.107  43.500  52.623  0.00  0.00     0.029 C 
ENDBRANCH  24  25
ENDBRANCH  22  24
ENDBRANCH   2  22
BRANCH  10  27
ATOM     27  C   UNL d   1      61.462  49.378  49.808  0.00  0.00     0.002 C 
BRANCH  27  28
ATOM     28  C   UNL d   1      60.885  49.705  49.316  0.00  0.00     0.000 C 
ATOM     29  C   UNL d   1      60.444  49.183  48.829  0.00  0.00     0.000 C 
ENDBRANCH  27  28
ENDBRANCH  10  27
BRANCH   9  30
ATOM     30  O   UNL d   1      60.779  49.393  51.352  0.00  0.00    -0.273 OA
BRANCH  30  31
ATOM     31  C   UNL d   1      60.280  49.398  51.982  0.00  0.00     0.300 C 
ATOM     32  O   UNL d   1      60.460  49.182  52.535  0.00  0.00    -0.259 OA
ATOM     33  C   UNL d   1      59.515  49.690  51.908  0.00  0.00     0.074 C 
ENDBRANCH  30  31
ENDBRANCH   9  30
TORSDOF 11
ENDMDL
