MODEL 1
REMARK VINA RESULT:      -5.6      0.000      0.000
REMARK  3 active torsions:
REMARK  status: ('A' for Active; 'I' for Inactive)
REMARK    1  A    between atoms: C_4  and  C_1 
REMARK       I    between atoms: N_7  and  C_4 
REMARK    2  A    between atoms: C_14  and  N_7 
REMARK    3  A    between atoms: C_9  and  C_10 
ROOT
ATOM      1  C   UNL d   1      57.836  -0.329  30.778  0.00  0.00     0.281 C 
ATOM      2  N   UNL d   1      57.163  -0.702  31.044  0.00  0.00    -0.208 NA
ATOM      3  O   UNL d   1      58.134   0.331  31.175  0.00  0.00    -0.265 OA
ENDROOT
BRANCH   2   4
ATOM      4  C   UNL d   1      56.780  -0.419  31.711  0.00  0.00     0.085 A 
ATOM      5  C   UNL d   1      56.514  -0.971  32.291  0.00  0.00     0.019 A 
ATOM      6  C   UNL d   1      56.130  -0.706  32.963  0.00  0.00     0.005 A 
ATOM      7  C   UNL d   1      56.000   0.096  33.081  0.00  0.00     0.039 A 
ATOM      8  C   UNL d   1      56.266   0.635  32.506  0.00  0.00     0.005 A 
ATOM      9  C   UNL d   1      56.650   0.374  31.832  0.00  0.00     0.019 A 
BRANCH   7  10
ATOM     10  C   UNL d   1      55.603   0.370  33.776  0.00  0.00     0.196 C 
ATOM     11  O   UNL d   1      56.018   0.585  34.436  0.00  0.00    -0.287 OA
ATOM     12  C   UNL d   1      54.763   0.420  33.786  0.00  0.00     0.045 C 
ENDBRANCH   7  10
ENDBRANCH   2   4
BRANCH   1  13
ATOM     13  C   UNL d   1      58.244  -0.595  30.103  0.00  0.00     0.076 A 
ATOM     14  C   UNL d   1      58.487  -0.159  29.471  0.00  0.00     0.092 A 
ATOM     15  S   UNL d   1      58.879  -0.648  28.913  0.00  0.00    -0.064 SA
ATOM     16 CL   UNL d   1      58.362   0.682  29.383  0.00  0.00    -0.075 Cl
ATOM     17  C   UNL d   1      58.874  -1.374  29.203  0.00  0.00     0.088 A 
ATOM     18  C   UNL d   1      58.483  -1.368  29.946  0.00  0.00     0.024 A 
ATOM     19 CL   UNL d   1      59.211  -2.052  28.824  0.00  0.00    -0.075 Cl
ENDBRANCH   1  13
TORSDOF 3
ENDMDL
MODEL 2
REMARK VINA RESULT:      -5.5      2.387      4.461
REMARK  3 active torsions:
REMARK  status: ('A' for Active; 'I' for Inactive)
REMARK    1  A    between atoms: C_4  and  C_1 
REMARK       I    between atoms: N_7  and  C_4 
REMARK    2  A    between atoms: C_14  and  N_7 
REMARK    3  A    between atoms: C_9  and  C_10 
ROOT
ATOM      1  C   UNL d   1      56.941  -0.070  32.106  0.00  0.00     0.281 C 
ATOM      2  N   UNL d   1      56.855  -0.060  31.297  0.00  0.00    -0.208 NA
ATOM      3  O   UNL d   1      57.693  -0.043  32.448  0.00  0.00    -0.265 OA
ENDROOT
BRANCH   2   4
ATOM      4  C   UNL d   1      57.520  -0.022  30.820  0.00  0.00     0.085 A 
ATOM      5  C   UNL d   1      57.748  -0.708  30.386  0.00  0.00     0.019 A 
ATOM      6  C   UNL d   1      58.409  -0.688  29.904  0.00  0.00     0.005 A 
ATOM      7  C   UNL d   1      58.857  -0.003  29.838  0.00  0.00     0.039 A 
ATOM      8  C   UNL d   1      58.627   0.670  30.268  0.00  0.00     0.005 A 
ATOM      9  C   UNL d   1      57.966   0.654  30.751  0.00  0.00     0.019 A 
BRANCH   7  10
ATOM     10  C   UNL d   1      59.540   0.017  29.340  0.00  0.00     0.196 C 
ATOM     11  O   UNL d   1      59.492  -0.176  28.556  0.00  0.00    -0.287 OA
ATOM     12  C   UNL d   1      60.285   0.243  29.661  0.00  0.00     0.045 C 
ENDBRANCH   7  10
ENDBRANCH   2   4
BRANCH   1  13
ATOM     13  C   UNL d   1      56.283  -0.109  32.614  0.00  0.00     0.076 A 
ATOM     14  C   UNL d   1      55.946  -0.767  32.934  0.00  0.00     0.092 A 
ATOM     15  S   UNL d   1      55.291  -0.554  33.415  0.00  0.00    -0.064 SA
ATOM     16 CL   UNL d   1      56.217  -1.566  32.801  0.00  0.00    -0.075 Cl
ATOM     17  C   UNL d   1      55.232   0.224  33.388  0.00  0.00     0.088 A 
ATOM     18  C   UNL d   1      55.840   0.527  32.894  0.00  0.00     0.024 A 
ATOM     19 CL   UNL d   1      54.647   0.682  33.794  0.00  0.00    -0.075 Cl
ENDBRANCH   1  13
TORSDOF 3
ENDMDL
MODEL 3
REMARK VINA RESULT:      -4.9      2.480      4.472
REMARK  3 active torsions:
REMARK  status: ('A' for Active; 'I' for Inactive)
REMARK    1  A    between atoms: C_4  and  C_1 
REMARK       I    between atoms: N_7  and  C_4 
REMARK    2  A    between atoms: C_14  and  N_7 
REMARK    3  A    between atoms: C_9  and  C_10 
ROOT
ATOM      1  C   UNL d   1      57.044   0.404  32.347  0.00  0.00     0.281 C 
ATOM      2  N   UNL d   1      56.807   0.121  31.621  0.00  0.00    -0.208 NA
ATOM      3  O   UNL d   1      57.833   0.611  32.479  0.00  0.00    -0.265 OA
ENDROOT
BRANCH   2   4
ATOM      4  C   UNL d   1      57.356   0.042  31.019  0.00  0.00     0.085 A 
ATOM      5  C   UNL d   1      57.636  -0.729  30.823  0.00  0.00     0.019 A 
ATOM      6  C   UNL d   1      58.184  -0.827  30.224  0.00  0.00     0.005 A 
ATOM      7  C   UNL d   1      58.467  -0.179  29.807  0.00  0.00     0.039 A 
ATOM      8  C   UNL d   1      58.187   0.579  30.005  0.00  0.00     0.005 A 
ATOM      9  C   UNL d   1      57.639   0.681  30.603  0.00  0.00     0.019 A 
BRANCH   7  10
ATOM     10  C   UNL d   1      59.033  -0.279  29.188  0.00  0.00     0.196 C 
ATOM     11  O   UNL d   1      59.634   0.252  29.080  0.00  0.00    -0.287 OA
ATOM     12  C   UNL d   1      58.976  -0.942  28.672  0.00  0.00     0.045 C 
ENDBRANCH   7  10
ENDBRANCH   2   4
BRANCH   1  13
ATOM     13  C   UNL d   1      56.508   0.494  32.977  0.00  0.00     0.076 A 
ATOM     14  C   UNL d   1      56.678   0.618  33.754  0.00  0.00     0.092 A 
ATOM     15  S   UNL d   1      55.970   0.677  34.202  0.00  0.00    -0.064 SA
ATOM     16 CL   UNL d   1      57.467   0.680  34.076  0.00  0.00    -0.075 Cl
ATOM     17  C   UNL d   1      55.376   0.590  33.701  0.00  0.00     0.088 A 
ATOM     18  C   UNL d   1      55.686   0.474  32.929  0.00  0.00     0.024 A 
ATOM     19 CL   UNL d   1      54.556   0.610  33.910  0.00  0.00    -0.075 Cl
ENDBRANCH   1  13
TORSDOF 3
ENDMDL
