MODEL 1
REMARK VINA RESULT:      29.8      0.000      0.000
REMARK  5 active torsions:
REMARK  status: ('A' for Active; 'I' for Inactive)
REMARK    1  A    between atoms: C_6  and  N_1 
REMARK    2  A    between atoms: C_8  and  C_3 
REMARK    3  A    between atoms: C_7  and  C_6 
REMARK    4  A    between atoms: C_9  and  C_7 
REMARK    5  A    between atoms: C_14  and  C_8 
ROOT
ATOM      1  N   UNL d   1      44.767 -15.753  36.843  0.00  0.00    -0.289 N 
ATOM      2  N   UNL d   1      45.640 -15.997  37.833  0.00  0.00    -0.227 NA
ATOM      3  C   UNL d   1      44.946 -16.268  37.466  0.00  0.00     0.148 A 
ATOM      4  C   UNL d   1      45.349 -15.164  36.824  0.00  0.00     0.083 A 
ATOM      5  C   UNL d   1      45.887 -15.312  37.431  0.00  0.00     0.099 A 
ATOM      6  C   UNL d   1      45.464 -14.505  36.330  0.00  0.00     0.019 A 
ATOM      7  C   UNL d   1      46.532 -14.812  37.549  0.00  0.00     0.021 A 
ATOM      8  C   UNL d   1      46.108 -14.009  36.450  0.00  0.00     0.002 A 
ATOM      9  C   UNL d   1      46.642 -14.163  37.060  0.00  0.00     0.002 A 
ENDROOT
BRANCH   1  10
ATOM     10  C   UNL d   1      44.129 -15.814  36.336  0.00  0.00     0.082 C 
BRANCH  10  11
ATOM     11  C   UNL d   1      43.574 -15.238  36.548  0.00  0.00     0.019 C 
BRANCH  11  12
ATOM     12  C   UNL d   1      42.770 -15.398  36.476  0.00  0.00     0.002 A 
ATOM     13  C   UNL d   1      42.226 -14.776  36.476  0.00  0.00     0.000 A 
ATOM     14  C   UNL d   1      41.421 -14.939  36.403  0.00  0.00     0.000 A 
ATOM     15  C   UNL d   1      41.165 -15.714  36.331  0.00  0.00     0.000 A 
ATOM     16  C   UNL d   1      41.713 -16.332  36.331  0.00  0.00     0.000 A 
ATOM     17  C   UNL d   1      42.510 -16.170  36.403  0.00  0.00     0.000 A 
ENDBRANCH  11  12
ENDBRANCH  10  11
ENDBRANCH   1  10
BRANCH   3  18
ATOM     18  C   UNL d   1      44.516 -16.930  37.685  0.00  0.00     0.037 C 
BRANCH  18  19
ATOM     19  C   UNL d   1      44.761 -17.385  38.333  0.00  0.00     0.003 C 
ATOM     20  C   UNL d   1      44.248 -17.512  38.956  0.00  0.00     0.000 C 
ENDBRANCH  18  19
ENDBRANCH   3  18
TORSDOF 5
ENDMDL
MODEL 2
REMARK VINA RESULT:      30.2      6.986      8.004
REMARK  5 active torsions:
REMARK  status: ('A' for Active; 'I' for Inactive)
REMARK    1  A    between atoms: C_6  and  N_1 
REMARK    2  A    between atoms: C_8  and  C_3 
REMARK    3  A    between atoms: C_7  and  C_6 
REMARK    4  A    between atoms: C_9  and  C_7 
REMARK    5  A    between atoms: C_14  and  C_8 
ROOT
ATOM      1  N   UNL d   1      44.954 -14.117  44.408  0.00  0.00    -0.289 N 
ATOM      2  N   UNL d   1      44.453 -13.004  43.849  0.00  0.00    -0.227 NA
ATOM      3  C   UNL d   1      44.311 -13.810  43.986  0.00  0.00     0.148 A 
ATOM      4  C   UNL d   1      45.493 -13.501  44.533  0.00  0.00     0.083 A 
ATOM      5  C   UNL d   1      45.187 -12.816  44.191  0.00  0.00     0.099 A 
ATOM      6  C   UNL d   1      46.230 -13.470  44.917  0.00  0.00     0.019 A 
ATOM      7  C   UNL d   1      45.607 -12.107  44.227  0.00  0.00     0.021 A 
ATOM      8  C   UNL d   1      46.646 -12.763  44.952  0.00  0.00     0.002 A 
ATOM      9  C   UNL d   1      46.334 -12.081  44.607  0.00  0.00     0.002 A 
ENDROOT
BRANCH   1  10
ATOM     10  C   UNL d   1      45.041 -14.890  44.658  0.00  0.00     0.082 C 
BRANCH  10  11
ATOM     11  C   UNL d   1      45.628 -15.246  44.195  0.00  0.00     0.019 C 
BRANCH  11  12
ATOM     12  C   UNL d   1      45.727 -16.063  44.218  0.00  0.00     0.002 A 
ATOM     13  C   UNL d   1      45.884 -16.476  43.519  0.00  0.00     0.000 A 
ATOM     14  C   UNL d   1      45.983 -17.295  43.544  0.00  0.00     0.000 A 
ATOM     15  C   UNL d   1      45.926 -17.693  44.259  0.00  0.00     0.000 A 
ATOM     16  C   UNL d   1      45.769 -17.274  44.953  0.00  0.00     0.000 A 
ATOM     17  C   UNL d   1      45.672 -16.464  44.928  0.00  0.00     0.000 A 
ENDBRANCH  11  12
ENDBRANCH  10  11
ENDBRANCH   1  10
BRANCH   3  18
ATOM     18  C   UNL d   1      43.648 -14.228  43.743  0.00  0.00     0.037 C 
BRANCH  18  19
ATOM     19  C   UNL d   1      43.119 -14.526  44.307  0.00  0.00     0.003 C 
ATOM     20  C   UNL d   1      42.493 -14.064  44.558  0.00  0.00     0.000 C 
ENDBRANCH  18  19
ENDBRANCH   3  18
TORSDOF 5
ENDMDL
