MODEL 1
REMARK VINA RESULT:      -7.7      0.000      0.000
REMARK  6 active torsions:
REMARK  status: ('A' for Active; 'I' for Inactive)
REMARK    1  A    between atoms: C_13  and  S_1 
REMARK    2  A    between atoms: C_2  and  C_6 
REMARK       I    between atoms: N_3  and  C_2 
REMARK    3  A    between atoms: C_4  and  N_3 
REMARK    4  A    between atoms: N_5  and  C_6 
REMARK       I    between atoms: C_7  and  N_5 
REMARK    5  A    between atoms: C_6  and  C_9 
REMARK    6  A    between atoms: C_9  and  C_13 
ROOT
ATOM      1  C   UNL d   1      53.190  32.372  53.441  0.00  0.00     0.297 C 
ATOM      2  N   UNL d   1      52.989  31.707  53.884  0.00  0.00    -0.207 NA
ATOM      3  O   UNL d   1      53.402  32.288  52.644  0.00  0.00    -0.264 OA
ENDROOT
BRANCH   1   4
ATOM      4  C   UNL d   1      53.179  33.125  53.792  0.00  0.00     0.143 C 
BRANCH   4   5
ATOM      5  N   UNL d   1      52.461  33.515  53.903  0.00  0.00    -0.203 NA
ATOM      6  C   UNL d   1      52.224  34.100  53.374  0.00  0.00     0.280 C 
ATOM      7  O   UNL d   1      52.703  34.293  52.734  0.00  0.00    -0.265 OA
ATOM      8  C   UNL d   1      51.506  34.490  53.485  0.00  0.00     0.068 C 
ENDBRANCH   4   5
BRANCH   4   9
ATOM      9  C   UNL d   1      53.884  33.480  54.028  0.00  0.00     0.036 C 
BRANCH   9  10
ATOM     10  C   UNL d   1      54.067  33.533  54.829  0.00  0.00     0.096 C 
BRANCH  10  11
ATOM     11  S   UNL d   1      54.808  33.809  55.062  0.00  0.00     0.192 S 
ATOM     12  O   UNL d   1      55.444  34.152  55.475  0.00  0.00    -0.222 OA
ATOM     13  O   UNL d   1      54.303  34.012  55.689  0.00  0.00    -0.222 OA
ATOM     14  C   UNL d   1      55.458  33.704  54.568  0.00  0.00     0.145 C 
ENDBRANCH  10  11
ENDBRANCH   9  10
ENDBRANCH   4   9
ENDBRANCH   1   4
BRANCH   2  15
ATOM     15  C   UNL d   1      53.000  30.958  53.532  0.00  0.00     0.085 A 
ATOM     16  C   UNL d   1      53.115  30.280  53.997  0.00  0.00     0.018 A 
ATOM     17  C   UNL d   1      53.127  29.532  53.655  0.00  0.00     0.002 A 
ATOM     18  C   UNL d   1      53.218  30.366  54.812  0.00  0.00     0.002 A 
ATOM     19  C   UNL d   1      53.241  28.860  54.111  0.00  0.00     0.000 A 
ATOM     20  C   UNL d   1      53.022  29.457  52.827  0.00  0.00     0.000 A 
ATOM     21  C   UNL d   1      53.345  28.940  54.933  0.00  0.00     0.000 A 
ATOM     22  C   UNL d   1      53.333  29.691  55.275  0.00  0.00     0.000 A 
ATOM     23  C   UNL d   1      52.909  30.133  52.375  0.00  0.00     0.002 A 
ATOM     24  C   UNL d   1      52.897  30.876  52.718  0.00  0.00     0.019 A 
ENDBRANCH   2  15
TORSDOF 6
ENDMDL
MODEL 2
REMARK VINA RESULT:      -7.3      1.022      2.015
REMARK  6 active torsions:
REMARK  status: ('A' for Active; 'I' for Inactive)
REMARK    1  A    between atoms: C_13  and  S_1 
REMARK    2  A    between atoms: C_2  and  C_6 
REMARK       I    between atoms: N_3  and  C_2 
REMARK    3  A    between atoms: C_4  and  N_3 
REMARK    4  A    between atoms: N_5  and  C_6 
REMARK       I    between atoms: C_7  and  N_5 
REMARK    5  A    between atoms: C_6  and  C_9 
REMARK    6  A    between atoms: C_9  and  C_13 
ROOT
ATOM      1  C   UNL d   1      53.551  32.275  53.674  0.00  0.00     0.297 C 
ATOM      2  N   UNL d   1      53.200  31.636  54.055  0.00  0.00    -0.207 NA
ATOM      3  O   UNL d   1      53.884  32.175  52.922  0.00  0.00    -0.264 OA
ENDROOT
BRANCH   1   4
ATOM      4  C   UNL d   1      53.572  33.019  54.043  0.00  0.00     0.143 C 
BRANCH   4   5
ATOM      5  N   UNL d   1      53.945  33.105  54.774  0.00  0.00    -0.203 NA
ATOM      6  C   UNL d   1      54.707  33.413  54.814  0.00  0.00     0.280 C 
ATOM      7  O   UNL d   1      55.096  33.636  54.124  0.00  0.00    -0.265 OA
ATOM      8  C   UNL d   1      55.080  33.499  55.545  0.00  0.00     0.068 C 
ENDBRANCH   4   5
BRANCH   4   9
ATOM      9  C   UNL d   1      53.221  33.671  53.680  0.00  0.00     0.036 C 
BRANCH   9  10
ATOM     10  C   UNL d   1      52.480  33.928  53.929  0.00  0.00     0.096 C 
BRANCH  10  11
ATOM     11  S   UNL d   1      52.084  34.510  53.502  0.00  0.00     0.192 S 
ATOM     12  O   UNL d   1      51.665  35.191  53.268  0.00  0.00    -0.222 OA
ATOM     13  O   UNL d   1      52.066  34.780  54.287  0.00  0.00    -0.222 OA
ATOM     14  C   UNL d   1      51.991  34.429  52.688  0.00  0.00     0.145 C 
ENDBRANCH  10  11
ENDBRANCH   9  10
ENDBRANCH   4   9
ENDBRANCH   1   4
BRANCH   2  15
ATOM     15  C   UNL d   1      53.181  30.895  53.687  0.00  0.00     0.085 A 
ATOM     16  C   UNL d   1      53.228  30.201  54.140  0.00  0.00     0.018 A 
ATOM     17  C   UNL d   1      53.209  29.461  53.780  0.00  0.00     0.002 A 
ATOM     18  C   UNL d   1      53.294  30.263  54.960  0.00  0.00     0.002 A 
ATOM     19  C   UNL d   1      53.255  28.774  54.224  0.00  0.00     0.000 A 
ATOM     20  C   UNL d   1      53.141  29.411  52.946  0.00  0.00     0.000 A 
ATOM     21  C   UNL d   1      53.322  28.829  55.053  0.00  0.00     0.000 A 
ATOM     22  C   UNL d   1      53.341  29.572  55.412  0.00  0.00     0.000 A 
ATOM     23  C   UNL d   1      53.095  30.102  52.506  0.00  0.00     0.002 A 
ATOM     24  C   UNL d   1      53.114  30.837  52.866  0.00  0.00     0.019 A 
ENDBRANCH   2  15
TORSDOF 6
ENDMDL
MODEL 3
REMARK VINA RESULT:      -7.0      1.660      3.996
REMARK  6 active torsions:
REMARK  status: ('A' for Active; 'I' for Inactive)
REMARK    1  A    between atoms: C_13  and  S_1 
REMARK    2  A    between atoms: C_2  and  C_6 
REMARK       I    between atoms: N_3  and  C_2 
REMARK    3  A    between atoms: C_4  and  N_3 
REMARK    4  A    between atoms: N_5  and  C_6 
REMARK       I    between atoms: C_7  and  N_5 
REMARK    5  A    between atoms: C_6  and  C_9 
REMARK    6  A    between atoms: C_9  and  C_13 
ROOT
ATOM      1  C   UNL d   1      53.213  32.824  53.343  0.00  0.00     0.297 C 
ATOM      2  N   UNL d   1      52.499  33.205  53.488  0.00  0.00    -0.207 NA
ATOM      3  O   UNL d   1      53.582  32.905  52.605  0.00  0.00    -0.264 OA
ENDROOT
BRANCH   1   4
ATOM      4  C   UNL d   1      53.565  32.358  53.935  0.00  0.00     0.143 C 
BRANCH   4   5
ATOM      5  N   UNL d   1      53.746  32.693  54.667  0.00  0.00    -0.203 NA
ATOM      6  C   UNL d   1      54.498  32.998  54.806  0.00  0.00     0.280 C 
ATOM      7  O   UNL d   1      55.069  32.967  54.214  0.00  0.00    -0.265 OA
ATOM      8  C   UNL d   1      54.679  33.333  55.538  0.00  0.00     0.068 C 
ENDBRANCH   4   5
BRANCH   4   9
ATOM      9  C   UNL d   1      53.732  31.564  53.792  0.00  0.00     0.036 C 
BRANCH   9  10
ATOM     10  C   UNL d   1      53.246  30.980  54.109  0.00  0.00     0.096 C 
BRANCH  10  11
ATOM     11  S   UNL d   1      53.347  30.195  53.880  0.00  0.00     0.192 S 
ATOM     12  O   UNL d   1      53.424  29.366  53.863  0.00  0.00    -0.222 OA
ATOM     13  O   UNL d   1      53.244  30.160  54.703  0.00  0.00    -0.222 OA
ATOM     14  C   UNL d   1      53.465  30.012  53.086  0.00  0.00     0.145 C 
ENDBRANCH  10  11
ENDBRANCH   9  10
ENDBRANCH   4   9
ENDBRANCH   1   4
BRANCH   2  15
ATOM     15  C   UNL d   1      52.150  33.668  52.897  0.00  0.00     0.085 A 
ATOM     16  C   UNL d   1      51.338  33.834  52.922  0.00  0.00     0.018 A 
ATOM     17  C   UNL d   1      50.984  34.294  52.338  0.00  0.00     0.002 A 
ATOM     18  C   UNL d   1      50.886  33.531  53.542  0.00  0.00     0.002 A 
ATOM     19  C   UNL d   1      50.182  34.461  52.358  0.00  0.00     0.000 A 
ATOM     20  C   UNL d   1      51.453  34.596  51.712  0.00  0.00     0.000 A 
ATOM     21  C   UNL d   1      49.720  34.158  52.982  0.00  0.00     0.000 A 
ATOM     22  C   UNL d   1      50.076  33.697  53.567  0.00  0.00     0.000 A 
ATOM     23  C   UNL d   1      52.256  34.427  51.697  0.00  0.00     0.002 A 
ATOM     24  C   UNL d   1      52.606  33.969  52.279  0.00  0.00     0.019 A 
ENDBRANCH   2  15
TORSDOF 6
ENDMDL
MODEL 4
REMARK VINA RESULT:      -6.9      1.794      2.878
REMARK  6 active torsions:
REMARK  status: ('A' for Active; 'I' for Inactive)
REMARK    1  A    between atoms: C_13  and  S_1 
REMARK    2  A    between atoms: C_2  and  C_6 
REMARK       I    between atoms: N_3  and  C_2 
REMARK    3  A    between atoms: C_4  and  N_3 
REMARK    4  A    between atoms: N_5  and  C_6 
REMARK       I    between atoms: C_7  and  N_5 
REMARK    5  A    between atoms: C_6  and  C_9 
REMARK    6  A    between atoms: C_9  and  C_13 
ROOT
ATOM      1  C   UNL d   1      52.859  33.440  53.290  0.00  0.00     0.297 C 
ATOM      2  N   UNL d   1      52.720  32.701  53.625  0.00  0.00    -0.207 NA
ATOM      3  O   UNL d   1      53.534  33.561  52.824  0.00  0.00    -0.264 OA
ENDROOT
BRANCH   1   4
ATOM      4  C   UNL d   1      52.323  34.062  53.418  0.00  0.00     0.143 C 
BRANCH   4   5
ATOM      5  N   UNL d   1      52.342  34.479  54.130  0.00  0.00    -0.203 NA
ATOM      6  C   UNL d   1      52.782  35.172  54.191  0.00  0.00     0.280 C 
ATOM      7  O   UNL d   1      53.204  35.448  53.541  0.00  0.00    -0.265 OA
ATOM      8  C   UNL d   1      52.800  35.588  54.903  0.00  0.00     0.068 C 
ENDBRANCH   4   5
BRANCH   4   9
ATOM      9  C   UNL d   1      51.776  34.263  52.836  0.00  0.00     0.036 C 
BRANCH   9  10
ATOM     10  C   UNL d   1      50.972  34.150  52.973  0.00  0.00     0.096 C 
BRANCH  10  11
ATOM     11  S   UNL d   1      50.430  34.295  52.371  0.00  0.00     0.192 S 
ATOM     12  O   UNL d   1      49.747  34.482  51.931  0.00  0.00    -0.222 OA
ATOM     13  O   UNL d   1      50.003  34.426  53.071  0.00  0.00    -0.222 OA
ATOM     14  C   UNL d   1      50.661  34.219  51.584  0.00  0.00     0.145 C 
ENDBRANCH  10  11
ENDBRANCH   9  10
ENDBRANCH   4   9
ENDBRANCH   1   4
BRANCH   2  15
ATOM     15  C   UNL d   1      53.254  32.082  53.496  0.00  0.00     0.085 A 
ATOM     16  C   UNL d   1      52.980  31.302  53.424  0.00  0.00     0.018 A 
ATOM     17  C   UNL d   1      53.505  30.681  53.296  0.00  0.00     0.002 A 
ATOM     18  C   UNL d   1      52.170  31.155  53.483  0.00  0.00     0.002 A 
ATOM     19  C   UNL d   1      53.239  29.910  53.225  0.00  0.00     0.000 A 
ATOM     20  C   UNL d   1      54.326  30.842  53.238  0.00  0.00     0.000 A 
ATOM     21  C   UNL d   1      52.423  29.755  53.283  0.00  0.00     0.000 A 
ATOM     22  C   UNL d   1      51.897  30.378  53.412  0.00  0.00     0.000 A 
ATOM     23  C   UNL d   1      54.587  31.617  53.310  0.00  0.00     0.002 A 
ATOM     24  C   UNL d   1      54.063  32.233  53.437  0.00  0.00     0.019 A 
ENDBRANCH   2  15
TORSDOF 6
ENDMDL
MODEL 5
REMARK VINA RESULT:      -6.8      2.434      5.078
REMARK  6 active torsions:
REMARK  status: ('A' for Active; 'I' for Inactive)
REMARK    1  A    between atoms: C_13  and  S_1 
REMARK    2  A    between atoms: C_2  and  C_6 
REMARK       I    between atoms: N_3  and  C_2 
REMARK    3  A    between atoms: C_4  and  N_3 
REMARK    4  A    between atoms: N_5  and  C_6 
REMARK       I    between atoms: C_7  and  N_5 
REMARK    5  A    between atoms: C_6  and  C_9 
REMARK    6  A    between atoms: C_9  and  C_13 
ROOT
ATOM      1  C   UNL d   1      51.126  34.175  52.452  0.00  0.00     0.297 C 
ATOM      2  N   UNL d   1      50.372  34.312  52.752  0.00  0.00    -0.207 NA
ATOM      3  O   UNL d   1      51.268  34.255  51.639  0.00  0.00    -0.264 OA
ENDROOT
BRANCH   1   4
ATOM      4  C   UNL d   1      51.745  33.958  52.963  0.00  0.00     0.143 C 
BRANCH   4   5
ATOM      5  N   UNL d   1      51.919  34.427  53.619  0.00  0.00    -0.203 NA
ATOM      6  C   UNL d   1      52.559  34.945  53.597  0.00  0.00     0.280 C 
ATOM      7  O   UNL d   1      53.024  34.994  52.921  0.00  0.00    -0.265 OA
ATOM      8  C   UNL d   1      52.733  35.414  54.253  0.00  0.00     0.068 C 
ENDBRANCH   4   5
BRANCH   4   9
ATOM      9  C   UNL d   1      52.183  33.276  52.815  0.00  0.00     0.036 C 
BRANCH   9  10
ATOM     10  C   UNL d   1      52.033  32.591  53.246  0.00  0.00     0.096 C 
BRANCH  10  11
ATOM     11  S   UNL d   1      52.469  31.908  53.096  0.00  0.00     0.192 S 
ATOM     12  O   UNL d   1      52.713  31.123  52.962  0.00  0.00    -0.222 OA
ATOM     13  O   UNL d   1      51.687  31.642  53.180  0.00  0.00    -0.222 OA
ATOM     14  C   UNL d   1      53.282  31.960  52.981  0.00  0.00     0.145 C 
ENDBRANCH  10  11
ENDBRANCH   9  10
ENDBRANCH   4   9
ENDBRANCH   1   4
BRANCH   2  15
ATOM     15  C   UNL d   1      49.758  34.528  52.242  0.00  0.00     0.085 A 
ATOM     16  C   UNL d   1      49.144  35.018  52.511  0.00  0.00     0.018 A 
ATOM     17  C   UNL d   1      48.530  35.237  52.010  0.00  0.00     0.002 A 
ATOM     18  C   UNL d   1      49.158  35.285  53.292  0.00  0.00     0.002 A 
ATOM     19  C   UNL d   1      47.923  35.721  52.271  0.00  0.00     0.000 A 
ATOM     20  C   UNL d   1      48.526  34.961  51.218  0.00  0.00     0.000 A 
ATOM     21  C   UNL d   1      47.931  35.994  53.058  0.00  0.00     0.000 A 
ATOM     22  C   UNL d   1      48.548  35.773  53.561  0.00  0.00     0.000 A 
ATOM     23  C   UNL d   1      49.137  34.476  50.961  0.00  0.00     0.002 A 
ATOM     24  C   UNL d   1      49.747  34.260  51.462  0.00  0.00     0.019 A 
ENDBRANCH   2  15
TORSDOF 6
ENDMDL
MODEL 6
REMARK VINA RESULT:      -6.8      1.567      1.905
REMARK  6 active torsions:
REMARK  status: ('A' for Active; 'I' for Inactive)
REMARK    1  A    between atoms: C_13  and  S_1 
REMARK    2  A    between atoms: C_2  and  C_6 
REMARK       I    between atoms: N_3  and  C_2 
REMARK    3  A    between atoms: C_4  and  N_3 
REMARK    4  A    between atoms: N_5  and  C_6 
REMARK       I    between atoms: C_7  and  N_5 
REMARK    5  A    between atoms: C_6  and  C_9 
REMARK    6  A    between atoms: C_9  and  C_13 
ROOT
ATOM      1  C   UNL d   1      52.863  33.323  53.138  0.00  0.00     0.297 C 
ATOM      2  N   UNL d   1      52.673  32.602  53.488  0.00  0.00    -0.207 NA
ATOM      3  O   UNL d   1      53.578  33.406  52.726  0.00  0.00    -0.264 OA
ENDROOT
BRANCH   1   4
ATOM      4  C   UNL d   1      52.339  33.965  53.198  0.00  0.00     0.143 C 
BRANCH   4   5
ATOM      5  N   UNL d   1      51.540  33.860  53.021  0.00  0.00    -0.203 NA
ATOM      6  C   UNL d   1      51.240  34.121  52.301  0.00  0.00     0.280 C 
ATOM      7  O   UNL d   1      51.737  34.487  51.757  0.00  0.00    -0.265 OA
ATOM      8  C   UNL d   1      50.441  34.017  52.124  0.00  0.00     0.068 C 
ENDBRANCH   4   5
BRANCH   4   9
ATOM      9  C   UNL d   1      52.617  34.704  53.433  0.00  0.00     0.036 C 
BRANCH   9  10
ATOM     10  C   UNL d   1      52.548  34.937  54.219  0.00  0.00     0.096 C 
BRANCH  10  11
ATOM     11  S   UNL d   1      52.903  35.636  54.473  0.00  0.00     0.192 S 
ATOM     12  O   UNL d   1      53.063  36.379  54.814  0.00  0.00    -0.222 OA
ATOM     13  O   UNL d   1      52.123  35.684  54.754  0.00  0.00    -0.222 OA
ATOM     14  C   UNL d   1      53.692  35.783  54.292  0.00  0.00     0.145 C 
ENDBRANCH  10  11
ENDBRANCH   9  10
ENDBRANCH   4   9
ENDBRANCH   1   4
BRANCH   2  15
ATOM     15  C   UNL d   1      53.196  31.964  53.427  0.00  0.00     0.085 A 
ATOM     16  C   UNL d   1      52.906  31.186  53.403  0.00  0.00     0.018 A 
ATOM     17  C   UNL d   1      53.420  30.547  53.342  0.00  0.00     0.002 A 
ATOM     18  C   UNL d   1      52.091  31.063  53.439  0.00  0.00     0.002 A 
ATOM     19  C   UNL d   1      53.137  29.778  53.318  0.00  0.00     0.000 A 
ATOM     20  C   UNL d   1      54.245  30.684  53.306  0.00  0.00     0.000 A 
ATOM     21  C   UNL d   1      52.315  29.646  53.355  0.00  0.00     0.000 A 
ATOM     22  C   UNL d   1      51.801  30.289  53.415  0.00  0.00     0.000 A 
ATOM     23  C   UNL d   1      54.524  31.456  53.331  0.00  0.00     0.002 A 
ATOM     24  C   UNL d   1      54.011  32.091  53.390  0.00  0.00     0.019 A 
ENDBRANCH   2  15
TORSDOF 6
ENDMDL
MODEL 7
REMARK VINA RESULT:      -6.7      1.113      3.599
REMARK  6 active torsions:
REMARK  status: ('A' for Active; 'I' for Inactive)
REMARK    1  A    between atoms: C_13  and  S_1 
REMARK    2  A    between atoms: C_2  and  C_6 
REMARK       I    between atoms: N_3  and  C_2 
REMARK    3  A    between atoms: C_4  and  N_3 
REMARK    4  A    between atoms: N_5  and  C_6 
REMARK       I    between atoms: C_7  and  N_5 
REMARK    5  A    between atoms: C_6  and  C_9 
REMARK    6  A    between atoms: C_9  and  C_13 
ROOT
ATOM      1  C   UNL d   1      53.123  32.829  53.221  0.00  0.00     0.297 C 
ATOM      2  N   UNL d   1      52.375  33.140  53.368  0.00  0.00    -0.207 NA
ATOM      3  O   UNL d   1      53.499  32.985  52.498  0.00  0.00    -0.264 OA
ENDROOT
BRANCH   1   4
ATOM      4  C   UNL d   1      53.501  32.362  53.794  0.00  0.00     0.143 C 
BRANCH   4   5
ATOM      5  N   UNL d   1      53.200  31.616  53.979  0.00  0.00    -0.203 NA
ATOM      6  C   UNL d   1      53.546  30.941  53.657  0.00  0.00     0.280 C 
ATOM      7  O   UNL d   1      54.192  31.012  53.153  0.00  0.00    -0.265 OA
ATOM      8  C   UNL d   1      53.245  30.196  53.842  0.00  0.00     0.068 C 
ENDBRANCH   4   5
BRANCH   4   9
ATOM      9  C   UNL d   1      54.174  32.642  54.178  0.00  0.00     0.036 C 
BRANCH   9  10
ATOM     10  C   UNL d   1      54.102  33.025  54.904  0.00  0.00     0.096 C 
BRANCH  10  11
ATOM     11  S   UNL d   1      54.752  33.412  55.228  0.00  0.00     0.192 S 
ATOM     12  O   UNL d   1      55.330  33.722  55.743  0.00  0.00    -0.222 OA
ATOM     13  O   UNL d   1      54.375  33.059  55.878  0.00  0.00    -0.222 OA
ATOM     14  C   UNL d   1      55.265  33.832  54.740  0.00  0.00     0.145 C 
ENDBRANCH  10  11
ENDBRANCH   9  10
ENDBRANCH   4   9
ENDBRANCH   1   4
BRANCH   2  15
ATOM     15  C   UNL d   1      52.001  33.605  52.796  0.00  0.00     0.085 A 
ATOM     16  C   UNL d   1      51.209  33.833  52.895  0.00  0.00     0.018 A 
ATOM     17  C   UNL d   1      50.830  34.296  52.330  0.00  0.00     0.002 A 
ATOM     18  C   UNL d   1      50.805  33.589  53.572  0.00  0.00     0.002 A 
ATOM     19  C   UNL d   1      50.049  34.524  52.425  0.00  0.00     0.000 A 
ATOM     20  C   UNL d   1      51.251  34.538  51.647  0.00  0.00     0.000 A 
ATOM     21  C   UNL d   1      49.634  34.281  53.105  0.00  0.00     0.000 A 
ATOM     22  C   UNL d   1      50.016  33.816  53.672  0.00  0.00     0.000 A 
ATOM     23  C   UNL d   1      52.034  34.308  51.557  0.00  0.00     0.002 A 
ATOM     24  C   UNL d   1      52.409  33.847  52.121  0.00  0.00     0.019 A 
ENDBRANCH   2  15
TORSDOF 6
ENDMDL
MODEL 8
REMARK VINA RESULT:      -6.7      2.483      4.997
REMARK  6 active torsions:
REMARK  status: ('A' for Active; 'I' for Inactive)
REMARK    1  A    between atoms: C_13  and  S_1 
REMARK    2  A    between atoms: C_2  and  C_6 
REMARK       I    between atoms: N_3  and  C_2 
REMARK    3  A    between atoms: C_4  and  N_3 
REMARK    4  A    between atoms: N_5  and  C_6 
REMARK       I    between atoms: C_7  and  N_5 
REMARK    5  A    between atoms: C_6  and  C_9 
REMARK    6  A    between atoms: C_9  and  C_13 
ROOT
ATOM      1  C   UNL d   1      51.051  34.171  52.453  0.00  0.00     0.297 C 
ATOM      2  N   UNL d   1      50.285  34.301  52.725  0.00  0.00    -0.207 NA
ATOM      3  O   UNL d   1      51.224  34.266  51.648  0.00  0.00    -0.264 OA
ENDROOT
BRANCH   1   4
ATOM      4  C   UNL d   1      51.649  33.944  52.983  0.00  0.00     0.143 C 
BRANCH   4   5
ATOM      5  N   UNL d   1      51.636  33.190  53.318  0.00  0.00    -0.203 NA
ATOM      6  C   UNL d   1      52.093  32.588  52.992  0.00  0.00     0.280 C 
ATOM      7  O   UNL d   1      52.562  32.739  52.333  0.00  0.00    -0.265 OA
ATOM      8  C   UNL d   1      52.081  31.834  53.326  0.00  0.00     0.068 C 
ENDBRANCH   4   5
BRANCH   4   9
ATOM      9  C   UNL d   1      52.252  34.472  53.175  0.00  0.00     0.036 C 
BRANCH   9  10
ATOM     10  C   UNL d   1      52.299  34.780  53.937  0.00  0.00     0.096 C 
BRANCH  10  11
ATOM     11  S   UNL d   1      52.909  35.298  54.132  0.00  0.00     0.192 S 
ATOM     12  O   UNL d   1      53.364  35.930  54.428  0.00  0.00    -0.222 OA
ATOM     13  O   UNL d   1      52.232  35.637  54.473  0.00  0.00    -0.222 OA
ATOM     14  C   UNL d   1      53.677  35.137  53.883  0.00  0.00     0.145 C 
ENDBRANCH  10  11
ENDBRANCH   9  10
ENDBRANCH   4   9
ENDBRANCH   1   4
BRANCH   2  15
ATOM     15  C   UNL d   1      49.691  34.526  52.195  0.00  0.00     0.085 A 
ATOM     16  C   UNL d   1      49.075  35.024  52.445  0.00  0.00     0.018 A 
ATOM     17  C   UNL d   1      48.481  35.252  51.923  0.00  0.00     0.002 A 
ATOM     18  C   UNL d   1      49.067  35.289  53.226  0.00  0.00     0.002 A 
ATOM     19  C   UNL d   1      47.872  35.744  52.166  0.00  0.00     0.000 A 
ATOM     20  C   UNL d   1      48.500  34.977  51.132  0.00  0.00     0.000 A 
ATOM     21  C   UNL d   1      47.857  36.015  52.953  0.00  0.00     0.000 A 
ATOM     22  C   UNL d   1      48.454  35.785  53.475  0.00  0.00     0.000 A 
ATOM     23  C   UNL d   1      49.112  34.485  50.894  0.00  0.00     0.002 A 
ATOM     24  C   UNL d   1      49.703  34.259  51.415  0.00  0.00     0.019 A 
ENDBRANCH   2  15
TORSDOF 6
ENDMDL
MODEL 9
REMARK VINA RESULT:      -6.2      1.842      3.845
REMARK  6 active torsions:
REMARK  status: ('A' for Active; 'I' for Inactive)
REMARK    1  A    between atoms: C_13  and  S_1 
REMARK    2  A    between atoms: C_2  and  C_6 
REMARK       I    between atoms: N_3  and  C_2 
REMARK    3  A    between atoms: C_4  and  N_3 
REMARK    4  A    between atoms: N_5  and  C_6 
REMARK       I    between atoms: C_7  and  N_5 
REMARK    5  A    between atoms: C_6  and  C_9 
REMARK    6  A    between atoms: C_9  and  C_13 
ROOT
ATOM      1  C   UNL d   1      53.247  32.545  53.145  0.00  0.00     0.297 C 
ATOM      2  N   UNL d   1      53.632  32.588  53.871  0.00  0.00    -0.207 NA
ATOM      3  O   UNL d   1      53.611  32.850  52.466  0.00  0.00    -0.264 OA
ENDROOT
BRANCH   1   4
ATOM      4  C   UNL d   1      52.495  32.196  53.093  0.00  0.00     0.143 C 
BRANCH   4   5
ATOM      5  N   UNL d   1      52.376  31.432  53.381  0.00  0.00    -0.203 NA
ATOM      6  C   UNL d   1      52.472  30.784  52.882  0.00  0.00     0.280 C 
ATOM      7  O   UNL d   1      52.686  30.899  52.096  0.00  0.00    -0.265 OA
ATOM      8  C   UNL d   1      52.354  30.020  53.170  0.00  0.00     0.068 C 
ENDBRANCH   4   5
BRANCH   4   9
ATOM      9  C   UNL d   1      51.869  32.611  52.754  0.00  0.00     0.036 C 
BRANCH   9  10
ATOM     10  C   UNL d   1      51.362  33.049  53.233  0.00  0.00     0.096 C 
BRANCH  10  11
ATOM     11  S   UNL d   1      50.829  33.576  52.891  0.00  0.00     0.192 S 
ATOM     12  O   UNL d   1      50.171  34.058  52.722  0.00  0.00    -0.222 OA
ATOM     13  O   UNL d   1      50.454  33.324  53.588  0.00  0.00    -0.222 OA
ATOM     14  C   UNL d   1      51.017  33.943  52.178  0.00  0.00     0.145 C 
ENDBRANCH  10  11
ENDBRANCH   9  10
ENDBRANCH   4   9
ENDBRANCH   1   4
BRANCH   2  15
ATOM     15  C   UNL d   1      54.381  32.936  53.921  0.00  0.00     0.085 A 
ATOM     16  C   UNL d   1      54.630  33.292  54.628  0.00  0.00     0.018 A 
ATOM     17  C   UNL d   1      55.374  33.640  54.685  0.00  0.00     0.002 A 
ATOM     18  C   UNL d   1      54.120  33.293  55.277  0.00  0.00     0.002 A 
ATOM     19  C   UNL d   1      55.623  33.993  55.382  0.00  0.00     0.000 A 
ATOM     20  C   UNL d   1      55.883  33.633  54.020  0.00  0.00     0.000 A 
ATOM     21  C   UNL d   1      55.113  33.998  56.040  0.00  0.00     0.000 A 
ATOM     22  C   UNL d   1      54.367  33.648  55.981  0.00  0.00     0.000 A 
ATOM     23  C   UNL d   1      55.629  33.278  53.325  0.00  0.00     0.002 A 
ATOM     24  C   UNL d   1      54.889  32.932  53.270  0.00  0.00     0.019 A 
ENDBRANCH   2  15
TORSDOF 6
ENDMDL
