MODEL 1
REMARK VINA RESULT:      -2.3      0.000      0.000
REMARK  8 active torsions:
REMARK  status: ('A' for Active; 'I' for Inactive)
REMARK    1  A    between atoms: N_2  and  S_1 
REMARK    2  A    between atoms: C_6  and  S_1 
REMARK    3  A    between atoms: C_5  and  N_2 
REMARK    4  A    between atoms: C_4  and  C_3 
REMARK       I    between atoms: N_9  and  C_4 
REMARK    5  A    between atoms: C_14  and  N_9 
REMARK    6  A    between atoms: C_16  and  C_14 
REMARK    7  A    between atoms: O_20  and  C_15 
REMARK    8  A    between atoms: C_23  and  O_20 
ROOT
ATOM      1  C   UNL d   1      32.557  17.796 -23.925  0.00  0.00     0.076 A 
ATOM      2  C   UNL d   1      32.764  18.450 -23.456  0.00  0.00     0.098 A 
ATOM      3  C   UNL d   1      32.653  17.828 -24.743  0.00  0.00     0.006 A 
ATOM      4  C   UNL d   1      33.069  19.133 -23.813  0.00  0.00     0.020 A 
ATOM      5  C   UNL d   1      32.956  18.509 -25.097  0.00  0.00     0.000 A 
ATOM      6  C   UNL d   1      33.164  19.161 -24.633  0.00  0.00     0.002 A 
ENDROOT
BRANCH   2   7
ATOM      7  N   UNL d   1      32.669  18.420 -22.637  0.00  0.00    -0.158 NA
BRANCH   7   8
ATOM      8  S   UNL d   1      32.770  19.100 -22.183  0.00  0.00     0.285 S 
ATOM      9  O   UNL d   1      32.304  19.524 -22.710  0.00  0.00    -0.198 OA
ATOM     10  O   UNL d   1      33.239  18.668 -21.654  0.00  0.00    -0.198 OA
BRANCH   8  11
ATOM     11  C   UNL d   1      32.869  19.782 -21.731  0.00  0.00     0.105 A 
ATOM     12  C   UNL d   1      33.102  19.725 -20.943  0.00  0.00     0.015 A 
ATOM     13  C   UNL d   1      33.201  20.408 -20.492  0.00  0.00     0.025 A 
ATOM     14  C   UNL d   1      33.066  21.148 -20.830  0.00  0.00     0.100 A 
ATOM     15  C   UNL d   1      32.831  21.203 -21.624  0.00  0.00     0.025 A 
ATOM     16  C   UNL d   1      32.734  20.521 -22.070  0.00  0.00     0.015 A 
BRANCH  14  17
ATOM     17  O   UNL d   1      33.164  21.830 -20.381  0.00  0.00    -0.305 OA
BRANCH  17  18
ATOM     18  C   UNL d   1      32.779  22.528 -20.600  0.00  0.00     0.123 C 
ATOM     19  C   UNL d   1      32.735  23.157 -20.067  0.00  0.00     0.029 C 
ENDBRANCH  17  18
ENDBRANCH  14  17
ENDBRANCH   8  11
ENDBRANCH   7   8
ENDBRANCH   2   7
BRANCH   1  20
ATOM     20  C   UNL d   1      32.253  17.115 -23.572  0.00  0.00     0.281 C 
ATOM     21  N   UNL d   1      31.442  16.960 -23.599  0.00  0.00    -0.204 NA
ATOM     22  O   UNL d   1      32.762  16.589 -23.191  0.00  0.00    -0.265 OA
BRANCH  21  23
ATOM     23  C   UNL d   1      31.145  16.277 -23.243  0.00  0.00     0.127 C 
BRANCH  23  24
ATOM     24  C   UNL d   1      30.336  16.116 -23.273  0.00  0.00     0.119 A 
ATOM     25  O   UNL d   1      29.841  16.259 -23.912  0.00  0.00    -0.304 OA
ATOM     26  C   UNL d   1      29.080  16.017 -23.705  0.00  0.00     0.123 A 
ATOM     27  C   UNL d   1      29.110  15.723 -22.934  0.00  0.00     0.029 A 
ATOM     28  C   UNL d   1      29.888  15.785 -22.667  0.00  0.00     0.028 A 
ENDBRANCH  23  24
ENDBRANCH  21  23
ENDBRANCH   1  20
TORSDOF 8
ENDMDL
MODEL 2
REMARK VINA RESULT:      -0.4      2.077      5.453
REMARK  8 active torsions:
REMARK  status: ('A' for Active; 'I' for Inactive)
REMARK    1  A    between atoms: N_2  and  S_1 
REMARK    2  A    between atoms: C_6  and  S_1 
REMARK    3  A    between atoms: C_5  and  N_2 
REMARK    4  A    between atoms: C_4  and  C_3 
REMARK       I    between atoms: N_9  and  C_4 
REMARK    5  A    between atoms: C_14  and  N_9 
REMARK    6  A    between atoms: C_16  and  C_14 
REMARK    7  A    between atoms: O_20  and  C_15 
REMARK    8  A    between atoms: C_23  and  O_20 
ROOT
ATOM      1  C   UNL d   1      32.533  17.157 -23.867  0.00  0.00     0.076 A 
ATOM      2  C   UNL d   1      31.778  16.827 -23.974  0.00  0.00     0.098 A 
ATOM      3  C   UNL d   1      33.198  16.771 -24.162  0.00  0.00     0.006 A 
ATOM      4  C   UNL d   1      31.696  16.108 -24.379  0.00  0.00     0.020 A 
ATOM      5  C   UNL d   1      33.115  16.055 -24.564  0.00  0.00     0.000 A 
ATOM      6  C   UNL d   1      32.365  15.724 -24.673  0.00  0.00     0.002 A 
ENDROOT
BRANCH   2   7
ATOM      7  N   UNL d   1      31.111  17.213 -23.679  0.00  0.00    -0.158 NA
BRANCH   7   8
ATOM      8  S   UNL d   1      30.368  16.861 -23.740  0.00  0.00     0.285 S 
ATOM      9  O   UNL d   1      30.334  16.787 -22.923  0.00  0.00    -0.198 OA
ATOM     10  O   UNL d   1      30.407  16.938 -24.565  0.00  0.00    -0.198 OA
BRANCH   8  11
ATOM     11  C   UNL d   1      29.626  16.509 -23.798  0.00  0.00     0.105 A 
ATOM     12  C   UNL d   1      29.298  16.353 -24.538  0.00  0.00     0.015 A 
ATOM     13  C   UNL d   1      28.555  16.001 -24.594  0.00  0.00     0.025 A 
ATOM     14  C   UNL d   1      28.139  15.804 -23.909  0.00  0.00     0.100 A 
ATOM     15  C   UNL d   1      28.471  15.962 -23.165  0.00  0.00     0.025 A 
ATOM     16  C   UNL d   1      29.211  16.313 -23.113  0.00  0.00     0.015 A 
BRANCH  14  17
ATOM     17  O   UNL d   1      27.398  15.453 -23.964  0.00  0.00    -0.305 OA
BRANCH  17  18
ATOM     18  C   UNL d   1      26.846  15.554 -23.357  0.00  0.00     0.123 C 
ATOM     19  C   UNL d   1      26.039  15.508 -23.524  0.00  0.00     0.029 C 
ENDBRANCH  17  18
ENDBRANCH  14  17
ENDBRANCH   8  11
ENDBRANCH   7   8
ENDBRANCH   2   7
BRANCH   1  20
ATOM     20  C   UNL d   1      32.617  17.873 -23.464  0.00  0.00     0.281 C 
ATOM     21  N   UNL d   1      32.706  18.577 -23.886  0.00  0.00    -0.204 NA
ATOM     22  O   UNL d   1      32.611  17.883 -22.639  0.00  0.00    -0.265 OA
BRANCH  21  23
ATOM     23  C   UNL d   1      32.789  19.290 -23.478  0.00  0.00     0.127 C 
BRANCH  23  24
ATOM     24  C   UNL d   1      32.897  19.993 -23.896  0.00  0.00     0.119 A 
ATOM     25  O   UNL d   1      32.681  20.127 -24.677  0.00  0.00    -0.304 OA
ATOM     26  C   UNL d   1      32.890  20.901 -24.871  0.00  0.00     0.123 A 
ATOM     27  C   UNL d   1      33.236  21.243 -24.204  0.00  0.00     0.029 A 
ATOM     28  C   UNL d   1      33.241  20.681 -23.601  0.00  0.00     0.028 A 
ENDBRANCH  23  24
ENDBRANCH  21  23
ENDBRANCH   1  20
TORSDOF 8
ENDMDL
MODEL 3
REMARK VINA RESULT:      -0.3      2.044      2.623
REMARK  8 active torsions:
REMARK  status: ('A' for Active; 'I' for Inactive)
REMARK    1  A    between atoms: N_2  and  S_1 
REMARK    2  A    between atoms: C_6  and  S_1 
REMARK    3  A    between atoms: C_5  and  N_2 
REMARK    4  A    between atoms: C_4  and  C_3 
REMARK       I    between atoms: N_9  and  C_4 
REMARK    5  A    between atoms: C_14  and  N_9 
REMARK    6  A    between atoms: C_16  and  C_14 
REMARK    7  A    between atoms: O_20  and  C_15 
REMARK    8  A    between atoms: C_23  and  O_20 
ROOT
ATOM      1  C   UNL d   1      31.907  16.320 -23.594  0.00  0.00     0.076 A 
ATOM      2  C   UNL d   1      32.462  16.915 -23.760  0.00  0.00     0.098 A 
ATOM      3  C   UNL d   1      32.020  15.816 -22.953  0.00  0.00     0.006 A 
ATOM      4  C   UNL d   1      33.131  17.000 -23.278  0.00  0.00     0.020 A 
ATOM      5  C   UNL d   1      32.686  15.901 -22.474  0.00  0.00     0.000 A 
ATOM      6  C   UNL d   1      33.241  16.493 -22.636  0.00  0.00     0.002 A 
ENDROOT
BRANCH   2   7
ATOM      7  N   UNL d   1      32.350  17.421 -24.402  0.00  0.00    -0.158 NA
BRANCH   7   8
ATOM      8  S   UNL d   1      32.527  18.223 -24.333  0.00  0.00     0.285 S 
ATOM      9  O   UNL d   1      33.055  18.163 -24.959  0.00  0.00    -0.198 OA
ATOM     10  O   UNL d   1      31.993  18.279 -23.702  0.00  0.00    -0.198 OA
BRANCH   8  11
ATOM     11  C   UNL d   1      32.706  19.024 -24.267  0.00  0.00     0.105 A 
ATOM     12  C   UNL d   1      32.892  19.348 -23.532  0.00  0.00     0.015 A 
ATOM     13  C   UNL d   1      33.070  20.150 -23.468  0.00  0.00     0.025 A 
ATOM     14  C   UNL d   1      33.063  20.629 -24.139  0.00  0.00     0.100 A 
ATOM     15  C   UNL d   1      32.875  20.302 -24.878  0.00  0.00     0.025 A 
ATOM     16  C   UNL d   1      32.698  19.502 -24.938  0.00  0.00     0.015 A 
BRANCH  14  17
ATOM     17  O   UNL d   1      33.241  21.429 -24.076  0.00  0.00    -0.305 OA
BRANCH  17  18
ATOM     18  C   UNL d   1      32.809  21.985 -24.509  0.00  0.00     0.123 C 
ATOM     19  C   UNL d   1      33.077  22.763 -24.561  0.00  0.00     0.029 C 
ENDBRANCH  17  18
ENDBRANCH  14  17
ENDBRANCH   8  11
ENDBRANCH   7   8
ENDBRANCH   2   7
BRANCH   1  20
ATOM     20  C   UNL d   1      31.240  16.234 -24.074  0.00  0.00     0.281 C 
ATOM     21  N   UNL d   1      30.504  16.502 -23.812  0.00  0.00    -0.204 NA
ATOM     22  O   UNL d   1      31.311  15.880 -24.816  0.00  0.00    -0.265 OA
BRANCH  21  23
ATOM     23  C   UNL d   1      29.840  16.414 -24.295  0.00  0.00     0.127 C 
BRANCH  23  24
ATOM     24  C   UNL d   1      29.085  16.524 -23.982  0.00  0.00     0.119 A 
ATOM     25  O   UNL d   1      28.589  17.159 -24.136  0.00  0.00    -0.304 OA
ATOM     26  C   UNL d   1      27.891  17.048 -23.711  0.00  0.00     0.123 A 
ATOM     27  C   UNL d   1      27.961  16.339 -23.293  0.00  0.00     0.029 A 
ATOM     28  C   UNL d   1      28.700  16.015 -23.462  0.00  0.00     0.028 A 
ENDBRANCH  23  24
ENDBRANCH  21  23
ENDBRANCH   1  20
TORSDOF 8
ENDMDL
MODEL 4
REMARK VINA RESULT:       0.5      2.031      6.010
REMARK  8 active torsions:
REMARK  status: ('A' for Active; 'I' for Inactive)
REMARK    1  A    between atoms: N_2  and  S_1 
REMARK    2  A    between atoms: C_6  and  S_1 
REMARK    3  A    between atoms: C_5  and  N_2 
REMARK    4  A    between atoms: C_4  and  C_3 
REMARK       I    between atoms: N_9  and  C_4 
REMARK    5  A    between atoms: C_14  and  N_9 
REMARK    6  A    between atoms: C_16  and  C_14 
REMARK    7  A    between atoms: O_20  and  C_15 
REMARK    8  A    between atoms: C_23  and  O_20 
ROOT
ATOM      1  C   UNL d   1      32.677  22.493 -20.784  0.00  0.00     0.076 A 
ATOM      2  C   UNL d   1      32.786  22.001 -21.444  0.00  0.00     0.098 A 
ATOM      3  C   UNL d   1      32.291  23.216 -20.866  0.00  0.00     0.006 A 
ATOM      4  C   UNL d   1      32.506  22.241 -22.187  0.00  0.00     0.020 A 
ATOM      5  C   UNL d   1      32.013  23.454 -21.606  0.00  0.00     0.000 A 
ATOM      6  C   UNL d   1      32.120  22.967 -22.265  0.00  0.00     0.002 A 
ENDROOT
BRANCH   2   7
ATOM      7  N   UNL d   1      33.172  21.277 -21.363  0.00  0.00    -0.158 NA
BRANCH   7   8
ATOM      8  S   UNL d   1      33.055  20.681 -21.920  0.00  0.00     0.285 S 
ATOM      9  O   UNL d   1      32.897  20.145 -21.318  0.00  0.00    -0.198 OA
ATOM     10  O   UNL d   1      33.214  21.224 -22.525  0.00  0.00    -0.198 OA
BRANCH   8  11
ATOM     11  C   UNL d   1      32.937  20.083 -22.475  0.00  0.00     0.105 A 
ATOM     12  C   UNL d   1      33.228  19.324 -22.334  0.00  0.00     0.015 A 
ATOM     13  C   UNL d   1      33.110  18.728 -22.889  0.00  0.00     0.025 A 
ATOM     14  C   UNL d   1      32.700  18.888 -23.587  0.00  0.00     0.100 A 
ATOM     15  C   UNL d   1      32.408  19.653 -23.727  0.00  0.00     0.025 A 
ATOM     16  C   UNL d   1      32.528  20.245 -23.171  0.00  0.00     0.015 A 
BRANCH  14  17
ATOM     17  O   UNL d   1      32.582  18.294 -24.142  0.00  0.00    -0.305 OA
BRANCH  17  18
ATOM     18  C   UNL d   1      31.926  17.794 -24.079  0.00  0.00     0.123 C 
ATOM     19  C   UNL d   1      31.884  17.113 -24.543  0.00  0.00     0.029 C 
ENDBRANCH  17  18
ENDBRANCH  14  17
ENDBRANCH   8  11
ENDBRANCH   7   8
ENDBRANCH   2   7
BRANCH   1  20
ATOM     20  C   UNL d   1      32.955  22.256 -20.043  0.00  0.00     0.281 C 
ATOM     21  N   UNL d   1      32.948  22.786 -19.409  0.00  0.00    -0.204 NA
ATOM     22  O   UNL d   1      33.240  21.489 -19.938  0.00  0.00    -0.265 OA
BRANCH  21  23
ATOM     23  C   UNL d   1      33.228  22.544 -18.671  0.00  0.00     0.127 C 
BRANCH  23  24
ATOM     24  C   UNL d   1      32.907  22.866 -17.983  0.00  0.00     0.119 A 
ATOM     25  O   UNL d   1      32.333  22.518 -17.511  0.00  0.00    -0.304 OA
ATOM     26  C   UNL d   1      32.174  23.029 -16.883  0.00  0.00     0.123 A 
ATOM     27  C   UNL d   1      32.655  23.694 -16.972  0.00  0.00     0.029 A 
ATOM     28  C   UNL d   1      33.109  23.593 -17.653  0.00  0.00     0.028 A 
ENDBRANCH  23  24
ENDBRANCH  21  23
ENDBRANCH   1  20
TORSDOF 8
ENDMDL
MODEL 5
REMARK VINA RESULT:       0.7      1.346      2.093
REMARK  8 active torsions:
REMARK  status: ('A' for Active; 'I' for Inactive)
REMARK    1  A    between atoms: N_2  and  S_1 
REMARK    2  A    between atoms: C_6  and  S_1 
REMARK    3  A    between atoms: C_5  and  N_2 
REMARK    4  A    between atoms: C_4  and  C_3 
REMARK       I    between atoms: N_9  and  C_4 
REMARK    5  A    between atoms: C_14  and  N_9 
REMARK    6  A    between atoms: C_16  and  C_14 
REMARK    7  A    between atoms: O_20  and  C_15 
REMARK    8  A    between atoms: C_23  and  O_20 
ROOT
ATOM      1  C   UNL d   1      33.091  19.623 -23.313  0.00  0.00     0.076 A 
ATOM      2  C   UNL d   1      33.159  20.261 -22.785  0.00  0.00     0.098 A 
ATOM      3  C   UNL d   1      33.095  19.756 -24.125  0.00  0.00     0.006 A 
ATOM      4  C   UNL d   1      33.232  21.033 -23.080  0.00  0.00     0.020 A 
ATOM      5  C   UNL d   1      33.168  20.524 -24.418  0.00  0.00     0.000 A 
ATOM      6  C   UNL d   1      33.236  21.162 -23.896  0.00  0.00     0.002 A 
ENDROOT
BRANCH   2   7
ATOM      7  N   UNL d   1      33.154  20.130 -21.971  0.00  0.00    -0.158 NA
BRANCH   7   8
ATOM      8  S   UNL d   1      33.065  20.762 -21.450  0.00  0.00     0.285 S 
ATOM      9  O   UNL d   1      33.239  21.289 -22.055  0.00  0.00    -0.198 OA
ATOM     10  O   UNL d   1      32.890  20.227 -20.842  0.00  0.00    -0.198 OA
BRANCH   8  11
ATOM     11  C   UNL d   1      32.977  21.396 -20.931  0.00  0.00     0.105 A 
ATOM     12  C   UNL d   1      33.067  21.282 -20.120  0.00  0.00     0.015 A 
ATOM     13  C   UNL d   1      32.979  21.917 -19.602  0.00  0.00     0.025 A 
ATOM     14  C   UNL d   1      32.800  22.667 -19.896  0.00  0.00     0.100 A 
ATOM     15  C   UNL d   1      32.710  22.780 -20.713  0.00  0.00     0.025 A 
ATOM     16  C   UNL d   1      32.799  22.144 -21.226  0.00  0.00     0.015 A 
BRANCH  14  17
ATOM     17  O   UNL d   1      32.712  23.301 -19.380  0.00  0.00    -0.305 OA
BRANCH  17  18
ATOM     18  C   UNL d   1      32.396  23.181 -18.626  0.00  0.00     0.123 C 
ATOM     19  C   UNL d   1      32.583  23.702 -18.015  0.00  0.00     0.029 C 
ENDBRANCH  17  18
ENDBRANCH  14  17
ENDBRANCH   8  11
ENDBRANCH   7   8
ENDBRANCH   2   7
BRANCH   1  20
ATOM     20  C   UNL d   1      33.018  18.854 -23.021  0.00  0.00     0.281 C 
ATOM     21  N   UNL d   1      32.774  18.243 -23.520  0.00  0.00    -0.204 NA
ATOM     22  O   UNL d   1      33.190  18.697 -22.229  0.00  0.00    -0.265 OA
BRANCH  21  23
ATOM     23  C   UNL d   1      32.703  17.476 -23.223  0.00  0.00     0.127 C 
BRANCH  23  24
ATOM     24  C   UNL d   1      32.303  16.901 -23.659  0.00  0.00     0.119 A 
ATOM     25  O   UNL d   1      31.488  16.814 -23.708  0.00  0.00    -0.304 OA
ATOM     26  C   UNL d   1      31.328  16.172 -24.201  0.00  0.00     0.123 A 
ATOM     27  C   UNL d   1      32.050  15.864 -24.456  0.00  0.00     0.029 A 
ATOM     28  C   UNL d   1      32.653  16.315 -24.120  0.00  0.00     0.028 A 
ENDBRANCH  23  24
ENDBRANCH  21  23
ENDBRANCH   1  20
TORSDOF 8
ENDMDL
