MODEL 1
REMARK VINA RESULT:      35.4      0.000      0.000
REMARK  5 active torsions:
REMARK  status: ('A' for Active; 'I' for Inactive)
REMARK    1  A    between atoms: C_7  and  C_1 
REMARK    2  A    between atoms: C_8  and  C_2 
REMARK    3  A    between atoms: O_16  and  C_8 
REMARK    4  A    between atoms: O_17  and  C_12 
REMARK    5  A    between atoms: C_21  and  O_16 
ROOT
ATOM      1  C   UNL d   1      45.883 -18.029  43.195  0.00  0.00     0.069 A 
ATOM      2  C   UNL d   1      45.379 -17.622  42.684  0.00  0.00     0.166 A 
ATOM      3  C   UNL d   1      46.143 -17.667  43.892  0.00  0.00     0.200 A 
ATOM      4  O   UNL d   1      45.128 -16.851  42.859  0.00  0.00    -0.301 OA
ATOM      5  C   UNL d   1      45.897 -16.900  44.072  0.00  0.00     0.062 A 
ATOM      6  C   UNL d   1      45.394 -16.497  43.559  0.00  0.00     0.106 A 
ATOM      7  C   UNL d   1      45.146 -15.717  43.744  0.00  0.00     0.067 A 
ATOM      8  C   UNL d   1      46.158 -16.535  44.771  0.00  0.00     0.009 A 
ATOM      9  O   UNL d   1      46.647 -18.067  44.408  0.00  0.00    -0.286 OA
ATOM     10  C   UNL d   1      45.406 -15.360  44.437  0.00  0.00     0.198 A 
ATOM     11  C   UNL d   1      45.915 -15.770  44.953  0.00  0.00     0.042 A 
ATOM     12  O   UNL d   1      45.164 -14.595  44.620  0.00  0.00    -0.286 OA
ENDROOT
BRANCH   1  13
ATOM     13  C   UNL d   1      46.125 -18.794  43.012  0.00  0.00     0.028 A 
ATOM     14  C   UNL d   1      46.084 -19.378  43.593  0.00  0.00     0.094 A 
ATOM     15  C   UNL d   1      46.326 -20.144  43.410  0.00  0.00     0.024 A 
ATOM     16  C   UNL d   1      46.610 -20.329  42.653  0.00  0.00     0.002 A 
ATOM     17  C   UNL d   1      46.647 -19.736  42.080  0.00  0.00     0.000 A 
ATOM     18  C   UNL d   1      46.405 -18.966  42.258  0.00  0.00     0.002 A 
BRANCH  14  19
ATOM     19  O   UNL d   1      45.805 -19.198  44.339  0.00  0.00    -0.328 OA
ATOM     20  C   UNL d   1      45.778 -19.784  44.918  0.00  0.00     0.181 C 
ENDBRANCH  14  19
ENDBRANCH   1  13
BRANCH   2  21
ATOM     21  C   UNL d   1      45.118 -17.986  41.985  0.00  0.00     0.323 C 
ATOM     22  O   UNL d   1      44.354 -18.302  41.949  0.00  0.00    -0.257 OA
BRANCH  21  23
ATOM     23  O   UNL d   1      45.618 -18.033  41.331  0.00  0.00    -0.270 OA
BRANCH  23  24
ATOM     24  C   UNL d   1      45.328 -18.307  40.619  0.00  0.00     0.126 C 
ATOM     25  C   UNL d   1      45.761 -18.203  39.926  0.00  0.00     0.029 C 
ENDBRANCH  23  24
ENDBRANCH  21  23
ENDBRANCH   2  21
TORSDOF 5
ENDMDL
MODEL 2
REMARK VINA RESULT:      35.7      4.851      7.411
REMARK  5 active torsions:
REMARK  status: ('A' for Active; 'I' for Inactive)
REMARK    1  A    between atoms: C_7  and  C_1 
REMARK    2  A    between atoms: C_8  and  C_2 
REMARK    3  A    between atoms: O_16  and  C_8 
REMARK    4  A    between atoms: O_17  and  C_12 
REMARK    5  A    between atoms: C_21  and  O_16 
ROOT
ATOM      1  C   UNL d   1      44.355 -15.385  36.892  0.00  0.00     0.069 A 
ATOM      2  C   UNL d   1      44.243 -16.153  37.172  0.00  0.00     0.166 A 
ATOM      3  C   UNL d   1      43.710 -14.950  36.612  0.00  0.00     0.200 A 
ATOM      4  O   UNL d   1      43.489 -16.498  37.176  0.00  0.00    -0.301 OA
ATOM      5  C   UNL d   1      42.957 -15.288  36.614  0.00  0.00     0.062 A 
ATOM      6  C   UNL d   1      42.849 -16.055  36.894  0.00  0.00     0.106 A 
ATOM      7  C   UNL d   1      42.083 -16.395  36.894  0.00  0.00     0.067 A 
ATOM      8  C   UNL d   1      42.308 -14.852  36.332  0.00  0.00     0.009 A 
ATOM      9  O   UNL d   1      43.814 -14.181  36.331  0.00  0.00    -0.286 OA
ATOM     10  C   UNL d   1      41.442 -15.961  36.615  0.00  0.00     0.198 A 
ATOM     11  C   UNL d   1      41.555 -15.186  36.332  0.00  0.00     0.042 A 
ATOM     12  O   UNL d   1      40.690 -16.294  36.615  0.00  0.00    -0.286 OA
ENDROOT
BRANCH   1  13
ATOM     13  C   UNL d   1      45.108 -15.052  36.893  0.00  0.00     0.028 A 
ATOM     14  C   UNL d   1      45.275 -14.437  37.417  0.00  0.00     0.094 A 
ATOM     15  C   UNL d   1      46.029 -14.103  37.418  0.00  0.00     0.024 A 
ATOM     16  C   UNL d   1      46.615 -14.379  36.900  0.00  0.00     0.002 A 
ATOM     17  C   UNL d   1      46.436 -14.995  36.380  0.00  0.00     0.000 A 
ATOM     18  C   UNL d   1      45.682 -15.333  36.374  0.00  0.00     0.002 A 
BRANCH  14  19
ATOM     19  O   UNL d   1      44.699 -14.164  37.928  0.00  0.00    -0.328 OA
ATOM     20  C   UNL d   1      44.857 -13.515  38.411  0.00  0.00     0.181 C 
ENDBRANCH  14  19
ENDBRANCH   1  13
BRANCH   2  21
ATOM     21  C   UNL d   1      44.892 -16.588  37.454  0.00  0.00     0.323 C 
ATOM     22  O   UNL d   1      45.469 -16.852  36.922  0.00  0.00    -0.257 OA
BRANCH  21  23
ATOM     23  O   UNL d   1      44.960 -16.756  38.259  0.00  0.00    -0.270 OA
BRANCH  23  24
ATOM     24  C   UNL d   1      45.296 -17.461  38.497  0.00  0.00     0.126 C 
ATOM     25  C   UNL d   1      45.174 -17.741  39.263  0.00  0.00     0.029 C 
ENDBRANCH  23  24
ENDBRANCH  21  23
ENDBRANCH   2  21
TORSDOF 5
ENDMDL
MODEL 3
REMARK VINA RESULT:      37.7      5.357      7.416
REMARK  5 active torsions:
REMARK  status: ('A' for Active; 'I' for Inactive)
REMARK    1  A    between atoms: C_7  and  C_1 
REMARK    2  A    between atoms: C_8  and  C_2 
REMARK    3  A    between atoms: O_16  and  C_8 
REMARK    4  A    between atoms: O_17  and  C_12 
REMARK    5  A    between atoms: C_21  and  O_16 
ROOT
ATOM      1  C   UNL d   1      44.175 -15.323  36.944  0.00  0.00     0.069 A 
ATOM      2  C   UNL d   1      43.828 -14.640  37.250  0.00  0.00     0.166 A 
ATOM      3  C   UNL d   1      43.699 -15.926  36.638  0.00  0.00     0.200 A 
ATOM      4  O   UNL d   1      43.004 -14.548  37.255  0.00  0.00    -0.301 OA
ATOM      5  C   UNL d   1      42.878 -15.840  36.639  0.00  0.00     0.062 A 
ATOM      6  C   UNL d   1      42.535 -15.156  36.945  0.00  0.00     0.106 A 
ATOM      7  C   UNL d   1      41.701 -15.072  36.946  0.00  0.00     0.067 A 
ATOM      8  C   UNL d   1      42.399 -16.445  36.331  0.00  0.00     0.009 A 
ATOM      9  O   UNL d   1      44.039 -16.612  36.330  0.00  0.00    -0.286 OA
ATOM     10  C   UNL d   1      41.229 -15.672  36.640  0.00  0.00     0.198 A 
ATOM     11  C   UNL d   1      41.580 -16.362  36.331  0.00  0.00     0.042 A 
ATOM     12  O   UNL d   1      40.411 -15.591  36.640  0.00  0.00    -0.286 OA
ENDROOT
BRANCH   1  13
ATOM     13  C   UNL d   1      44.995 -15.405  36.945  0.00  0.00     0.028 A 
ATOM     14  C   UNL d   1      45.349 -15.895  37.506  0.00  0.00     0.094 A 
ATOM     15  C   UNL d   1      46.169 -15.977  37.507  0.00  0.00     0.024 A 
ATOM     16  C   UNL d   1      46.636 -15.573  36.953  0.00  0.00     0.002 A 
ATOM     17  C   UNL d   1      46.270 -15.086  36.397  0.00  0.00     0.000 A 
ATOM     18  C   UNL d   1      45.448 -15.000  36.391  0.00  0.00     0.002 A 
BRANCH  14  19
ATOM     19  O   UNL d   1      44.891 -16.294  38.052  0.00  0.00    -0.328 OA
ATOM     20  C   UNL d   1      45.197 -16.956  38.436  0.00  0.00     0.181 C 
ENDBRANCH  14  19
ENDBRANCH   1  13
BRANCH   2  21
ATOM     21  C   UNL d   1      44.308 -14.036  37.558  0.00  0.00     0.323 C 
ATOM     22  O   UNL d   1      44.885 -13.688  37.078  0.00  0.00    -0.257 OA
BRANCH  21  23
ATOM     23  O   UNL d   1      44.208 -13.785  38.338  0.00  0.00    -0.270 OA
BRANCH  23  24
ATOM     24  C   UNL d   1      44.479 -13.049  38.563  0.00  0.00     0.126 C 
ATOM     25  C   UNL d   1      44.338 -12.770  39.325  0.00  0.00     0.029 C 
ENDBRANCH  23  24
ENDBRANCH  21  23
ENDBRANCH   2  21
TORSDOF 5
ENDMDL
