MODEL 1
REMARK VINA RESULT:      -7.2      0.000      0.000
REMARK  4 active torsions:
REMARK  status: ('A' for Active; 'I' for Inactive)
REMARK    1  A    between atoms: N_3  and  S_1 
REMARK    2  A    between atoms: C_4  and  S_1 
REMARK    3  A    between atoms: S_2  and  C_5 
REMARK    4  A    between atoms: C_13  and  N_3 
ROOT
ATOM      1  N   UNL d   1     -47.204  14.206  22.289  0.00  0.00    -0.158 NA
ENDROOT
BRANCH   1   2
ATOM      2  S   UNL d   1     -46.899  13.507  22.573  0.00  0.00     0.285 S 
ATOM      3  O   UNL d   1     -46.638  13.886  23.258  0.00  0.00    -0.198 OA
ATOM      4  O   UNL d   1     -47.153  13.106  21.890  0.00  0.00    -0.198 OA
BRANCH   2   5
ATOM      5  C   UNL d   1     -46.577  12.766  22.870  0.00  0.00     0.105 A 
ATOM      6  C   UNL d   1     -45.813  12.569  22.691  0.00  0.00     0.015 A 
ATOM      7  C   UNL d   1     -45.489  11.867  22.964  0.00  0.00     0.022 A 
ATOM      8  C   UNL d   1     -45.939  11.362  23.420  0.00  0.00     0.103 A 
ATOM      9  C   UNL d   1     -46.723  11.567  23.602  0.00  0.00     0.022 A 
ATOM     10  N   UNL d   1     -45.602  10.645  23.697  0.00  0.00    -0.148 N 
ATOM     11  C   UNL d   1     -47.027  12.279  23.315  0.00  0.00     0.015 A 
ENDBRANCH   2   5
ENDBRANCH   1   2
BRANCH   1  12
ATOM     12  C   UNL d   1     -47.976  14.422  22.459  0.00  0.00     0.094 A 
ATOM     13  C   UNL d   1     -48.111  15.029  22.970  0.00  0.00     0.021 A 
ATOM     14  C   UNL d   1     -48.894  15.248  23.143  0.00  0.00     0.015 A 
ATOM     15  C   UNL d   1     -49.507  14.850  22.798  0.00  0.00     0.107 A 
ATOM     16  C   UNL d   1     -49.373  14.225  22.272  0.00  0.00     0.015 A 
ATOM     17  C   UNL d   1     -48.590  14.006  22.099  0.00  0.00     0.021 A 
BRANCH  15  18
ATOM     18  S   UNL d   1     -50.289  15.069  22.971  0.00  0.00     0.302 S 
ATOM     19  O   UNL d   1     -50.316  15.529  22.269  0.00  0.00    -0.197 OA
ATOM     20  O   UNL d   1     -50.264  14.623  23.652  0.00  0.00    -0.197 OA
ATOM     21  N   UNL d   1     -51.064  15.286  23.142  0.00  0.00    -0.043 N 
ENDBRANCH  15  18
ENDBRANCH   1  12
TORSDOF 4
ENDMDL
MODEL 2
REMARK VINA RESULT:      -6.9      1.499      1.843
REMARK  4 active torsions:
REMARK  status: ('A' for Active; 'I' for Inactive)
REMARK    1  A    between atoms: N_3  and  S_1 
REMARK    2  A    between atoms: C_4  and  S_1 
REMARK    3  A    between atoms: S_2  and  C_5 
REMARK    4  A    between atoms: C_13  and  N_3 
ROOT
ATOM      1  N   UNL d   1     -47.692  13.131  23.601  0.00  0.00    -0.158 NA
ENDROOT
BRANCH   1   2
ATOM      2  S   UNL d   1     -46.966  13.028  23.247  0.00  0.00     0.285 S 
ATOM      3  O   UNL d   1     -47.107  12.219  23.168  0.00  0.00    -0.198 OA
ATOM      4  O   UNL d   1     -46.805  13.841  23.317  0.00  0.00    -0.198 OA
BRANCH   2   5
ATOM      5  C   UNL d   1     -46.198  12.924  22.873  0.00  0.00     0.105 A 
ATOM      6  C   UNL d   1     -45.807  12.222  22.966  0.00  0.00     0.015 A 
ATOM      7  C   UNL d   1     -45.074  12.103  22.618  0.00  0.00     0.022 A 
ATOM      8  C   UNL d   1     -44.735  12.697  22.174  0.00  0.00     0.103 A 
ATOM      9  C   UNL d   1     -45.138  13.418  22.080  0.00  0.00     0.022 A 
ATOM     10  N   UNL d   1     -43.984  12.571  21.820  0.00  0.00    -0.148 N 
ATOM     11  C   UNL d   1     -45.875  13.513  22.441  0.00  0.00     0.015 A 
ENDBRANCH   2   5
ENDBRANCH   1   2
BRANCH   1  12
ATOM     12  C   UNL d   1     -48.365  13.236  23.146  0.00  0.00     0.094 A 
ATOM     13  C   UNL d   1     -48.592  13.981  22.943  0.00  0.00     0.021 A 
ATOM     14  C   UNL d   1     -49.275  14.087  22.482  0.00  0.00     0.015 A 
ATOM     15  C   UNL d   1     -49.701  13.443  22.242  0.00  0.00     0.107 A 
ATOM     16  C   UNL d   1     -49.471  12.674  22.447  0.00  0.00     0.015 A 
ATOM     17  C   UNL d   1     -48.788  12.568  22.909  0.00  0.00     0.021 A 
BRANCH  15  18
ATOM     18  S   UNL d   1     -50.382  13.549  21.781  0.00  0.00     0.302 S 
ATOM     19  O   UNL d   1     -50.856  13.516  22.473  0.00  0.00    -0.197 OA
ATOM     20  O   UNL d   1     -49.923  13.581  21.109  0.00  0.00    -0.197 OA
ATOM     21  N   UNL d   1     -51.059  13.654  21.323  0.00  0.00    -0.043 N 
ENDBRANCH  15  18
ENDBRANCH   1  12
TORSDOF 4
ENDMDL
MODEL 3
REMARK VINA RESULT:      -6.6      1.528      4.370
REMARK  4 active torsions:
REMARK  status: ('A' for Active; 'I' for Inactive)
REMARK    1  A    between atoms: N_3  and  S_1 
REMARK    2  A    between atoms: C_4  and  S_1 
REMARK    3  A    between atoms: S_2  and  C_5 
REMARK    4  A    between atoms: C_13  and  N_3 
ROOT
ATOM      1  N   UNL d   1     -48.812  12.553  22.716  0.00  0.00    -0.158 NA
ENDROOT
BRANCH   1   2
ATOM      2  S   UNL d   1     -49.263  13.208  22.891  0.00  0.00     0.285 S 
ATOM      3  O   UNL d   1     -49.287  12.992  23.688  0.00  0.00    -0.198 OA
ATOM      4  O   UNL d   1     -49.251  13.442  22.093  0.00  0.00    -0.198 OA
BRANCH   2   5
ATOM      5  C   UNL d   1     -49.740  13.901  23.072  0.00  0.00     0.105 A 
ATOM      6  C   UNL d   1     -49.392  14.532  23.441  0.00  0.00     0.015 A 
ATOM      7  C   UNL d   1     -49.830  15.202  23.622  0.00  0.00     0.022 A 
ATOM      8  C   UNL d   1     -50.621  15.234  23.428  0.00  0.00     0.103 A 
ATOM      9  C   UNL d   1     -50.975  14.584  23.049  0.00  0.00     0.022 A 
ATOM     10  N   UNL d   1     -51.064  15.922  23.616  0.00  0.00    -0.148 N 
ATOM     11  C   UNL d   1     -50.513  13.921  22.877  0.00  0.00     0.015 A 
ENDBRANCH   2   5
ENDBRANCH   1   2
BRANCH   1  12
ATOM     12  C   UNL d   1     -47.996  12.612  22.666  0.00  0.00     0.094 A 
ATOM     13  C   UNL d   1     -47.660  12.859  21.978  0.00  0.00     0.021 A 
ATOM     14  C   UNL d   1     -46.833  12.918  21.928  0.00  0.00     0.015 A 
ATOM     15  C   UNL d   1     -46.377  12.728  22.569  0.00  0.00     0.107 A 
ATOM     16  C   UNL d   1     -46.719  12.473  23.279  0.00  0.00     0.015 A 
ATOM     17  C   UNL d   1     -47.546  12.413  23.329  0.00  0.00     0.021 A 
BRANCH  15  18
ATOM     18  S   UNL d   1     -45.551  12.787  22.519  0.00  0.00     0.302 S 
ATOM     19  O   UNL d   1     -45.630  13.412  21.964  0.00  0.00    -0.197 OA
ATOM     20  O   UNL d   1     -45.475  12.180  23.057  0.00  0.00    -0.197 OA
ATOM     21  N   UNL d   1     -44.732  12.846  22.469  0.00  0.00    -0.043 N 
ENDBRANCH  15  18
ENDBRANCH   1  12
TORSDOF 4
ENDMDL
MODEL 4
REMARK VINA RESULT:      -6.5      8.403      9.612
REMARK  4 active torsions:
REMARK  status: ('A' for Active; 'I' for Inactive)
REMARK    1  A    between atoms: N_3  and  S_1 
REMARK    2  A    between atoms: C_4  and  S_1 
REMARK    3  A    between atoms: S_2  and  C_5 
REMARK    4  A    between atoms: C_13  and  N_3 
ROOT
ATOM      1  N   UNL d   1     -40.672  14.691  18.675  0.00  0.00    -0.158 NA
ENDROOT
BRANCH   1   2
ATOM      2  S   UNL d   1     -40.137  14.484  18.097  0.00  0.00     0.285 S 
ATOM      3  O   UNL d   1     -40.062  15.274  17.867  0.00  0.00    -0.198 OA
ATOM      4  O   UNL d   1     -40.198  13.684  18.313  0.00  0.00    -0.198 OA
BRANCH   2   5
ATOM      5  C   UNL d   1     -39.572  14.261  17.487  0.00  0.00     0.105 A 
ATOM      6  C   UNL d   1     -39.399  14.789  16.899  0.00  0.00     0.015 A 
ATOM      7  C   UNL d   1     -38.863  14.594  16.309  0.00  0.00     0.022 A 
ATOM      8  C   UNL d   1     -38.501  13.864  16.315  0.00  0.00     0.103 A 
ATOM      9  C   UNL d   1     -38.680  13.324  16.921  0.00  0.00     0.022 A 
ATOM     10  N   UNL d   1     -37.953  13.670  15.708  0.00  0.00    -0.148 N 
ATOM     11  C   UNL d   1     -39.223  13.544  17.503  0.00  0.00     0.015 A 
ENDBRANCH   2   5
ENDBRANCH   1   2
BRANCH   1  12
ATOM     12  C   UNL d   1     -40.413  14.926  19.415  0.00  0.00     0.094 A 
ATOM     13  C   UNL d   1     -40.161  15.683  19.523  0.00  0.00     0.021 A 
ATOM     14  C   UNL d   1     -39.899  15.922  20.274  0.00  0.00     0.015 A 
ATOM     15  C   UNL d   1     -39.899  15.393  20.886  0.00  0.00     0.107 A 
ATOM     16  C   UNL d   1     -40.158  14.613  20.780  0.00  0.00     0.015 A 
ATOM     17  C   UNL d   1     -40.420  14.375  20.029  0.00  0.00     0.021 A 
BRANCH  15  18
ATOM     18  S   UNL d   1     -39.637  15.632  21.636  0.00  0.00     0.302 S 
ATOM     19  O   UNL d   1     -38.861  15.373  21.447  0.00  0.00    -0.197 OA
ATOM     20  O   UNL d   1     -40.390  15.882  21.820  0.00  0.00    -0.197 OA
ATOM     21  N   UNL d   1     -39.377  15.868  22.380  0.00  0.00    -0.043 N 
ENDBRANCH  15  18
ENDBRANCH   1  12
TORSDOF 4
ENDMDL
MODEL 5
REMARK VINA RESULT:      -6.2      8.433     10.032
REMARK  4 active torsions:
REMARK  status: ('A' for Active; 'I' for Inactive)
REMARK    1  A    between atoms: N_3  and  S_1 
REMARK    2  A    between atoms: C_4  and  S_1 
REMARK    3  A    between atoms: S_2  and  C_5 
REMARK    4  A    between atoms: C_13  and  N_3 
ROOT
ATOM      1  N   UNL d   1     -40.515  14.106  18.532  0.00  0.00    -0.158 NA
ENDROOT
BRANCH   1   2
ATOM      2  S   UNL d   1     -40.369  14.451  19.255  0.00  0.00     0.285 S 
ATOM      3  O   UNL d   1     -39.770  13.904  19.407  0.00  0.00    -0.198 OA
ATOM      4  O   UNL d   1     -40.969  15.011  19.121  0.00  0.00    -0.198 OA
BRANCH   2   5
ATOM      5  C   UNL d   1     -40.218  14.818  20.019  0.00  0.00     0.105 A 
ATOM      6  C   UNL d   1     -40.517  15.555  20.167  0.00  0.00     0.015 A 
ATOM      7  C   UNL d   1     -40.384  15.922  20.888  0.00  0.00     0.022 A 
ATOM      8  C   UNL d   1     -39.947  15.542  21.462  0.00  0.00     0.103 A 
ATOM      9  C   UNL d   1     -39.641  14.784  21.307  0.00  0.00     0.022 A 
ATOM     10  N   UNL d   1     -39.814  15.922  22.199  0.00  0.00    -0.148 N 
ATOM     11  C   UNL d   1     -39.789  14.436  20.573  0.00  0.00     0.015 A 
ENDBRANCH   2   5
ENDBRANCH   1   2
BRANCH   1  12
ATOM     12  C   UNL d   1     -40.002  14.223  17.905  0.00  0.00     0.094 A 
ATOM     13  C   UNL d   1     -40.090  14.875  17.440  0.00  0.00     0.021 A 
ATOM     14  C   UNL d   1     -39.569  14.993  16.803  0.00  0.00     0.015 A 
ATOM     15  C   UNL d   1     -38.982  14.456  16.660  0.00  0.00     0.107 A 
ATOM     16  C   UNL d   1     -38.887  13.784  17.136  0.00  0.00     0.015 A 
ATOM     17  C   UNL d   1     -39.409  13.665  17.772  0.00  0.00     0.021 A 
BRANCH  15  18
ATOM     18  S   UNL d   1     -38.461  14.574  16.024  0.00  0.00     0.302 S 
ATOM     19  O   UNL d   1     -38.281  15.341  16.315  0.00  0.00    -0.197 OA
ATOM     20  O   UNL d   1     -38.637  13.830  15.742  0.00  0.00    -0.197 OA
ATOM     21  N   UNL d   1     -37.945  14.692  15.394  0.00  0.00    -0.043 N 
ENDBRANCH  15  18
ENDBRANCH   1  12
TORSDOF 4
ENDMDL
MODEL 6
REMARK VINA RESULT:      -6.2      8.137      8.959
REMARK  4 active torsions:
REMARK  status: ('A' for Active; 'I' for Inactive)
REMARK    1  A    between atoms: N_3  and  S_1 
REMARK    2  A    between atoms: C_4  and  S_1 
REMARK    3  A    between atoms: S_2  and  C_5 
REMARK    4  A    between atoms: C_13  and  N_3 
ROOT
ATOM      1  N   UNL d   1     -40.960  15.060  20.525  0.00  0.00    -0.158 NA
ENDROOT
BRANCH   1   2
ATOM      2  S   UNL d   1     -40.368  15.007  21.081  0.00  0.00     0.285 S 
ATOM      3  O   UNL d   1     -40.413  14.183  21.069  0.00  0.00    -0.198 OA
ATOM      4  O   UNL d   1     -40.306  15.836  21.108  0.00  0.00    -0.198 OA
BRANCH   2   5
ATOM      5  C   UNL d   1     -39.741  14.957  21.669  0.00  0.00     0.105 A 
ATOM      6  C   UNL d   1     -39.464  14.229  21.887  0.00  0.00     0.015 A 
ATOM      7  C   UNL d   1     -38.868  14.160  22.446  0.00  0.00     0.022 A 
ATOM      8  C   UNL d   1     -38.551  14.830  22.786  0.00  0.00     0.103 A 
ATOM      9  C   UNL d   1     -38.837  15.577  22.560  0.00  0.00     0.022 A 
ATOM     10  N   UNL d   1     -37.940  14.754  23.357  0.00  0.00    -0.148 N 
ATOM     11  C   UNL d   1     -39.439  15.620  21.995  0.00  0.00     0.015 A 
ENDBRANCH   2   5
ENDBRANCH   1   2
BRANCH   1  12
ATOM     12  C   UNL d   1     -40.780  15.066  19.726  0.00  0.00     0.094 A 
ATOM     13  C   UNL d   1     -40.685  14.367  19.337  0.00  0.00     0.021 A 
ATOM     14  C   UNL d   1     -40.503  14.374  18.527  0.00  0.00     0.015 A 
ATOM     15  C   UNL d   1     -40.422  15.079  18.140  0.00  0.00     0.107 A 
ATOM     16  C   UNL d   1     -40.519  15.801  18.535  0.00  0.00     0.015 A 
ATOM     17  C   UNL d   1     -40.701  15.794  19.345  0.00  0.00     0.021 A 
BRANCH  15  18
ATOM     18  S   UNL d   1     -40.240  15.086  17.330  0.00  0.00     0.302 S 
ATOM     19  O   UNL d   1     -41.042  14.924  17.148  0.00  0.00    -0.197 OA
ATOM     20  O   UNL d   1     -39.460  15.243  17.507  0.00  0.00    -0.197 OA
ATOM     21  N   UNL d   1     -40.059  15.092  16.527  0.00  0.00    -0.043 N 
ENDBRANCH  15  18
ENDBRANCH   1  12
TORSDOF 4
ENDMDL
