MODEL 1
REMARK VINA RESULT:      34.0      0.000      0.000
REMARK  5 active torsions:
REMARK  status: ('A' for Active; 'I' for Inactive)
REMARK    1  A    between atoms: C_7  and  C_1 
REMARK    2  A    between atoms: N_8  and  C_7 
REMARK    3  A    between atoms: C_9  and  N_8 
REMARK    4  A    between atoms: O_17  and  C_13 
REMARK    5  A    between atoms: O_20  and  C_15 
ROOT
ATOM      1  C   UNL d   1     -56.719 -98.763 -44.408  0.00  0.00     0.145 A 
ATOM      2  C   UNL d   1     -57.132 -98.767 -45.122  0.00  0.00     0.305 A 
ATOM      3  C   UNL d   1     -57.129 -98.759 -43.694  0.00  0.00     0.305 A 
ATOM      4  O   UNL d   1     -57.953 -98.759 -43.693  0.00  0.00    -0.269 OA
ATOM      5  O   UNL d   1     -57.949 -98.766 -45.115  0.00  0.00    -0.269 OA
ATOM      6  C   UNL d   1     -58.359 -98.762 -44.401  0.00  0.00     0.242 A 
ATOM      7  O   UNL d   1     -56.714 -98.755 -42.969  0.00  0.00    -0.259 OA
ATOM      8  O   UNL d   1     -56.722 -98.770 -45.836  0.00  0.00    -0.259 OA
ATOM      9  C   UNL d   1     -58.359 -98.758 -43.578  0.00  0.00     0.035 A 
ATOM     10  C   UNL d   1     -59.083 -98.764 -44.817  0.00  0.00     0.035 A 
ATOM     11  C   UNL d   1     -59.797 -98.762 -44.404  0.00  0.00     0.001 A 
ATOM     12  C   UNL d   1     -59.071 -98.755 -43.163  0.00  0.00     0.001 A 
ATOM     13  C   UNL d   1     -59.795 -98.757 -43.579  0.00  0.00    -0.000 A 
ENDROOT
BRANCH   1  14
ATOM     14  C   UNL d   1     -55.887 -98.763 -44.408  0.00  0.00     0.110 C 
BRANCH  14  15
ATOM     15  N   UNL d   1     -55.474 -99.343 -44.825  0.00  0.00    -0.242 NA
BRANCH  15  16
ATOM     16  C   UNL d   1     -55.268-100.048 -44.450  0.00  0.00     0.106 A 
ATOM     17  C   UNL d   1     -55.405-100.769 -44.822  0.00  0.00     0.045 A 
ATOM     18  C   UNL d   1     -55.200-101.470 -44.452  0.00  0.00     0.096 A 
ATOM     19  C   UNL d   1     -54.851-101.455 -43.695  0.00  0.00     0.026 A 
ATOM     20  C   UNL d   1     -54.714-100.734 -43.323  0.00  0.00     0.028 A 
ATOM     21  C   UNL d   1     -54.923-100.027 -43.701  0.00  0.00     0.112 A 
BRANCH  18  22
ATOM     22  O   UNL d   1     -55.339-102.187 -44.826  0.00  0.00    -0.328 OA
ATOM     23  C   UNL d   1     -54.760-102.524 -45.308  0.00  0.00     0.181 C 
ENDBRANCH  18  22
BRANCH  21  24
ATOM     24  O   UNL d   1     -54.786 -99.306 -43.329  0.00  0.00    -0.327 OA
ATOM     25  C   UNL d   1     -54.714 -99.271 -42.513  0.00  0.00     0.181 C 
ENDBRANCH  21  24
ENDBRANCH  15  16
ENDBRANCH  14  15
ENDBRANCH   1  14
TORSDOF 5
ENDMDL
