MODEL 1
REMARK VINA RESULT:      -2.6      0.000      0.000
REMARK  9 active torsions:
REMARK  status: ('A' for Active; 'I' for Inactive)
REMARK    1  A    between atoms: N_6  and  C_1 
REMARK    2  A    between atoms: N_2  and  C_10 
REMARK    3  A    between atoms: C_3  and  N_6 
REMARK    4  A    between atoms: N_4  and  C_3 
REMARK       I    between atoms: C_7  and  N_4 
REMARK    5  A    between atoms: C_12  and  C_7 
REMARK    6  A    between atoms: C_11  and  C_8 
REMARK    7  A    between atoms: C_15  and  C_11 
REMARK    8  A    between atoms: O_21  and  C_15 
REMARK    9  A    between atoms: C_25  and  O_21 
ROOT
ATOM      1  C   UNL d   1      58.088   0.219  30.057  0.00  0.00     0.277 C 
ATOM      2  S   UNL d   1      57.813   0.652  29.404  0.00  0.00    -0.023 SA
ENDROOT
BRANCH   1   3
ATOM      3  N   UNL d   1      57.745   0.338  30.797  0.00  0.00    -0.347 NA
BRANCH   3   4
ATOM      4  C   UNL d   1      57.410   0.461  31.541  0.00  0.00     0.248 A 
ATOM      5  N   UNL d   1      56.594   0.482  31.722  0.00  0.00    -0.210 NA
ATOM      6  C   UNL d   1      56.518   0.619  32.534  0.00  0.00     0.096 A 
ATOM      7  C   UNL d   1      57.275   0.682  32.853  0.00  0.00     0.059 A 
ATOM      8  S   UNL d   1      57.825   0.585  32.247  0.00  0.00    -0.033 SA
BRANCH   6   9
ATOM      9  C   UNL d   1      55.805   0.682  32.947  0.00  0.00     0.088 C 
BRANCH   9  10
ATOM     10  C   UNL d   1      55.680   0.234  33.626  0.00  0.00     0.302 C 
ATOM     11  O   UNL d   1      55.908  -0.560  33.639  0.00  0.00    -0.259 OA
BRANCH  10  12
ATOM     12  O   UNL d   1      55.329   0.577  34.291  0.00  0.00    -0.271 OA
BRANCH  12  13
ATOM     13  C   UNL d   1      54.871   0.118  34.799  0.00  0.00     0.126 C 
ATOM     14  C   UNL d   1      54.626   0.424  35.525  0.00  0.00     0.029 C 
ENDBRANCH  12  13
ENDBRANCH  10  12
ENDBRANCH   9  10
ENDBRANCH   6   9
ENDBRANCH   3   4
ENDBRANCH   1   3
BRANCH   1  15
ATOM     15  N   UNL d   1      58.701  -0.325  29.958  0.00  0.00    -0.168 NA
ATOM     16  C   UNL d   1      58.982  -0.507  29.202  0.00  0.00     0.282 C 
ATOM     17  O   UNL d   1      58.649  -0.141  28.539  0.00  0.00    -0.265 OA
BRANCH  16  18
ATOM     18  C   UNL d   1      59.595  -1.051  29.103  0.00  0.00     0.060 A 
ATOM     19  C   UNL d   1      59.436  -1.864  29.115  0.00  0.00     0.028 A 
ATOM     20  C   UNL d   1      60.047  -2.405  29.016  0.00  0.00     0.127 A 
ATOM     21  C   UNL d   1      60.820  -2.144  28.905  0.00  0.00     0.024 A 
ATOM     22  C   UNL d   1      60.980  -1.334  28.894  0.00  0.00     0.002 A 
ATOM     23  C   UNL d   1      60.365  -0.782  28.993  0.00  0.00     0.005 A 
BRANCH  20  24
ATOM     24  N   UNL d   1      59.875  -3.214  29.029  0.00  0.00    -0.114 N 
ATOM     25  O   UNL d   1      60.292  -3.726  29.520  0.00  0.00    -0.532 OA
ATOM     26  O   UNL d   1      59.277  -3.508  28.543  0.00  0.00    -0.532 OA
ENDBRANCH  20  24
ENDBRANCH  16  18
ENDBRANCH   1  15
TORSDOF 9
ENDMDL
MODEL 2
REMARK VINA RESULT:      -2.2      1.352      5.989
REMARK  9 active torsions:
REMARK  status: ('A' for Active; 'I' for Inactive)
REMARK    1  A    between atoms: N_6  and  C_1 
REMARK    2  A    between atoms: N_2  and  C_10 
REMARK    3  A    between atoms: C_3  and  N_6 
REMARK    4  A    between atoms: N_4  and  C_3 
REMARK       I    between atoms: C_7  and  N_4 
REMARK    5  A    between atoms: C_12  and  C_7 
REMARK    6  A    between atoms: C_11  and  C_8 
REMARK    7  A    between atoms: C_15  and  C_11 
REMARK    8  A    between atoms: O_21  and  C_15 
REMARK    9  A    between atoms: C_25  and  O_21 
ROOT
ATOM      1  C   UNL d   1      58.267   0.546  31.910  0.00  0.00     0.277 C 
ATOM      2  S   UNL d   1      58.903   0.681  32.428  0.00  0.00    -0.023 SA
ENDROOT
BRANCH   1   3
ATOM      3  N   UNL d   1      58.417   0.292  31.140  0.00  0.00    -0.347 NA
BRANCH   3   4
ATOM      4  C   UNL d   1      58.572   0.030  30.373  0.00  0.00     0.248 A 
ATOM      5  N   UNL d   1      58.467  -0.747  30.082  0.00  0.00    -0.210 NA
ATOM      6  C   UNL d   1      58.692  -0.752  29.287  0.00  0.00     0.096 A 
ATOM      7  C   UNL d   1      58.934   0.010  29.086  0.00  0.00     0.059 A 
ATOM      8  S   UNL d   1      58.861   0.492  29.750  0.00  0.00    -0.033 SA
BRANCH   6   9
ATOM      9  C   UNL d   1      58.676  -1.409  28.786  0.00  0.00     0.088 C 
BRANCH   9  10
ATOM     10  C   UNL d   1      58.829  -2.161  29.084  0.00  0.00     0.302 C 
ATOM     11  O   UNL d   1      58.226  -2.580  29.463  0.00  0.00    -0.259 OA
BRANCH  10  12
ATOM     12  O   UNL d   1      59.581  -2.494  29.006  0.00  0.00    -0.271 OA
BRANCH  12  13
ATOM     13  C   UNL d   1      59.666  -3.255  28.706  0.00  0.00     0.126 C 
ATOM     14  C   UNL d   1      60.412  -3.609  28.680  0.00  0.00     0.029 C 
ENDBRANCH  12  13
ENDBRANCH  10  12
ENDBRANCH   9  10
ENDBRANCH   6   9
ENDBRANCH   3   4
ENDBRANCH   1   3
BRANCH   1  15
ATOM     15  N   UNL d   1      57.494   0.668  32.171  0.00  0.00    -0.168 NA
ATOM     16  C   UNL d   1      57.194   0.236  32.809  0.00  0.00     0.282 C 
ATOM     17  O   UNL d   1      57.671  -0.322  33.190  0.00  0.00    -0.265 OA
BRANCH  16  18
ATOM     18  C   UNL d   1      56.421   0.358  33.070  0.00  0.00     0.060 A 
ATOM     19  C   UNL d   1      56.258   0.414  33.881  0.00  0.00     0.028 A 
ATOM     20  C   UNL d   1      55.487   0.535  34.139  0.00  0.00     0.127 A 
ATOM     21  C   UNL d   1      54.872   0.603  33.597  0.00  0.00     0.024 A 
ATOM     22  C   UNL d   1      55.033   0.548  32.788  0.00  0.00     0.002 A 
ATOM     23  C   UNL d   1      55.811   0.425  32.521  0.00  0.00     0.005 A 
BRANCH  20  24
ATOM     24  N   UNL d   1      55.339   0.588  34.951  0.00  0.00    -0.114 N 
ATOM     25  O   UNL d   1      55.955   0.559  35.496  0.00  0.00    -0.532 OA
ATOM     26  O   UNL d   1      54.561   0.671  35.215  0.00  0.00    -0.532 OA
ENDBRANCH  20  24
ENDBRANCH  16  18
ENDBRANCH   1  15
TORSDOF 9
ENDMDL
MODEL 3
REMARK VINA RESULT:      -1.8      1.528      5.852
REMARK  9 active torsions:
REMARK  status: ('A' for Active; 'I' for Inactive)
REMARK    1  A    between atoms: N_6  and  C_1 
REMARK    2  A    between atoms: N_2  and  C_10 
REMARK    3  A    between atoms: C_3  and  N_6 
REMARK    4  A    between atoms: N_4  and  C_3 
REMARK       I    between atoms: C_7  and  N_4 
REMARK    5  A    between atoms: C_12  and  C_7 
REMARK    6  A    between atoms: C_11  and  C_8 
REMARK    7  A    between atoms: C_15  and  C_11 
REMARK    8  A    between atoms: O_21  and  C_15 
REMARK    9  A    between atoms: C_25  and  O_21 
ROOT
ATOM      1  C   UNL d   1      58.611   0.124  29.460  0.00  0.00     0.277 C 
ATOM      2  S   UNL d   1      58.383   0.682  28.888  0.00  0.00    -0.023 SA
ENDROOT
BRANCH   1   3
ATOM      3  N   UNL d   1      58.972  -0.577  29.223  0.00  0.00    -0.347 NA
BRANCH   3   4
ATOM      4  C   UNL d   1      59.341  -1.275  28.981  0.00  0.00     0.248 A 
ATOM      5  N   UNL d   1      60.147  -1.472  29.080  0.00  0.00    -0.210 NA
ATOM      6  C   UNL d   1      60.267  -2.222  28.754  0.00  0.00     0.096 A 
ATOM      7  C   UNL d   1      59.546  -2.488  28.455  0.00  0.00     0.059 A 
ATOM      8  S   UNL d   1      58.976  -1.909  28.593  0.00  0.00    -0.033 SA
BRANCH   6   9
ATOM      9  C   UNL d   1      60.986  -2.629  28.733  0.00  0.00     0.088 C 
BRANCH   9  10
ATOM     10  C   UNL d   1      61.051  -3.372  29.082  0.00  0.00     0.302 C 
ATOM     11  O   UNL d   1      61.033  -3.438  29.905  0.00  0.00    -0.259 OA
BRANCH  10  12
ATOM     12  O   UNL d   1      61.133  -4.046  28.612  0.00  0.00    -0.271 OA
BRANCH  12  13
ATOM     13  C   UNL d   1      61.103  -4.794  28.953  0.00  0.00     0.126 C 
ATOM     14  C   UNL d   1      61.059  -5.466  28.476  0.00  0.00     0.029 C 
ENDBRANCH  12  13
ENDBRANCH  10  12
ENDBRANCH   9  10
ENDBRANCH   6   9
ENDBRANCH   3   4
ENDBRANCH   1   3
BRANCH   1  15
ATOM     15  N   UNL d   1      58.473   0.279  30.259  0.00  0.00    -0.168 NA
ATOM     16  C   UNL d   1      57.763   0.050  30.614  0.00  0.00     0.282 C 
ATOM     17  O   UNL d   1      57.185  -0.339  30.168  0.00  0.00    -0.265 OA
BRANCH  16  18
ATOM     18  C   UNL d   1      57.626   0.205  31.413  0.00  0.00     0.060 A 
ATOM     19  C   UNL d   1      56.886   0.038  31.749  0.00  0.00     0.028 A 
ATOM     20  C   UNL d   1      56.751   0.194  32.545  0.00  0.00     0.127 A 
ATOM     21  C   UNL d   1      57.346   0.514  33.014  0.00  0.00     0.024 A 
ATOM     22  C   UNL d   1      58.084   0.680  32.680  0.00  0.00     0.002 A 
ATOM     23  C   UNL d   1      58.226   0.525  31.875  0.00  0.00     0.005 A 
BRANCH  20  24
ATOM     24  N   UNL d   1      56.008   0.023  32.868  0.00  0.00    -0.114 N 
ATOM     25  O   UNL d   1      55.434   0.608  32.936  0.00  0.00    -0.532 OA
ATOM     26  O   UNL d   1      55.846  -0.745  33.122  0.00  0.00    -0.532 OA
ENDBRANCH  20  24
ENDBRANCH  16  18
ENDBRANCH   1  15
TORSDOF 9
ENDMDL
