MODEL 1
REMARK VINA RESULT:      55.2      0.000      0.000
REMARK  4 active torsions:
REMARK  status: ('A' for Active; 'I' for Inactive)
REMARK    1  A    between atoms: C_11  and  C_4 
REMARK    2  A    between atoms: C_9  and  C_5 
REMARK    3  A    between atoms: O_21  and  C_16 
REMARK    4  A    between atoms: O_22  and  C_17 
ROOT
ATOM      1  N   UNL d   1     -58.751 -98.951 -43.338  0.00  0.00    -0.185 N 
ATOM      2  C   UNL d   1     -59.567 -98.932 -43.484  0.00  0.00     0.219 A 
ATOM      3  N   UNL d   1     -58.641 -99.071 -42.534  0.00  0.00    -0.153 NA
ATOM      4  C   UNL d   1     -58.359 -98.841 -44.055  0.00  0.00     0.187 A 
ATOM      5  C   UNL d   1     -59.387 -99.128 -42.174  0.00  0.00     0.156 A 
ATOM      6  S   UNL d   1     -59.959 -99.042 -42.765  0.00  0.00    -0.024 SA
ATOM      7  N   UNL d   1     -58.933 -98.755 -44.643  0.00  0.00    -0.127 NA
ATOM      8  N   UNL d   1     -59.677 -98.810 -44.297  0.00  0.00    -0.120 NA
ENDROOT
BRANCH   4   9
ATOM      9  C   UNL d   1     -57.544 -98.820 -44.168  0.00  0.00     0.040 A 
ATOM     10  C   UNL d   1     -57.045 -98.843 -43.514  0.00  0.00     0.029 A 
ATOM     11  C   UNL d   1     -56.234 -98.822 -43.620  0.00  0.00     0.116 A 
ATOM     12  C   UNL d   1     -55.911 -98.780 -44.382  0.00  0.00     0.116 A 
ATOM     13  C   UNL d   1     -56.417 -98.758 -45.039  0.00  0.00     0.026 A 
ATOM     14  C   UNL d   1     -57.232 -98.778 -44.927  0.00  0.00     0.005 A 
BRANCH  11  15
ATOM     15  O   UNL d   1     -55.724 -98.844 -42.968  0.00  0.00    -0.326 OA
ATOM     16  C   UNL d   1     -54.914 -98.936 -43.072  0.00  0.00     0.181 C 
ENDBRANCH  11  15
BRANCH  12  17
ATOM     17  O   UNL d   1     -55.089 -98.759 -44.499  0.00  0.00    -0.326 OA
ATOM     18  C   UNL d   1     -54.781 -99.014 -45.218  0.00  0.00     0.181 C 
ENDBRANCH  12  17
ENDBRANCH   4   9
BRANCH   5  19
ATOM     19  C   UNL d   1     -59.532 -99.250 -41.371  0.00  0.00     0.126 A 
ATOM     20  O   UNL d   1     -59.301 -98.758 -40.756  0.00  0.00    -0.298 OA
ATOM     21  C   UNL d   1     -59.563 -99.093 -40.049  0.00  0.00     0.134 A 
ATOM     22 BR   UNL d   1     -59.448 -98.777 -39.293  0.00  0.00    -0.022 Br
ATOM     23  C   UNL d   1     -59.955 -99.793 -40.224  0.00  0.00     0.034 A 
ATOM     24  C   UNL d   1     -59.937 -99.892 -41.047  0.00  0.00     0.029 A 
ENDBRANCH   5  19
TORSDOF 4
ENDMDL
