MODEL 1
REMARK VINA RESULT:      18.7      0.000      0.000
REMARK  3 active torsions:
REMARK  status: ('A' for Active; 'I' for Inactive)
REMARK    1  A    between atoms: C_6  and  C_1 
REMARK    2  A    between atoms: C_7  and  C_6 
REMARK    3  A    between atoms: O_17  and  C_15 
ROOT
ATOM      1  C   UNL d   1     -52.000  24.323  33.326  0.00  0.00     0.141 A 
ATOM      2  C   UNL d   1     -51.014  25.222  33.315  0.00  0.00     0.064 A 
ATOM      3  C   UNL d   1     -51.181  24.418  33.315  0.00  0.00     0.220 A 
ATOM      4  C   UNL d   1     -51.731  25.633  33.325  0.00  0.00     0.105 A 
ATOM      5  O   UNL d   1     -52.348  25.076  33.332  0.00  0.00    -0.304 OA
ATOM      6  C   UNL d   1     -51.733  26.451  33.327  0.00  0.00     0.049 A 
ATOM      7  C   UNL d   1     -50.300  25.636  33.307  0.00  0.00     0.007 A 
ATOM      8  O   UNL d   1     -50.625  23.801  33.307  0.00  0.00    -0.284 OA
ATOM      9  C   UNL d   1     -51.020  26.866  33.319  0.00  0.00     0.096 A 
ATOM     10  C   UNL d   1     -50.307  26.457  33.309  0.00  0.00     0.024 A 
ENDROOT
BRANCH   1  11
ATOM     11  C   UNL d   1     -52.410  23.607  33.329  0.00  0.00     0.053 C 
BRANCH  11  12
ATOM     12  C   UNL d   1     -53.069  23.500  33.822  0.00  0.00     0.102 A 
ATOM     13  O   UNL d   1     -53.066  23.197  34.588  0.00  0.00    -0.305 OA
ATOM     14  C   UNL d   1     -53.842  23.190  34.867  0.00  0.00     0.123 A 
ATOM     15  C   UNL d   1     -54.336  23.491  34.272  0.00  0.00     0.029 A 
ATOM     16  C   UNL d   1     -53.859  23.684  33.623  0.00  0.00     0.027 A 
ENDBRANCH  11  12
ENDBRANCH   1  11
BRANCH   9  17
ATOM     17  O   UNL d   1     -51.024  27.691  33.321  0.00  0.00    -0.328 OA
ATOM     18  C   UNL d   1     -50.314  28.107  33.324  0.00  0.00     0.181 C 
ENDBRANCH   9  17
TORSDOF 3
ENDMDL
