MODEL 1
REMARK VINA RESULT:     200.3      0.000      0.000
REMARK  7 active torsions:
REMARK  status: ('A' for Active; 'I' for Inactive)
REMARK    1  A    between atoms: N_6  and  S_1 
REMARK    2  A    between atoms: C_9  and  S_1 
REMARK    3  A    between atoms: N_2  and  C_11 
REMARK    4  A    between atoms: C_14  and  C_3 
REMARK    5  A    between atoms: C_7  and  C_15 
REMARK       I    between atoms: N_10  and  C_7 
REMARK    6  A    between atoms: C_25  and  N_10 
REMARK    7  A    between atoms: O_33  and  C_26 
ROOT
ATOM      1  C   UNL d   1     -58.986 -99.532 -44.476  0.00  0.00     0.085 A 
ATOM      2  C   UNL d   1     -59.144 -98.841 -44.062  0.00  0.00     0.021 A 
ATOM      3  C   UNL d   1     -58.939-100.256 -44.083  0.00  0.00     0.021 A 
ATOM      4  C   UNL d   1     -59.213 -99.589 -42.842  0.00  0.00     0.085 A 
ATOM      5  C   UNL d   1     -59.259 -98.865 -43.239  0.00  0.00     0.021 A 
ATOM      6  C   UNL d   1     -59.050-100.292 -43.270  0.00  0.00     0.021 A 
ENDROOT
BRANCH   4   7
ATOM      7  N   UNL d   1     -59.327 -99.621 -42.018  0.00  0.00    -0.208 NA
ATOM      8  C   UNL d   1     -58.819 -99.207 -41.522  0.00  0.00     0.279 C 
ATOM      9  O   UNL d   1     -58.201 -98.764 -41.833  0.00  0.00    -0.265 OA
BRANCH   8  10
ATOM     10  C   UNL d   1     -58.929 -99.236 -40.690  0.00  0.00     0.058 A 
ATOM     11  C   UNL d   1     -58.282 -99.312 -40.205  0.00  0.00     0.005 A 
ATOM     12  C   UNL d   1     -58.388 -99.341 -39.394  0.00  0.00     0.013 A 
ATOM     13  C   UNL d   1     -59.130 -99.293 -39.071  0.00  0.00     0.104 A 
ATOM     14  C   UNL d   1     -59.784 -99.216 -39.561  0.00  0.00     0.013 A 
ATOM     15  C   UNL d   1     -59.677 -99.188 -40.376  0.00  0.00     0.005 A 
BRANCH  13  16
ATOM     16  S   UNL d   1     -59.230 -99.323 -38.244  0.00  0.00     0.271 S 
ATOM     17  O   UNL d   1     -59.895 -98.849 -38.312  0.00  0.00    -0.200 OA
ATOM     18  O   UNL d   1     -58.564 -99.795 -38.189  0.00  0.00    -0.200 OA
BRANCH  16  19
ATOM     19  N   UNL d   1     -59.316 -99.361 -37.424  0.00  0.00    -0.229 N 
ATOM     20  C   UNL d   1     -59.728 -99.969 -37.062  0.00  0.00     0.092 A 
ATOM     21  C   UNL d   1     -59.808 -99.995 -36.232  0.00  0.00     0.020 A 
ATOM     22  C   UNL d   1     -59.472 -99.409 -35.772  0.00  0.00     0.003 A 
ATOM     23  C   UNL d   1     -59.054 -98.789 -36.124  0.00  0.00     0.020 A 
ATOM     24  C   UNL d   1     -58.975 -98.763 -36.954  0.00  0.00     0.092 A 
ENDBRANCH  16  19
ENDBRANCH  13  16
ENDBRANCH   8  10
ENDBRANCH   4   7
BRANCH   1  25
ATOM     25  N   UNL d   1     -58.871 -99.508 -45.298  0.00  0.00    -0.211 N 
ATOM     26  C   UNL d   1     -58.154 -99.636 -45.702  0.00  0.00     0.105 A 
ATOM     27  C   UNL d   1     -58.303 -99.557 -46.510  0.00  0.00     0.143 A 
ATOM     28  N   UNL d   1     -59.108 -99.380 -46.617  0.00  0.00    -0.127 NA
ATOM     29  N   UNL d   1     -59.460 -99.350 -45.867  0.00  0.00    -0.060 NA
BRANCH  26  30
ATOM     30  C   UNL d   1     -57.434 -99.808 -45.357  0.00  0.00     0.019 A 
ATOM     31  C   UNL d   1     -57.311-100.547 -45.010  0.00  0.00     0.004 A 
ATOM     32  C   UNL d   1     -56.583-100.722 -44.662  0.00  0.00     0.024 A 
ATOM     33  C   UNL d   1     -55.983-100.168 -44.658  0.00  0.00     0.094 A 
ATOM     34  C   UNL d   1     -56.106 -99.421 -45.007  0.00  0.00     0.024 A 
ATOM     35  C   UNL d   1     -56.832 -99.243 -45.357  0.00  0.00     0.004 A 
BRANCH  33  36
ATOM     36  O   UNL d   1     -55.257-100.334 -44.313  0.00  0.00    -0.328 OA
ATOM     37  C   UNL d   1     -55.209-100.609 -43.541  0.00  0.00     0.181 C 
ENDBRANCH  33  36
ENDBRANCH  26  30
ENDBRANCH   1  25
TORSDOF 7
ENDMDL
