MODEL 1
REMARK VINA RESULT:      40.1      0.000      0.000
REMARK  3 active torsions:
REMARK  status: ('A' for Active; 'I' for Inactive)
REMARK    1  A    between atoms: S_11  and  C_1 
REMARK    2  A    between atoms: C_7  and  C_13 
REMARK    3  A    between atoms: C_13  and  S_11 
ROOT
ATOM      1  C   UNL d   1     -50.293  26.135  33.343  0.00  0.00     0.141 A 
ATOM      2  N   UNL d   1     -51.118  26.117  33.352  0.00  0.00    -0.232 NA
ATOM      3  S   UNL d   1     -50.019  25.367  33.328  0.00  0.00    -0.060 SA
ATOM      4  C   UNL d   1     -51.357  25.328  33.342  0.00  0.00     0.088 A 
ATOM      5  C   UNL d   1     -50.668  24.854  33.327  0.00  0.00     0.049 A 
ATOM      6  C   UNL d   1     -52.099  24.969  33.345  0.00  0.00     0.020 A 
ATOM      7  C   UNL d   1     -50.733  24.037  33.315  0.00  0.00     0.008 A 
ATOM      8  C   UNL d   1     -51.477  23.672  33.317  0.00  0.00     0.001 A 
ATOM      9  C   UNL d   1     -52.163  24.142  33.333  0.00  0.00     0.002 A 
ENDROOT
BRANCH   1  10
ATOM     10  S   UNL d   1     -49.829  26.820  33.349  0.00  0.00    -0.057 SA
BRANCH  10  11
ATOM     11  C   UNL d   1     -49.897  27.356  33.972  0.00  0.00     0.084 C 
BRANCH  11  12
ATOM     12  C   UNL d   1     -49.227  27.703  34.288  0.00  0.00     0.212 A 
ATOM     13  O   UNL d   1     -49.207  28.287  34.868  0.00  0.00    -0.259 OA
ATOM     14  C   UNL d   1     -48.419  28.473  35.020  0.00  0.00     0.262 A 
ATOM     15  S   UNL d   1     -48.154  29.029  35.562  0.00  0.00    -0.029 SA
ATOM     16  N   UNL d   1     -47.949  28.005  34.534  0.00  0.00    -0.109 NA
ATOM     17  N   UNL d   1     -48.444  27.527  34.080  0.00  0.00    -0.119 NA
ENDBRANCH  11  12
ENDBRANCH  10  11
ENDBRANCH   1  10
TORSDOF 3
ENDMDL
