MODEL 1
REMARK VINA RESULT:      -5.7      0.000      0.000
REMARK  5 active torsions:
REMARK  status: ('A' for Active; 'I' for Inactive)
REMARK    1  A    between atoms: N_3  and  C_1 
REMARK    2  A    between atoms: N_6  and  C_1 
REMARK       I    between atoms: C_2  and  N_4 
REMARK    3  A    between atoms: C_5  and  C_2 
REMARK    4  A    between atoms: C_7  and  N_3 
REMARK    5  A    between atoms: N_4  and  N_6 
ROOT
ATOM      1  N   UNL d   1     -47.347  13.197  22.193  0.00  0.00    -0.273 N 
ATOM      2  H   UNL d   1     -47.189  13.016  21.401  0.00  0.00     0.189 HD
ENDROOT
BRANCH   1   3
ATOM      3  N   UNL d   1     -48.119  13.178  22.479  0.00  0.00    -0.264 N 
ATOM      4  C   UNL d   1     -48.714  12.875  22.002  0.00  0.00     0.272 C 
ATOM      5  O   UNL d   1     -48.542  12.592  21.243  0.00  0.00    -0.266 OA
ATOM      6  H   UNL d   1     -48.290  13.456  23.226  0.00  0.00     0.190 HD
BRANCH   4   7
ATOM      7  C   UNL d   1     -49.501  12.845  22.269  0.00  0.00     0.058 A 
ATOM      8  C   UNL d   1     -49.719  12.323  22.855  0.00  0.00     0.011 A 
ATOM      9  C   UNL d   1     -50.505  12.310  23.105  0.00  0.00     0.035 A 
ATOM     10 BR   UNL d   1     -50.753  11.790  23.698  0.00  0.00    -0.049 Br
ATOM     11  C   UNL d   1     -51.064  12.824  22.763  0.00  0.00     0.007 A 
ATOM     12  C   UNL d   1     -50.837  13.351  22.169  0.00  0.00     0.001 A 
ATOM     13  C   UNL d   1     -50.059  13.359  21.927  0.00  0.00     0.005 A 
ENDBRANCH   4   7
ENDBRANCH   1   3
BRANCH   1  14
ATOM     14  C   UNL d   1     -46.743  13.399  22.702  0.00  0.00     0.191 C 
ATOM     15  S   UNL d   1     -46.644  14.171  22.946  0.00  0.00    -0.039 SA
BRANCH  14  16
ATOM     16  N   UNL d   1     -46.218  12.804  22.978  0.00  0.00    -0.331 N 
ATOM     17  H   UNL d   1     -46.448  12.310  23.601  0.00  0.00     0.168 HD
BRANCH  16  18
ATOM     18  C   UNL d   1     -45.481  12.717  22.628  0.00  0.00     0.058 A 
ATOM     19  C   UNL d   1     -45.034  12.045  22.794  0.00  0.00     0.016 A 
ATOM     20  C   UNL d   1     -45.326  11.464  23.307  0.00  0.00     0.002 C 
ATOM     21  C   UNL d   1     -44.303  11.961  22.445  0.00  0.00     0.001 A 
ATOM     22  C   UNL d   1     -44.014  12.533  21.939  0.00  0.00     0.000 A 
ATOM     23  C   UNL d   1     -44.451  13.200  21.772  0.00  0.00     0.002 A 
ATOM     24  C   UNL d   1     -45.192  13.289  22.122  0.00  0.00     0.017 A 
ENDBRANCH  16  18
ENDBRANCH  14  16
ENDBRANCH   1  14
TORSDOF 5
ENDMDL
MODEL 2
REMARK VINA RESULT:      -5.7      2.014      4.809
REMARK  5 active torsions:
REMARK  status: ('A' for Active; 'I' for Inactive)
REMARK    1  A    between atoms: N_3  and  C_1 
REMARK    2  A    between atoms: N_6  and  C_1 
REMARK       I    between atoms: C_2  and  N_4 
REMARK    3  A    between atoms: C_5  and  C_2 
REMARK    4  A    between atoms: C_7  and  N_3 
REMARK    5  A    between atoms: N_4  and  N_6 
ROOT
ATOM      1  N   UNL d   1     -47.897  13.917  22.842  0.00  0.00    -0.273 N 
ATOM      2  H   UNL d   1     -47.684  14.620  23.224  0.00  0.00     0.189 HD
ENDROOT
BRANCH   1   3
ATOM      3  N   UNL d   1     -47.344  13.315  22.740  0.00  0.00    -0.264 N 
ATOM      4  C   UNL d   1     -46.594  13.402  23.061  0.00  0.00     0.272 C 
ATOM      5  O   UNL d   1     -46.394  14.087  23.481  0.00  0.00    -0.266 OA
ATOM      6  H   UNL d   1     -47.541  12.640  22.326  0.00  0.00     0.190 HD
BRANCH   4   7
ATOM      7  C   UNL d   1     -46.020  12.808  22.970  0.00  0.00     0.058 A 
ATOM      8  C   UNL d   1     -46.116  12.082  23.328  0.00  0.00     0.011 A 
ATOM      9  C   UNL d   1     -45.534  11.507  23.225  0.00  0.00     0.035 A 
ATOM     10 BR   UNL d   1     -45.607  10.762  23.577  0.00  0.00    -0.049 Br
ATOM     11  C   UNL d   1     -44.861  11.668  22.762  0.00  0.00     0.007 A 
ATOM     12  C   UNL d   1     -44.769  12.405  22.402  0.00  0.00     0.001 A 
ATOM     13  C   UNL d   1     -45.347  12.969  22.507  0.00  0.00     0.005 A 
ENDBRANCH   4   7
ENDBRANCH   1   3
BRANCH   1  14
ATOM     14  C   UNL d   1     -48.655  13.809  22.561  0.00  0.00     0.191 C 
ATOM     15  S   UNL d   1     -48.797  13.746  21.760  0.00  0.00    -0.039 SA
BRANCH  14  16
ATOM     16  N   UNL d   1     -49.295  13.762  23.102  0.00  0.00    -0.331 N 
ATOM     17  H   UNL d   1     -49.457  13.046  23.484  0.00  0.00     0.168 HD
BRANCH  16  18
ATOM     18  C   UNL d   1     -49.754  14.426  23.248  0.00  0.00     0.058 A 
ATOM     19  C   UNL d   1     -50.517  14.329  23.545  0.00  0.00     0.016 A 
ATOM     20  C   UNL d   1     -50.815  13.571  23.694  0.00  0.00     0.002 C 
ATOM     21  C   UNL d   1     -50.971  14.990  23.689  0.00  0.00     0.001 A 
ATOM     22  C   UNL d   1     -50.678  15.737  23.543  0.00  0.00     0.000 A 
ATOM     23  C   UNL d   1     -49.925  15.839  23.249  0.00  0.00     0.002 A 
ATOM     24  C   UNL d   1     -49.461  15.173  23.101  0.00  0.00     0.017 A 
ENDBRANCH  16  18
ENDBRANCH  14  16
ENDBRANCH   1  14
TORSDOF 5
ENDMDL
MODEL 3
REMARK VINA RESULT:      -5.5      2.053      4.941
REMARK  5 active torsions:
REMARK  status: ('A' for Active; 'I' for Inactive)
REMARK    1  A    between atoms: N_3  and  C_1 
REMARK    2  A    between atoms: N_6  and  C_1 
REMARK       I    between atoms: C_2  and  N_4 
REMARK    3  A    between atoms: C_5  and  C_2 
REMARK    4  A    between atoms: C_7  and  N_3 
REMARK    5  A    between atoms: N_4  and  N_6 
ROOT
ATOM      1  N   UNL d   1     -47.891  13.712  22.562  0.00  0.00    -0.273 N 
ATOM      2  H   UNL d   1     -47.814  14.441  22.948  0.00  0.00     0.189 HD
ENDROOT
BRANCH   1   3
ATOM      3  N   UNL d   1     -47.229  13.242  22.424  0.00  0.00    -0.264 N 
ATOM      4  C   UNL d   1     -46.517  13.439  22.780  0.00  0.00     0.272 C 
ATOM      5  O   UNL d   1     -46.463  14.103  23.273  0.00  0.00    -0.266 OA
ATOM      6  H   UNL d   1     -47.282  12.588  21.939  0.00  0.00     0.190 HD
BRANCH   4   7
ATOM      7  C   UNL d   1     -45.836  12.979  22.655  0.00  0.00     0.058 A 
ATOM      8  C   UNL d   1     -45.266  13.220  22.125  0.00  0.00     0.011 A 
ATOM      9  C   UNL d   1     -44.599  12.747  22.016  0.00  0.00     0.035 A 
ATOM     10 BR   UNL d   1     -44.006  12.968  21.484  0.00  0.00    -0.049 Br
ATOM     11  C   UNL d   1     -44.512  12.037  22.443  0.00  0.00     0.007 A 
ATOM     12  C   UNL d   1     -45.092  11.799  22.979  0.00  0.00     0.001 A 
ATOM     13  C   UNL d   1     -45.749  12.270  23.082  0.00  0.00     0.005 A 
ENDBRANCH   4   7
ENDBRANCH   1   3
BRANCH   1  14
ATOM     14  C   UNL d   1     -48.622  13.449  22.314  0.00  0.00     0.191 C 
ATOM     15  S   UNL d   1     -48.797  13.398  21.518  0.00  0.00    -0.039 SA
BRANCH  14  16
ATOM     16  N   UNL d   1     -49.198  13.228  22.882  0.00  0.00    -0.331 N 
ATOM     17  H   UNL d   1     -49.150  12.487  23.248  0.00  0.00     0.168 HD
BRANCH  16  18
ATOM     18  C   UNL d   1     -49.805  13.746  23.070  0.00  0.00     0.058 A 
ATOM     19  C   UNL d   1     -50.464  13.464  23.479  0.00  0.00     0.016 A 
ATOM     20  C   UNL d   1     -50.511  12.667  23.696  0.00  0.00     0.002 C 
ATOM     21  C   UNL d   1     -51.064  13.982  23.664  0.00  0.00     0.001 A 
ATOM     22  C   UNL d   1     -51.018  14.768  23.450  0.00  0.00     0.000 A 
ATOM     23  C   UNL d   1     -50.370  15.053  23.047  0.00  0.00     0.002 A 
ATOM     24  C   UNL d   1     -49.759  14.533  22.857  0.00  0.00     0.017 A 
ENDBRANCH  16  18
ENDBRANCH  14  16
ENDBRANCH   1  14
TORSDOF 5
ENDMDL
MODEL 4
REMARK VINA RESULT:      -5.2      8.828      9.227
REMARK  5 active torsions:
REMARK  status: ('A' for Active; 'I' for Inactive)
REMARK    1  A    between atoms: N_3  and  C_1 
REMARK    2  A    between atoms: N_6  and  C_1 
REMARK       I    between atoms: C_2  and  N_4 
REMARK    3  A    between atoms: C_5  and  C_2 
REMARK    4  A    between atoms: C_7  and  N_3 
REMARK    5  A    between atoms: N_4  and  N_6 
ROOT
ATOM      1  N   UNL d   1     -39.352  14.073  20.144  0.00  0.00    -0.273 N 
ATOM      2  H   UNL d   1     -39.978  13.632  20.459  0.00  0.00     0.189 HD
ENDROOT
BRANCH   1   3
ATOM      3  N   UNL d   1     -39.384  14.346  19.368  0.00  0.00    -0.264 N 
ATOM      4  C   UNL d   1     -40.069  14.231  18.931  0.00  0.00     0.272 C 
ATOM      5  O   UNL d   1     -40.720  13.844  19.266  0.00  0.00    -0.266 OA
ATOM      6  H   UNL d   1     -38.743  14.728  19.038  0.00  0.00     0.190 HD
BRANCH   4   7
ATOM      7  C   UNL d   1     -40.124  14.498  18.146  0.00  0.00     0.058 A 
ATOM      8  C   UNL d   1     -40.655  15.082  17.944  0.00  0.00     0.011 A 
ATOM      9  C   UNL d   1     -40.693  15.331  17.159  0.00  0.00     0.035 A 
ATOM     10 BR   UNL d   1     -41.223  15.922  16.927  0.00  0.00    -0.049 Br
ATOM     11  C   UNL d   1     -40.195  14.991  16.584  0.00  0.00     0.007 A 
ATOM     12  C   UNL d   1     -39.658  14.400  16.795  0.00  0.00     0.001 A 
ATOM     13  C   UNL d   1     -39.626  14.157  17.572  0.00  0.00     0.005 A 
ENDBRANCH   4   7
ENDBRANCH   1   3
BRANCH   1  14
ATOM     14  C   UNL d   1     -38.695  14.244  20.596  0.00  0.00     0.191 C 
ATOM     15  S   UNL d   1     -37.960  13.960  20.386  0.00  0.00    -0.039 SA
BRANCH  14  16
ATOM     16  N   UNL d   1     -38.777  14.718  21.284  0.00  0.00    -0.331 N 
ATOM     17  H   UNL d   1     -38.914  15.531  21.209  0.00  0.00     0.168 HD
BRANCH  16  18
ATOM     18  C   UNL d   1     -38.722  14.372  22.026  0.00  0.00     0.058 A 
ATOM     19  C   UNL d   1     -38.823  14.840  22.697  0.00  0.00     0.016 A 
ATOM     20  C   UNL d   1     -38.978  15.650  22.622  0.00  0.00     0.002 C 
ATOM     21  C   UNL d   1     -38.767  14.494  23.432  0.00  0.00     0.001 A 
ATOM     22  C   UNL d   1     -38.614  13.696  23.506  0.00  0.00     0.000 A 
ATOM     23  C   UNL d   1     -38.513  13.228  22.847  0.00  0.00     0.002 A 
ATOM     24  C   UNL d   1     -38.568  13.574  22.100  0.00  0.00     0.017 A 
ENDBRANCH  16  18
ENDBRANCH  14  16
ENDBRANCH   1  14
TORSDOF 5
ENDMDL
MODEL 5
REMARK VINA RESULT:      -4.4      9.013     10.019
REMARK  5 active torsions:
REMARK  status: ('A' for Active; 'I' for Inactive)
REMARK    1  A    between atoms: N_3  and  C_1 
REMARK    2  A    between atoms: N_6  and  C_1 
REMARK       I    between atoms: C_2  and  N_4 
REMARK    3  A    between atoms: C_5  and  C_2 
REMARK    4  A    between atoms: C_7  and  N_3 
REMARK    5  A    between atoms: N_4  and  N_6 
ROOT
ATOM      1  N   UNL d   1     -39.158  14.897  19.802  0.00  0.00    -0.273 N 
ATOM      2  H   UNL d   1     -38.652  15.547  19.885  0.00  0.00     0.189 HD
ENDROOT
BRANCH   1   3
ATOM      3  N   UNL d   1     -39.093  14.399  19.149  0.00  0.00    -0.264 N 
ATOM      4  C   UNL d   1     -38.500  14.537  18.599  0.00  0.00     0.272 C 
ATOM      5  O   UNL d   1     -37.975  15.169  18.697  0.00  0.00    -0.266 OA
ATOM      6  H   UNL d   1     -39.610  13.776  19.053  0.00  0.00     0.190 HD
BRANCH   4   7
ATOM      7  C   UNL d   1     -38.415  14.046  17.933  0.00  0.00     0.058 A 
ATOM      8  C   UNL d   1     -38.315  14.369  17.192  0.00  0.00     0.011 A 
ATOM      9  C   UNL d   1     -38.232  13.863  16.545  0.00  0.00     0.035 A 
ATOM     10 BR   UNL d   1     -38.129  14.165  15.782  0.00  0.00    -0.049 Br
ATOM     11  C   UNL d   1     -38.252  13.037  16.651  0.00  0.00     0.007 A 
ATOM     12  C   UNL d   1     -38.354  12.716  17.405  0.00  0.00     0.001 A 
ATOM     13  C   UNL d   1     -38.435  13.220  18.039  0.00  0.00     0.005 A 
ENDBRANCH   4   7
ENDBRANCH   1   3
BRANCH   1  14
ATOM     14  C   UNL d   1     -39.729  14.741  20.362  0.00  0.00     0.191 C 
ATOM     15  S   UNL d   1     -40.498  14.994  20.256  0.00  0.00    -0.039 SA
BRANCH  14  16
ATOM     16  N   UNL d   1     -39.523  14.315  21.056  0.00  0.00    -0.331 N 
ATOM     17  H   UNL d   1     -39.505  13.487  21.039  0.00  0.00     0.168 HD
BRANCH  16  18
ATOM     18  C   UNL d   1     -39.342  14.721  21.745  0.00  0.00     0.058 A 
ATOM     19  C   UNL d   1     -38.976  14.319  22.365  0.00  0.00     0.016 A 
ATOM     20  C   UNL d   1     -38.795  13.514  22.292  0.00  0.00     0.002 C 
ATOM     21  C   UNL d   1     -38.797  14.725  23.048  0.00  0.00     0.001 A 
ATOM     22  C   UNL d   1     -38.976  15.518  23.120  0.00  0.00     0.000 A 
ATOM     23  C   UNL d   1     -39.337  15.921  22.511  0.00  0.00     0.002 A 
ATOM     24  C   UNL d   1     -39.520  15.514  21.817  0.00  0.00     0.017 A 
ENDBRANCH  16  18
ENDBRANCH  14  16
ENDBRANCH   1  14
TORSDOF 5
ENDMDL
MODEL 6
REMARK VINA RESULT:      -4.4      8.165      9.735
REMARK  5 active torsions:
REMARK  status: ('A' for Active; 'I' for Inactive)
REMARK    1  A    between atoms: N_3  and  C_1 
REMARK    2  A    between atoms: N_6  and  C_1 
REMARK       I    between atoms: C_2  and  N_4 
REMARK    3  A    between atoms: C_5  and  C_2 
REMARK    4  A    between atoms: C_7  and  N_3 
REMARK    5  A    between atoms: N_4  and  N_6 
ROOT
ATOM      1  N   UNL d   1     -39.818  14.618  17.950  0.00  0.00    -0.273 N 
ATOM      2  H   UNL d   1     -40.237  13.919  17.804  0.00  0.00     0.189 HD
ENDROOT
BRANCH   1   3
ATOM      3  N   UNL d   1     -39.925  15.028  18.657  0.00  0.00    -0.264 N 
ATOM      4  C   UNL d   1     -40.284  14.648  19.289  0.00  0.00     0.272 C 
ATOM      5  O   UNL d   1     -40.535  13.862  19.219  0.00  0.00    -0.266 OA
ATOM      6  H   UNL d   1     -39.678  15.802  18.726  0.00  0.00     0.190 HD
BRANCH   4   7
ATOM      7  C   UNL d   1     -40.402  15.042  20.011  0.00  0.00     0.058 A 
ATOM      8  C   UNL d   1     -39.869  14.957  20.621  0.00  0.00     0.011 A 
ATOM      9  C   UNL d   1     -40.007  15.358  21.329  0.00  0.00     0.035 A 
ATOM     10 BR   UNL d   1     -39.481  15.290  21.963  0.00  0.00    -0.049 Br
ATOM     11  C   UNL d   1     -40.681  15.840  21.416  0.00  0.00     0.007 A 
ATOM     12  C   UNL d   1     -41.218  15.922  20.795  0.00  0.00     0.001 A 
ATOM     13  C   UNL d   1     -41.076  15.524  20.098  0.00  0.00     0.005 A 
ENDBRANCH   4   7
ENDBRANCH   1   3
BRANCH   1  14
ATOM     14  C   UNL d   1     -39.294  14.911  17.399  0.00  0.00     0.191 C 
ATOM     15  S   UNL d   1     -39.445  15.614  17.014  0.00  0.00    -0.039 SA
BRANCH  14  16
ATOM     16  N   UNL d   1     -38.591  14.485  17.227  0.00  0.00    -0.331 N 
ATOM     17  H   UNL d   1     -38.106  14.227  17.846  0.00  0.00     0.168 HD
BRANCH  16  18
ATOM     18  C   UNL d   1     -38.390  14.328  16.448  0.00  0.00     0.058 A 
ATOM     19  C   UNL d   1     -38.138  13.570  16.242  0.00  0.00     0.016 A 
ATOM     20  C   UNL d   1     -38.089  12.976  16.816  0.00  0.00     0.002 C 
ATOM     21  C   UNL d   1     -37.940  13.417  15.467  0.00  0.00     0.001 A 
ATOM     22  C   UNL d   1     -37.988  14.003  14.901  0.00  0.00     0.000 A 
ATOM     23  C   UNL d   1     -38.237  14.753  15.098  0.00  0.00     0.002 A 
ATOM     24  C   UNL d   1     -38.439  14.913  15.881  0.00  0.00     0.017 A 
ENDBRANCH  16  18
ENDBRANCH  14  16
ENDBRANCH   1  14
TORSDOF 5
ENDMDL
MODEL 7
REMARK VINA RESULT:      -4.1      7.954     10.101
REMARK  5 active torsions:
REMARK  status: ('A' for Active; 'I' for Inactive)
REMARK    1  A    between atoms: N_3  and  C_1 
REMARK    2  A    between atoms: N_6  and  C_1 
REMARK       I    between atoms: C_2  and  N_4 
REMARK    3  A    between atoms: C_5  and  C_2 
REMARK    4  A    between atoms: C_7  and  N_3 
REMARK    5  A    between atoms: N_4  and  N_6 
ROOT
ATOM      1  N   UNL d   1     -39.398  14.031  18.762  0.00  0.00    -0.273 N 
ATOM      2  H   UNL d   1     -40.047  13.522  18.695  0.00  0.00     0.189 HD
ENDROOT
BRANCH   1   3
ATOM      3  N   UNL d   1     -38.957  14.232  18.095  0.00  0.00    -0.264 N 
ATOM      4  C   UNL d   1     -39.272  14.093  17.351  0.00  0.00     0.272 C 
ATOM      5  O   UNL d   1     -40.022  13.753  17.269  0.00  0.00    -0.266 OA
ATOM      6  H   UNL d   1     -38.217  14.567  18.176  0.00  0.00     0.190 HD
BRANCH   4   7
ATOM      7  C   UNL d   1     -38.845  14.288  16.665  0.00  0.00     0.058 A 
ATOM      8  C   UNL d   1     -38.611  13.707  16.143  0.00  0.00     0.011 A 
ATOM      9  C   UNL d   1     -38.188  13.924  15.469  0.00  0.00     0.035 A 
ATOM     10 BR   UNL d   1     -37.940  13.354  14.924  0.00  0.00    -0.049 Br
ATOM     11  C   UNL d   1     -38.005  14.724  15.326  0.00  0.00     0.007 A 
ATOM     12  C   UNL d   1     -38.244  15.308  15.857  0.00  0.00     0.001 A 
ATOM     13  C   UNL d   1     -38.662  15.088  16.522  0.00  0.00     0.005 A 
ENDBRANCH   4   7
ENDBRANCH   1   3
BRANCH   1  14
ATOM     14  C   UNL d   1     -39.184  14.341  19.485  0.00  0.00     0.191 C 
ATOM     15  S   UNL d   1     -38.518  14.072  19.872  0.00  0.00    -0.039 SA
BRANCH  14  16
ATOM     16  N   UNL d   1     -39.655  14.942  19.834  0.00  0.00    -0.331 N 
ATOM     17  H   UNL d   1     -39.544  15.731  19.611  0.00  0.00     0.168 HD
BRANCH  16  18
ATOM     18  C   UNL d   1     -40.221  14.743  20.393  0.00  0.00     0.058 A 
ATOM     19  C   UNL d   1     -40.875  15.236  20.497  0.00  0.00     0.016 A 
ATOM     20  C   UNL d   1     -40.957  15.922  20.041  0.00  0.00     0.002 C 
ATOM     21  C   UNL d   1     -41.435  15.036  21.053  0.00  0.00     0.001 A 
ATOM     22  C   UNL d   1     -41.354  14.359  21.502  0.00  0.00     0.000 A 
ATOM     23  C   UNL d   1     -40.710  13.869  21.404  0.00  0.00     0.002 A 
ATOM     24  C   UNL d   1     -40.140  14.067  20.842  0.00  0.00     0.017 A 
ENDBRANCH  16  18
ENDBRANCH  14  16
ENDBRANCH   1  14
TORSDOF 5
ENDMDL
