MODEL 1
REMARK VINA RESULT:      11.9      0.000      0.000
REMARK  5 active torsions:
REMARK  status: ('A' for Active; 'I' for Inactive)
REMARK    1  A    between atoms: N_6  and  S_1 
REMARK    2  A    between atoms: C_11  and  S_1 
REMARK    3  A    between atoms: C_2  and  N_8 
REMARK    4  A    between atoms: C_10  and  C_3 
REMARK       I    between atoms: N_8  and  C_9 
REMARK    5  A    between atoms: C_9  and  C_17 
REMARK       I    between atoms: N_26  and  C_10 
ROOT
ATOM      1  N   UNL d   1      31.506  18.415 -22.524  0.00  0.00    -0.201 NA
ATOM      2  C   UNL d   1      31.537  19.181 -22.856  0.00  0.00     0.280 C 
ATOM      3  O   UNL d   1      31.318  19.290 -23.651  0.00  0.00    -0.265 OA
ENDROOT
BRANCH   2   4
ATOM      4  C   UNL d   1      31.784  19.818 -22.390  0.00  0.00     0.058 A 
ATOM      5  C   UNL d   1      31.563  19.827 -21.594  0.00  0.00     0.005 A 
ATOM      6  C   UNL d   1      31.806  20.461 -21.116  0.00  0.00     0.013 A 
ATOM      7  C   UNL d   1      32.263  21.072 -21.439  0.00  0.00     0.104 A 
ATOM      8  C   UNL d   1      32.475  21.044 -22.241  0.00  0.00     0.013 A 
ATOM      9  C   UNL d   1      32.230  20.409 -22.712  0.00  0.00     0.005 A 
BRANCH   7  10
ATOM     10  S   UNL d   1      32.503  21.700 -20.967  0.00  0.00     0.271 S 
ATOM     11  O   UNL d   1      31.778  21.728 -20.590  0.00  0.00    -0.200 OA
ATOM     12  O   UNL d   1      33.240  21.665 -21.355  0.00  0.00    -0.200 OA
BRANCH  10  13
ATOM     13  N   UNL d   1      32.743  22.321 -20.501  0.00  0.00    -0.231 N 
ATOM     14  C   UNL d   1      32.837  23.071 -20.816  0.00  0.00     0.075 A 
ATOM     15  C   UNL d   1      32.686  23.202 -21.619  0.00  0.00     0.020 C 
ATOM     16  C   UNL d   1      33.080  23.693 -20.341  0.00  0.00     0.018 A 
ATOM     17  C   UNL d   1      33.231  23.562 -19.538  0.00  0.00     0.003 A 
ATOM     18  C   UNL d   1      33.138  22.815 -19.222  0.00  0.00     0.020 A 
ATOM     19  C   UNL d   1      32.897  22.206 -19.705  0.00  0.00     0.092 A 
ENDBRANCH  10  13
ENDBRANCH   7  10
ENDBRANCH   2   4
BRANCH   1  20
ATOM     20  C   UNL d   1      31.257  17.780 -22.995  0.00  0.00     0.119 A 
ATOM     21  C   UNL d   1      31.695  17.091 -23.125  0.00  0.00     0.082 A 
ATOM     22  C   UNL d   1      31.263  16.598 -23.620  0.00  0.00     0.016 A 
ATOM     23  C   UNL d   1      31.422  15.855 -23.929  0.00  0.00     0.020 A 
ATOM     24  C   UNL d   1      30.554  16.977 -23.799  0.00  0.00     0.049 A 
ATOM     25  C   UNL d   1      30.869  15.487 -24.421  0.00  0.00     0.080 A 
ATOM     26  N   UNL d   1      30.156  15.862 -24.605  0.00  0.00    -0.301 N 
ATOM     27  C   UNL d   1      30.005  16.609 -24.289  0.00  0.00     0.087 A 
ATOM     28  C   UNL d   1      29.611  15.498 -25.091  0.00  0.00     0.100 C 
ATOM     29  S   UNL d   1      30.554  17.712 -23.409  0.00  0.00    -0.066 SA
BRANCH  21  30
ATOM     30  C   UNL d   1      32.438  16.920 -22.817  0.00  0.00     0.281 C 
ATOM     31  O   UNL d   1      33.094  17.170 -23.212  0.00  0.00    -0.265 OA
ATOM     32  N   UNL d   1      32.504  16.496 -22.113  0.00  0.00    -0.205 NA
ATOM     33  C   UNL d   1      33.240  16.317 -21.794  0.00  0.00     0.123 C 
ENDBRANCH  21  30
ENDBRANCH   1  20
TORSDOF 5
ENDMDL
MODEL 2
REMARK VINA RESULT:      14.0      1.307      6.370
REMARK  5 active torsions:
REMARK  status: ('A' for Active; 'I' for Inactive)
REMARK    1  A    between atoms: N_6  and  S_1 
REMARK    2  A    between atoms: C_11  and  S_1 
REMARK    3  A    between atoms: C_2  and  N_8 
REMARK    4  A    between atoms: C_10  and  C_3 
REMARK       I    between atoms: N_8  and  C_9 
REMARK    5  A    between atoms: C_9  and  C_17 
REMARK       I    between atoms: N_26  and  C_10 
ROOT
ATOM      1  N   UNL d   1      33.007  20.500 -21.185  0.00  0.00    -0.201 NA
ATOM      2  C   UNL d   1      32.256  20.192 -21.379  0.00  0.00     0.280 C 
ATOM      3  O   UNL d   1      31.573  20.571 -21.094  0.00  0.00    -0.265 OA
ENDROOT
BRANCH   2   4
ATOM      4  C   UNL d   1      32.202  19.515 -21.852  0.00  0.00     0.058 A 
ATOM      5  C   UNL d   1      32.855  19.309 -22.313  0.00  0.00     0.005 A 
ATOM      6  C   UNL d   1      32.813  18.632 -22.792  0.00  0.00     0.013 A 
ATOM      7  C   UNL d   1      32.123  18.175 -22.802  0.00  0.00     0.104 A 
ATOM      8  C   UNL d   1      31.476  18.399 -22.332  0.00  0.00     0.013 A 
ATOM      9  C   UNL d   1      31.525  19.075 -21.857  0.00  0.00     0.005 A 
BRANCH   7  10
ATOM     10  S   UNL d   1      32.080  17.505 -23.275  0.00  0.00     0.271 S 
ATOM     11  O   UNL d   1      31.272  17.446 -23.163  0.00  0.00    -0.200 OA
ATOM     12  O   UNL d   1      32.904  17.571 -23.385  0.00  0.00    -0.200 OA
BRANCH  10  13
ATOM     13  N   UNL d   1      32.040  16.842 -23.744  0.00  0.00    -0.231 N 
ATOM     14  C   UNL d   1      32.266  16.868 -24.531  0.00  0.00     0.075 A 
ATOM     15  C   UNL d   1      32.540  17.579 -24.856  0.00  0.00     0.020 C 
ATOM     16  C   UNL d   1      32.223  16.197 -24.997  0.00  0.00     0.018 A 
ATOM     17  C   UNL d   1      31.950  15.487 -24.672  0.00  0.00     0.003 A 
ATOM     18  C   UNL d   1      31.724  15.458 -23.888  0.00  0.00     0.020 A 
ATOM     19  C   UNL d   1      31.772  16.133 -23.436  0.00  0.00     0.092 A 
ENDBRANCH  10  13
ENDBRANCH   7  10
ENDBRANCH   2   4
BRANCH   1  20
ATOM     20  C   UNL d   1      33.057  21.178 -20.711  0.00  0.00     0.119 A 
ATOM     21  C   UNL d   1      33.115  21.950 -21.000  0.00  0.00     0.082 A 
ATOM     22  C   UNL d   1      33.151  22.465 -20.360  0.00  0.00     0.016 A 
ATOM     23  C   UNL d   1      33.212  23.281 -20.316  0.00  0.00     0.020 A 
ATOM     24  C   UNL d   1      33.116  22.015 -19.671  0.00  0.00     0.049 A 
ATOM     25  C   UNL d   1      33.238  23.653 -19.577  0.00  0.00     0.080 A 
ATOM     26  N   UNL d   1      33.202  23.207 -18.882  0.00  0.00    -0.301 N 
ATOM     27  C   UNL d   1      33.141  22.387 -18.938  0.00  0.00     0.087 A 
ATOM     28  C   UNL d   1      33.227  23.574 -18.155  0.00  0.00     0.100 C 
ATOM     29  S   UNL d   1      33.057  21.215 -19.893  0.00  0.00    -0.066 SA
BRANCH  21  30
ATOM     30  C   UNL d   1      33.134  22.176 -21.790  0.00  0.00     0.281 C 
ATOM     31  O   UNL d   1      33.179  21.608 -22.360  0.00  0.00    -0.265 OA
ATOM     32  N   UNL d   1      33.109  22.975 -21.991  0.00  0.00    -0.205 NA
ATOM     33  C   UNL d   1      33.127  23.215 -22.776  0.00  0.00     0.123 C 
ENDBRANCH  21  30
ENDBRANCH   1  20
TORSDOF 5
ENDMDL
