MODEL 1
REMARK VINA RESULT:      10.5      0.000      0.000
REMARK  2 active torsions:
REMARK  status: ('A' for Active; 'I' for Inactive)
REMARK    1  A    between atoms: C_4  and  N_1 
REMARK    2  A    between atoms: C_7  and  C_9 
ROOT
ATOM      1  C   UNL d   1      23.603  12.784  -1.048  0.00  0.00     0.070 A 
ATOM      2  C   UNL d   1      23.762  12.884  -1.855  0.00  0.00     0.024 A 
ATOM      3  C   UNL d   1      24.341  12.436  -2.217  0.00  0.00     0.066 A 
ATOM      4  C   UNL d   1      24.024  12.235  -0.603  0.00  0.00     0.018 A 
ATOM      5  C   UNL d   1      24.768  11.881  -1.772  0.00  0.00     0.006 A 
ATOM      6  C   UNL d   1      24.610  11.780  -0.964  0.00  0.00     0.002 A 
ENDROOT
BRANCH   1   7
ATOM      7  N   UNL d   1      23.019  13.234  -0.679  0.00  0.00    -0.242 N 
ATOM      8  C   UNL d   1      23.135  13.977  -0.317  0.00  0.00     0.267 A 
ATOM      9  C   UNL d   1      22.412  14.235  -0.016  0.00  0.00     0.066 A 
ATOM     10  O   UNL d   1      23.836  14.412  -0.249  0.00  0.00    -0.267 OA
ATOM     11  C   UNL d   1      21.845  13.656  -0.190  0.00  0.00     0.066 A 
ATOM     12  C   UNL d   1      22.217  13.047  -0.593  0.00  0.00     0.267 A 
ATOM     13  O   UNL d   1      21.809  12.370  -0.854  0.00  0.00    -0.267 OA
ENDBRANCH   1   7
BRANCH   3  14
ATOM     14  C   UNL d   1      24.508  12.525  -3.016  0.00  0.00     0.211 C 
ATOM     15  O   UNL d   1      24.726  13.254  -3.320  0.00  0.00    -0.644 OA
ATOM     16  O   UNL d   1      24.453  11.865  -3.516  0.00  0.00    -0.644 OA
ENDBRANCH   3  14
TORSDOF 2
ENDMDL
