MODEL 1
REMARK VINA RESULT:      47.8      0.000      0.000
REMARK  1 active torsions:
REMARK  status: ('A' for Active; 'I' for Inactive)
REMARK    1  A    between atoms: C_10  and  N_2 
ROOT
ATOM      1  C   UNL d   1     -52.514  25.697  33.349  0.00  0.00     0.174 A 
ATOM      2  N   UNL d   1     -51.153  26.121  33.369  0.00  0.00    -0.224 N 
ATOM      3  C   UNL d   1     -51.956  26.299  33.358  0.00  0.00     0.292 A 
ATOM      4  C   UNL d   1     -52.275  24.916  33.351  0.00  0.00     0.115 A 
ATOM      5  C   UNL d   1     -50.908  25.342  33.371  0.00  0.00     0.356 A 
ATOM      6  N   UNL d   1     -51.473  24.738  33.361  0.00  0.00    -0.190 NA
ATOM      7  O   UNL d   1     -53.344  25.713  33.338  0.00  0.00    -0.301 OA
ATOM      8  C   UNL d   1     -52.953  24.439  33.340  0.00  0.00     0.043 A 
ATOM      9  C   UNL d   1     -53.615  24.932  33.332  0.00  0.00     0.102 A 
ATOM     10  O   UNL d   1     -52.198  27.104  33.357  0.00  0.00    -0.264 OA
ATOM     11  O   UNL d   1     -50.095  25.156  33.381  0.00  0.00    -0.244 OA
ATOM     12  C   UNL d   1     -53.043  23.628  33.337  0.00  0.00     0.004 A 
ATOM     13  C   UNL d   1     -54.366  24.614  33.321  0.00  0.00     0.025 A 
ATOM     14  C   UNL d   1     -53.805  23.296  33.325  0.00  0.00     0.000 A 
ATOM     15  C   UNL d   1     -54.466  23.789  33.317  0.00  0.00     0.002 A 
ENDROOT
BRANCH   2  16
ATOM     16  C   UNL d   1     -50.590  26.731  33.378  0.00  0.00     0.071 A 
ATOM     17  C   UNL d   1     -49.790  26.555  33.451  0.00  0.00     0.018 A 
ATOM     18  C   UNL d   1     -49.233  27.163  33.460  0.00  0.00     0.002 A 
ATOM     19  C   UNL d   1     -49.481  27.947  33.396  0.00  0.00     0.000 A 
ATOM     20  C   UNL d   1     -50.276  28.129  33.324  0.00  0.00     0.002 A 
ATOM     21  C   UNL d   1     -48.921  28.559  33.405  0.00  0.00     0.000 C 
ATOM     22  C   UNL d   1     -50.834  27.515  33.315  0.00  0.00     0.018 A 
ENDBRANCH   2  16
TORSDOF 1
ENDMDL
