MODEL 1
REMARK VINA RESULT:      -8.7      0.000      0.000
REMARK  4 active torsions:
REMARK  status: ('A' for Active; 'I' for Inactive)
REMARK    1  A    between atoms: C_7  and  N_1 
REMARK    2  A    between atoms: C_6  and  C_4 
REMARK    3  A    between atoms: C_12  and  C_6 
REMARK    4  A    between atoms: C_8  and  C_7 
ROOT
ATOM      1  N   UNL d   1      52.846  33.770  54.067  0.00  0.00    -0.229 N 
ATOM      2  C   UNL d   1      52.301  33.467  53.528  0.00  0.00     0.299 A 
ATOM      3  C   UNL d   1      53.530  33.294  54.049  0.00  0.00     0.274 A 
ATOM      4  C   UNL d   1      53.405  32.688  53.492  0.00  0.00     0.090 A 
ATOM      5  S   UNL d   1      52.648  32.796  53.171  0.00  0.00    -0.022 SA
ATOM      6  O   UNL d   1      51.548  33.769  53.367  0.00  0.00    -0.259 OA
ATOM      7  O   UNL d   1      54.210  33.406  54.505  0.00  0.00    -0.266 OA
ENDROOT
BRANCH   4   8
ATOM      8  C   UNL d   1      53.936  32.092  53.294  0.00  0.00     0.011 C 
BRANCH   8   9
ATOM      9  C   UNL d   1      53.582  31.346  53.355  0.00  0.00     0.001 A 
ATOM     10  C   UNL d   1      53.667  30.906  54.050  0.00  0.00     0.003 A 
ATOM     11  C   UNL d   1      53.314  30.164  54.108  0.00  0.00     0.042 A 
ATOM     12  C   UNL d   1      52.878  29.861  53.477  0.00  0.00     0.196 A 
ATOM     13  C   UNL d   1      52.798  30.304  52.790  0.00  0.00     0.042 A 
ATOM     14  O   UNL d   1      52.523  29.114  53.535  0.00  0.00    -0.287 OA
ATOM     15  C   UNL d   1      53.146  31.043  52.724  0.00  0.00     0.003 A 
ENDBRANCH   8   9
ENDBRANCH   4   8
BRANCH   1  16
ATOM     16  C   UNL d   1      52.576  34.440  54.464  0.00  0.00     0.157 C 
BRANCH  16  17
ATOM     17  C   UNL d   1      53.109  35.032  54.694  0.00  0.00     0.230 C 
ATOM     18  O   UNL d   1      53.342  35.615  54.154  0.00  0.00    -0.643 OA
ATOM     19  O   UNL d   1      53.411  35.042  55.462  0.00  0.00    -0.643 OA
ENDBRANCH  16  17
ENDBRANCH   1  16
TORSDOF 4
ENDMDL
MODEL 2
REMARK VINA RESULT:      -8.1      2.059      3.242
REMARK  4 active torsions:
REMARK  status: ('A' for Active; 'I' for Inactive)
REMARK    1  A    between atoms: C_7  and  N_1 
REMARK    2  A    between atoms: C_6  and  C_4 
REMARK    3  A    between atoms: C_12  and  C_6 
REMARK    4  A    between atoms: C_8  and  C_7 
ROOT
ATOM      1  N   UNL d   1      53.541  34.029  54.572  0.00  0.00    -0.229 N 
ATOM      2  C   UNL d   1      53.258  34.744  54.276  0.00  0.00     0.299 A 
ATOM      3  C   UNL d   1      53.261  33.412  54.087  0.00  0.00     0.274 A 
ATOM      4  C   UNL d   1      52.799  33.750  53.483  0.00  0.00     0.090 A 
ATOM      5  S   UNL d   1      52.798  34.572  53.600  0.00  0.00    -0.022 SA
ATOM      6  O   UNL d   1      53.402  35.497  54.588  0.00  0.00    -0.259 OA
ATOM      7  O   UNL d   1      53.416  32.606  54.191  0.00  0.00    -0.266 OA
ENDROOT
BRANCH   4   8
ATOM      8  C   UNL d   1      52.414  33.346  52.880  0.00  0.00     0.011 C 
BRANCH   8   9
ATOM      9  C   UNL d   1      51.659  33.657  52.747  0.00  0.00     0.001 A 
ATOM     10  C   UNL d   1      51.533  34.178  52.117  0.00  0.00     0.003 A 
ATOM     11  C   UNL d   1      50.781  34.486  51.987  0.00  0.00     0.042 A 
ATOM     12  C   UNL d   1      50.155  34.277  52.481  0.00  0.00     0.196 A 
ATOM     13  C   UNL d   1      50.287  33.758  53.106  0.00  0.00     0.042 A 
ATOM     14  O   UNL d   1      49.397  34.587  52.351  0.00  0.00    -0.287 OA
ATOM     15  C   UNL d   1      51.033  33.448  53.241  0.00  0.00     0.003 A 
ENDBRANCH   8   9
ENDBRANCH   4   8
BRANCH   1  16
ATOM     16  C   UNL d   1      54.008  34.116  55.246  0.00  0.00     0.157 C 
BRANCH  16  17
ATOM     17  C   UNL d   1      54.697  33.663  55.336  0.00  0.00     0.230 C 
ATOM     18  O   UNL d   1      55.426  33.958  55.079  0.00  0.00    -0.643 OA
ATOM     19  O   UNL d   1      54.659  32.916  55.684  0.00  0.00    -0.643 OA
ENDBRANCH  16  17
ENDBRANCH   1  16
TORSDOF 4
ENDMDL
MODEL 3
REMARK VINA RESULT:      -8.0      1.151      3.897
REMARK  4 active torsions:
REMARK  status: ('A' for Active; 'I' for Inactive)
REMARK    1  A    between atoms: C_7  and  N_1 
REMARK    2  A    between atoms: C_6  and  C_4 
REMARK    3  A    between atoms: C_12  and  C_6 
REMARK    4  A    between atoms: C_8  and  C_7 
ROOT
ATOM      1  N   UNL d   1      52.860  31.452  53.340  0.00  0.00    -0.229 N 
ATOM      2  C   UNL d   1      52.527  32.053  52.885  0.00  0.00     0.299 A 
ATOM      3  C   UNL d   1      53.508  31.765  53.759  0.00  0.00     0.274 A 
ATOM      4  C   UNL d   1      53.577  32.570  53.560  0.00  0.00     0.090 A 
ATOM      5  S   UNL d   1      52.971  32.747  53.021  0.00  0.00    -0.022 SA
ATOM      6  O   UNL d   1      51.872  31.985  52.383  0.00  0.00    -0.259 OA
ATOM      7  O   UNL d   1      53.996  31.347  54.279  0.00  0.00    -0.266 OA
ENDROOT
BRANCH   4   8
ATOM      8  C   UNL d   1      54.141  33.096  53.846  0.00  0.00     0.011 C 
BRANCH   8   9
ATOM      9  C   UNL d   1      53.793  33.810  54.078  0.00  0.00     0.001 A 
ATOM     10  C   UNL d   1      53.594  33.931  54.873  0.00  0.00     0.003 A 
ATOM     11  C   UNL d   1      53.248  34.642  55.102  0.00  0.00     0.042 A 
ATOM     12  C   UNL d   1      53.100  35.230  54.545  0.00  0.00     0.196 A 
ATOM     13  C   UNL d   1      53.299  35.103  53.757  0.00  0.00     0.042 A 
ATOM     14  O   UNL d   1      52.751  35.947  54.775  0.00  0.00    -0.287 OA
ATOM     15  C   UNL d   1      53.644  34.398  53.521  0.00  0.00     0.003 A 
ENDBRANCH   8   9
ENDBRANCH   4   8
BRANCH   1  16
ATOM     16  C   UNL d   1      52.474  30.728  53.259  0.00  0.00     0.157 C 
BRANCH  16  17
ATOM     17  C   UNL d   1      52.909  30.022  53.243  0.00  0.00     0.230 C 
ATOM     18  O   UNL d   1      52.909  29.519  53.901  0.00  0.00    -0.643 OA
ATOM     19  O   UNL d   1      53.344  29.818  52.573  0.00  0.00    -0.643 OA
ENDBRANCH  16  17
ENDBRANCH   1  16
TORSDOF 4
ENDMDL
