MODEL 1
REMARK VINA RESULT:      -2.9      0.000      0.000
REMARK  5 active torsions:
REMARK  status: ('A' for Active; 'I' for Inactive)
REMARK    1  A    between atoms: C_7  and  N_1 
REMARK    2  A    between atoms: C_12  and  C_3 
REMARK    3  A    between atoms: C_8  and  S_15 
REMARK    4  A    between atoms: C_16  and  C_12 
REMARK    5  A    between atoms: S_15  and  C_16 
ROOT
ATOM      1  N   UNL d   1      32.767  21.668 -21.024  0.00  0.00    -0.304 N 
ATOM      2  C   UNL d   1      32.883  21.644 -21.839  0.00  0.00     0.067 A 
ATOM      3  C   UNL d   1      32.995  20.855 -22.059  0.00  0.00     0.057 A 
ATOM      4  C   UNL d   1      32.806  20.905 -20.738  0.00  0.00     0.064 A 
ATOM      5  C   UNL d   1      32.946  20.394 -21.369  0.00  0.00     0.022 A 
ATOM      6  C   UNL d   1      32.885  22.298 -22.340  0.00  0.00     0.019 C 
ATOM      7  C   UNL d   1      32.789  20.306 -20.172  0.00  0.00     0.019 C 
ENDROOT
BRANCH   3   8
ATOM      8  C   UNL d   1      33.134  20.222 -22.585  0.00  0.00     0.204 C 
ATOM      9  O   UNL d   1      33.236  20.373 -23.398  0.00  0.00    -0.286 OA
BRANCH   8  10
ATOM     10  C   UNL d   1      33.233  19.412 -22.713  0.00  0.00     0.080 C 
BRANCH  10  11
ATOM     11  S   UNL d   1      32.986  19.076 -23.429  0.00  0.00    -0.043 SA
BRANCH  11  12
ATOM     12  C   UNL d   1      32.856  18.264 -23.484  0.00  0.00     0.233 A 
ATOM     13  N   UNL d   1      32.426  17.883 -24.075  0.00  0.00    -0.029 NA
ATOM     14  C   UNL d   1      32.439  17.077 -23.913  0.00  0.00     0.788 A 
ATOM     15  N   UNL d   1      32.077  16.485 -24.362  0.00  0.00     0.064 N 
ATOM     16  N   UNL d   1      32.875  16.965 -23.224  0.00  0.00     0.050 NA
ATOM     17  N   UNL d   1      33.139  17.704 -22.951  0.00  0.00    -0.105 NA
ENDBRANCH  11  12
ENDBRANCH  10  11
ENDBRANCH   8  10
ENDBRANCH   3   8
BRANCH   1  18
ATOM     18  C   UNL d   1      32.633  22.352 -20.572  0.00  0.00     0.094 A 
ATOM     19  C   UNL d   1      32.959  22.406 -19.852  0.00  0.00     0.050 A 
ATOM     20  C   UNL d   1      32.821  23.096 -19.401  0.00  0.00     0.142 A 
ATOM     21  F   UNL d   1      33.157  23.165 -18.644  0.00  0.00    -0.204 F 
ATOM     22  C   UNL d   1      32.356  23.702 -19.704  0.00  0.00     0.032 A 
ATOM     23  C   UNL d   1      32.024  23.638 -20.447  0.00  0.00     0.034 A 
ATOM     24  C   UNL d   1      32.162  22.954 -20.891  0.00  0.00     0.156 A 
ATOM     25  F   UNL d   1      31.694  23.263 -21.516  0.00  0.00    -0.203 F 
ENDBRANCH   1  18
TORSDOF 5
ENDMDL
MODEL 2
REMARK VINA RESULT:      -1.2      2.927      5.985
REMARK  5 active torsions:
REMARK  status: ('A' for Active; 'I' for Inactive)
REMARK    1  A    between atoms: C_7  and  N_1 
REMARK    2  A    between atoms: C_12  and  C_3 
REMARK    3  A    between atoms: C_8  and  S_15 
REMARK    4  A    between atoms: C_16  and  C_12 
REMARK    5  A    between atoms: S_15  and  C_16 
ROOT
ATOM      1  N   UNL d   1      31.406  17.513 -24.358  0.00  0.00    -0.304 N 
ATOM      2  C   UNL d   1      32.098  17.569 -23.914  0.00  0.00     0.067 A 
ATOM      3  C   UNL d   1      32.356  18.354 -23.941  0.00  0.00     0.057 A 
ATOM      4  C   UNL d   1      31.235  18.253 -24.658  0.00  0.00     0.064 A 
ATOM      5  C   UNL d   1      31.816  18.780 -24.406  0.00  0.00     0.022 A 
ATOM      6  C   UNL d   1      32.461  16.946 -23.516  0.00  0.00     0.019 C 
ATOM      7  C   UNL d   1      30.811  18.819 -25.081  0.00  0.00     0.019 C 
ENDROOT
BRANCH   3   8
ATOM      8  C   UNL d   1      32.860  18.997 -23.770  0.00  0.00     0.204 C 
ATOM      9  O   UNL d   1      33.194  19.440 -24.393  0.00  0.00    -0.286 OA
BRANCH   8  10
ATOM     10  C   UNL d   1      33.241  19.475 -23.215  0.00  0.00     0.080 C 
BRANCH  10  11
ATOM     11  S   UNL d   1      32.906  19.582 -22.465  0.00  0.00    -0.043 SA
BRANCH  11  12
ATOM     12  C   UNL d   1      32.900  20.328 -22.114  0.00  0.00     0.233 A 
ATOM     13  N   UNL d   1      32.574  20.514 -21.381  0.00  0.00    -0.029 NA
ATOM     14  C   UNL d   1      32.692  21.317 -21.251  0.00  0.00     0.788 A 
ATOM     15  N   UNL d   1      32.454  21.742 -20.584  0.00  0.00     0.064 N 
ATOM     16  N   UNL d   1      33.090  21.622 -21.904  0.00  0.00     0.050 NA
ATOM     17  N   UNL d   1      33.223  21.008 -22.447  0.00  0.00    -0.105 NA
ENDBRANCH  11  12
ENDBRANCH  10  11
ENDBRANCH   8  10
ENDBRANCH   3   8
BRANCH   1  18
ATOM     18  C   UNL d   1      30.960  16.823 -24.479  0.00  0.00     0.094 A 
ATOM     19  C   UNL d   1      30.182  16.837 -24.328  0.00  0.00     0.050 A 
ATOM     20  C   UNL d   1      29.739  16.140 -24.451  0.00  0.00     0.142 A 
ATOM     21  F   UNL d   1      28.922  16.141 -24.297  0.00  0.00    -0.204 F 
ATOM     22  C   UNL d   1      30.106  15.458 -24.724  0.00  0.00     0.032 A 
ATOM     23  C   UNL d   1      30.908  15.453 -24.877  0.00  0.00     0.034 A 
ATOM     24  C   UNL d   1      31.346  16.143 -24.754  0.00  0.00     0.156 A 
ATOM     25  F   UNL d   1      32.044  15.749 -25.003  0.00  0.00    -0.203 F 
ENDBRANCH   1  18
TORSDOF 5
ENDMDL
