MODEL 1
REMARK VINA RESULT:      -5.4      0.000      0.000
REMARK  5 active torsions:
REMARK  status: ('A' for Active; 'I' for Inactive)
REMARK    1  A    between atoms: C_2  and  C_1 
REMARK       I    between atoms: N_5  and  C_1 
REMARK    2  A    between atoms: C_3  and  C_14 
REMARK    3  A    between atoms: C_12  and  N_5 
REMARK    4  A    between atoms: O_13  and  C_9 
REMARK    5  A    between atoms: C_14  and  C_12 
ROOT
ATOM      1  C   UNL d   1      56.916  -0.521  31.615  0.00  0.00     0.279 C 
ATOM      2  O   UNL d   1      56.901  -1.284  31.328  0.00  0.00    -0.265 OA
ATOM      3  N   UNL d   1      57.397   0.056  31.284  0.00  0.00    -0.206 NA
ENDROOT
BRANCH   1   4
ATOM      4  C   UNL d   1      56.435  -0.321  32.256  0.00  0.00     0.058 A 
ATOM      5  C   UNL d   1      56.250   0.454  32.393  0.00  0.00     0.007 A 
ATOM      6  C   UNL d   1      55.761   0.643  33.046  0.00  0.00     0.024 A 
ATOM      7  C   UNL d   1      55.483   0.075  33.523  0.00  0.00     0.094 A 
ATOM      8  C   UNL d   1      55.671  -0.719  33.385  0.00  0.00     0.024 A 
ATOM      9  C   UNL d   1      56.151  -0.922  32.747  0.00  0.00     0.007 A 
BRANCH   7  10
ATOM     10  O   UNL d   1      55.013   0.267  34.150  0.00  0.00    -0.328 OA
ATOM     11  C   UNL d   1      54.305   0.682  34.027  0.00  0.00     0.181 C 
ENDBRANCH   7  10
ENDBRANCH   1   4
BRANCH   3  12
ATOM     12  C   UNL d   1      57.875  -0.157  30.642  0.00  0.00     0.102 C 
BRANCH  12  13
ATOM     13  C   UNL d   1      58.312   0.392  30.255  0.00  0.00     0.021 C 
BRANCH  13  14
ATOM     14  C   UNL d   1      58.848   0.172  29.678  0.00  0.00     0.002 A 
ATOM     15  C   UNL d   1      58.615  -0.303  29.052  0.00  0.00     0.000 A 
ATOM     16  C   UNL d   1      59.156  -0.525  28.469  0.00  0.00     0.000 A 
ATOM     17  C   UNL d   1      59.941  -0.278  28.500  0.00  0.00     0.000 A 
ATOM     18  C   UNL d   1      60.175   0.204  29.136  0.00  0.00     0.000 A 
ATOM     19  C   UNL d   1      59.622   0.424  29.722  0.00  0.00     0.000 A 
ENDBRANCH  13  14
ENDBRANCH  12  13
ENDBRANCH   3  12
TORSDOF 5
ENDMDL
MODEL 2
REMARK VINA RESULT:      -5.4      1.372      5.125
REMARK  5 active torsions:
REMARK  status: ('A' for Active; 'I' for Inactive)
REMARK    1  A    between atoms: C_2  and  C_1 
REMARK       I    between atoms: N_5  and  C_1 
REMARK    2  A    between atoms: C_3  and  C_14 
REMARK    3  A    between atoms: C_12  and  N_5 
REMARK    4  A    between atoms: O_13  and  C_9 
REMARK    5  A    between atoms: C_14  and  C_12 
ROOT
ATOM      1  C   UNL d   1      57.958   0.229  30.172  0.00  0.00     0.279 C 
ATOM      2  O   UNL d   1      57.325   0.593  29.809  0.00  0.00    -0.265 OA
ATOM      3  N   UNL d   1      57.929  -0.005  30.958  0.00  0.00    -0.206 NA
ENDROOT
BRANCH   1   4
ATOM      4  C   UNL d   1      58.648   0.092  29.738  0.00  0.00     0.058 A 
ATOM      5  C   UNL d   1      58.745  -0.612  29.352  0.00  0.00     0.007 A 
ATOM      6  C   UNL d   1      59.448  -0.739  28.916  0.00  0.00     0.024 A 
ATOM      7  C   UNL d   1      60.010  -0.182  28.879  0.00  0.00     0.094 A 
ATOM      8  C   UNL d   1      59.913   0.540  29.273  0.00  0.00     0.024 A 
ATOM      9  C   UNL d   1      59.226   0.681  29.707  0.00  0.00     0.007 A 
BRANCH   7  10
ATOM     10  O   UNL d   1      60.685  -0.313  28.456  0.00  0.00    -0.328 OA
ATOM     11  C   UNL d   1      61.096  -1.029  28.542  0.00  0.00     0.181 C 
ENDBRANCH   7  10
ENDBRANCH   1   4
BRANCH   3  12
ATOM     12  C   UNL d   1      57.233   0.138  31.382  0.00  0.00     0.102 C 
BRANCH  12  13
ATOM     13  C   UNL d   1      57.224   0.102  32.182  0.00  0.00     0.021 C 
BRANCH  13  14
ATOM     14  C   UNL d   1      56.525  -0.020  32.589  0.00  0.00     0.002 A 
ATOM     15  C   UNL d   1      56.248  -0.778  32.725  0.00  0.00     0.000 A 
ATOM     16  C   UNL d   1      55.542  -0.901  33.136  0.00  0.00     0.000 A 
ATOM     17  C   UNL d   1      55.099  -0.267  33.420  0.00  0.00     0.000 A 
ATOM     18  C   UNL d   1      55.383   0.503  33.281  0.00  0.00     0.000 A 
ATOM     19  C   UNL d   1      56.097   0.618  32.864  0.00  0.00     0.000 A 
ENDBRANCH  13  14
ENDBRANCH  12  13
ENDBRANCH   3  12
TORSDOF 5
ENDMDL
