MODEL 1
REMARK VINA RESULT:      45.3      0.000      0.000
REMARK  5 active torsions:
REMARK  status: ('A' for Active; 'I' for Inactive)
REMARK    1  A    between atoms: C_10  and  C_3 
REMARK    2  A    between atoms: N_13  and  C_4 
REMARK    3  A    between atoms: N_12  and  C_17 
REMARK    4  A    between atoms: C_16  and  N_13 
REMARK    5  A    between atoms: C_17  and  C_16 
ROOT
ATOM      1  C   UNL d   1      44.507 -15.424  37.098  0.00  0.00     0.150 A 
ATOM      2  N   UNL d   1      44.384 -16.129  37.517  0.00  0.00    -0.275 N 
ATOM      3  C   UNL d   1      45.257 -15.084  37.074  0.00  0.00     0.056 A 
ATOM      4  C   UNL d   1      45.011 -16.498  37.915  0.00  0.00     0.149 A 
ATOM      5  N   UNL d   1      43.873 -15.063  36.703  0.00  0.00    -0.227 NA
ATOM      6  C   UNL d   1      45.887 -15.444  37.468  0.00  0.00     0.007 A 
ATOM      7  C   UNL d   1      45.764 -16.149  37.886  0.00  0.00     0.038 A 
ATOM      8  C   UNL d   1      42.990 -16.108  37.143  0.00  0.00     0.084 A 
ATOM      9  C   UNL d   1      43.113 -15.403  36.724  0.00  0.00     0.099 A 
ATOM     10  C   UNL d   1      46.647 -15.104  37.447  0.00  0.00     0.000 C 
ATOM     11  C   UNL d   1      42.237 -16.457  37.171  0.00  0.00     0.019 A 
ATOM     12  C   UNL d   1      42.483 -15.043  36.331  0.00  0.00     0.021 A 
ATOM     13  C   UNL d   1      41.610 -16.088  36.773  0.00  0.00     0.002 A 
ATOM     14  C   UNL d   1      41.733 -15.383  36.354  0.00  0.00     0.002 A 
ENDROOT
BRANCH   4  15
ATOM     15  N   UNL d   1      44.889 -17.198  38.331  0.00  0.00    -0.225 NA
BRANCH  15  16
ATOM     16  C   UNL d   1      45.293 -17.335  39.037  0.00  0.00     0.120 C 
BRANCH  16  17
ATOM     17  C   UNL d   1      44.937 -17.758  39.635  0.00  0.00     0.101 C 
BRANCH  17  18
ATOM     18  N   UNL d   1      45.375 -18.010  40.278  0.00  0.00    -0.298 N 
ATOM     19  C   UNL d   1      46.184 -18.145  40.195  0.00  0.00     0.107 A 
ATOM     20  C   UNL d   1      46.629 -18.400  40.841  0.00  0.00     0.142 A 
ATOM     21  O   UNL d   1      46.272 -18.521  41.575  0.00  0.00    -0.300 OA
ATOM     22  C   UNL d   1      45.455 -18.383  41.655  0.00  0.00     0.142 A 
ATOM     23  C   UNL d   1      45.010 -18.129  41.009  0.00  0.00     0.107 A 
ENDBRANCH  17  18
ENDBRANCH  16  17
ENDBRANCH  15  16
ENDBRANCH   4  15
BRANCH   3  24
ATOM     24  C   UNL d   1      45.379 -14.382  36.657  0.00  0.00     0.125 C 
ATOM     25  N   UNL d   1      45.529 -13.715  37.037  0.00  0.00    -0.146 N 
ENDBRANCH   3  24
TORSDOF 5
ENDMDL
