MODEL 1
REMARK VINA RESULT:      11.3      0.000      0.000
REMARK  4 active torsions:
REMARK  status: ('A' for Active; 'I' for Inactive)
REMARK    1  A    between atoms: N_4  and  C_1 
REMARK       I    between atoms: C_10  and  N_4 
REMARK    2  A    between atoms: C_7  and  C_8 
REMARK    3  A    between atoms: O_15  and  C_7 
REMARK    4  A    between atoms: C_17  and  O_15 
ROOT
ATOM      1  C   UNL d   1      45.798 -16.415  44.688  0.00  0.00     0.197 A 
ATOM      2  N   UNL d   1      45.071 -16.097  44.948  0.00  0.00    -0.221 NA
ATOM      3  S   UNL d   1      46.251 -15.795  44.390  0.00  0.00    -0.047 SA
ATOM      4  C   UNL d   1      45.820 -15.092  44.459  0.00  0.00     0.050 A 
ATOM      5  C   UNL d   1      45.085 -15.280  44.806  0.00  0.00     0.090 A 
ATOM      6  C   UNL d   1      45.440 -13.726  44.395  0.00  0.00     0.064 A 
ATOM      7  C   UNL d   1      45.993 -14.312  44.255  0.00  0.00     0.013 A 
ATOM      8  C   UNL d   1      44.537 -14.685  44.943  0.00  0.00     0.020 A 
ATOM      9  C   UNL d   1      44.705 -13.915  44.742  0.00  0.00     0.007 A 
ENDROOT
BRANCH   6  10
ATOM     10  C   UNL d   1      45.600 -12.940  44.196  0.00  0.00     0.300 C 
ATOM     11  O   UNL d   1      45.737 -12.387  44.777  0.00  0.00    -0.259 OA
BRANCH  10  12
ATOM     12  O   UNL d   1      45.620 -12.724  43.394  0.00  0.00    -0.271 OA
BRANCH  12  13
ATOM     13  C   UNL d   1      45.133 -12.117  43.114  0.00  0.00     0.126 C 
ATOM     14  C   UNL d   1      44.933 -12.081  42.325  0.00  0.00     0.029 C 
ENDBRANCH  12  13
ENDBRANCH  10  12
ENDBRANCH   6  10
BRANCH   1  15
ATOM     15  N   UNL d   1      46.020 -17.211  44.725  0.00  0.00    -0.183 NA
ATOM     16  C   UNL d   1      46.145 -17.638  44.031  0.00  0.00     0.281 C 
ATOM     17  O   UNL d   1      46.048 -17.265  43.289  0.00  0.00    -0.265 OA
ATOM     18  C   UNL d   1      46.363 -18.421  44.067  0.00  0.00     0.068 C 
ENDBRANCH   1  15
TORSDOF 4
ENDMDL
MODEL 2
REMARK VINA RESULT:      13.5      1.139      4.074
REMARK  4 active torsions:
REMARK  status: ('A' for Active; 'I' for Inactive)
REMARK    1  A    between atoms: N_4  and  C_1 
REMARK       I    between atoms: C_10  and  N_4 
REMARK    2  A    between atoms: C_7  and  C_8 
REMARK    3  A    between atoms: O_15  and  C_7 
REMARK    4  A    between atoms: C_17  and  O_15 
ROOT
ATOM      1  C   UNL d   1      45.597 -14.098  44.485  0.00  0.00     0.197 A 
ATOM      2  N   UNL d   1      44.971 -14.549  44.805  0.00  0.00    -0.221 NA
ATOM      3  S   UNL d   1      46.178 -14.622  44.226  0.00  0.00    -0.047 SA
ATOM      4  C   UNL d   1      45.926 -15.396  44.379  0.00  0.00     0.050 A 
ATOM      5  C   UNL d   1      45.175 -15.351  44.740  0.00  0.00     0.090 A 
ATOM      6  C   UNL d   1      45.879 -16.812  44.459  0.00  0.00     0.064 A 
ATOM      7  C   UNL d   1      46.274 -16.131  44.241  0.00  0.00     0.013 A 
ATOM      8  C   UNL d   1      44.786 -16.041  44.955  0.00  0.00     0.020 A 
ATOM      9  C   UNL d   1      45.127 -16.767  44.820  0.00  0.00     0.007 A 
ENDROOT
BRANCH   6  10
ATOM     10  C   UNL d   1      46.216 -17.555  44.326  0.00  0.00     0.300 C 
ATOM     11  O   UNL d   1      46.336 -18.070  44.946  0.00  0.00    -0.259 OA
BRANCH  10  12
ATOM     12  O   UNL d   1      46.429 -17.769  43.552  0.00  0.00    -0.271 OA
BRANCH  12  13
ATOM     13  C   UNL d   1      46.369 -18.556  43.305  0.00  0.00     0.126 C 
ATOM     14  C   UNL d   1      46.329 -18.736  42.512  0.00  0.00     0.029 C 
ENDBRANCH  12  13
ENDBRANCH  10  12
ENDBRANCH   6  10
BRANCH   1  15
ATOM     15  N   UNL d   1      45.625 -13.273  44.439  0.00  0.00    -0.183 NA
ATOM     16  C   UNL d   1      45.428 -12.892  43.734  0.00  0.00     0.281 C 
ATOM     17  O   UNL d   1      45.202 -13.341  43.067  0.00  0.00    -0.265 OA
ATOM     18  C   UNL d   1      45.456 -12.080  43.688  0.00  0.00     0.068 C 
ENDBRANCH   1  15
TORSDOF 4
ENDMDL
