MODEL 1
REMARK VINA RESULT:      52.0      0.000      0.000
REMARK  9 active torsions:
REMARK  status: ('A' for Active; 'I' for Inactive)
REMARK    1  A    between atoms: C_21  and  N_1 
REMARK    2  A    between atoms: S_17  and  C_3 
REMARK    3  A    between atoms: C_16  and  C_32 
REMARK       I    between atoms: N_19  and  C_16 
REMARK    4  A    between atoms: C_29  and  S_17 
REMARK    5  A    between atoms: C_22  and  N_19 
REMARK    6  A    between atoms: C_31  and  C_21 
REMARK    7  A    between atoms: C_23  and  C_22 
REMARK    8  A    between atoms: O_30  and  C_24 
REMARK    9  A    between atoms: C_32  and  C_31 
ROOT
ATOM      1  N   UNL d   1      14.205  11.938  -6.349  0.00  0.00    -0.195 NA
ATOM      2  C   UNL d   1      13.716  11.914  -5.688  0.00  0.00     0.086 C 
ATOM      3  C   UNL d   1      13.224  11.873  -5.024  0.00  0.00     0.170 C 
ENDROOT
BRANCH   3   4
ATOM      4  S   UNL d   1      12.984  12.567  -4.650  0.00  0.00    -0.060 SA
BRANCH   4   5
ATOM      5  C   UNL d   1      13.355  12.807  -3.927  0.00  0.00     0.178 A 
ATOM      6  N   UNL d   1      13.585  13.581  -3.841  0.00  0.00    -0.253 N 
ATOM      7  C   UNL d   1      13.949  13.826  -3.138  0.00  0.00     0.268 A 
ATOM      8  C   UNL d   1      14.081  13.285  -2.518  0.00  0.00     0.076 A 
ATOM      9  O   UNL d   1      14.182  14.611  -3.050  0.00  0.00    -0.267 OA
ATOM     10  C   UNL d   1      14.444  13.531  -1.818  0.00  0.00     0.033 A 
ATOM     11  C   UNL d   1      13.851  12.511  -2.605  0.00  0.00     0.090 A 
ATOM     12  C   UNL d   1      14.581  12.988  -1.188  0.00  0.00     0.119 A 
ATOM     13  O   UNL d   1      14.929  13.060  -0.421  0.00  0.00    -0.300 OA
ATOM     14  C   UNL d   1      14.350  12.215  -1.278  0.00  0.00     0.121 A 
ATOM     15  C   UNL d   1      14.914  12.327  -0.034  0.00  0.00     0.304 A 
ATOM     16  O   UNL d   1      14.555  11.813  -0.569  0.00  0.00    -0.299 OA
ATOM     17  C   UNL d   1      13.984  11.971  -1.986  0.00  0.00     0.046 A 
ATOM     18  N   UNL d   1      13.486  12.268  -3.313  0.00  0.00    -0.222 NA
BRANCH   6  19
ATOM     19  C   UNL d   1      13.447  14.126  -4.476  0.00  0.00     0.085 C 
BRANCH  19  20
ATOM     20  C   UNL d   1      13.600  14.925  -4.357  0.00  0.00     0.024 C 
BRANCH  20  21
ATOM     21  C   UNL d   1      13.528  15.445  -4.996  0.00  0.00     0.064 C 
BRANCH  21  22
ATOM     22  C   UNL d   1      14.175  15.580  -5.489  0.00  0.00     0.279 C 
ATOM     23  N   UNL d   1      14.513  16.329  -5.526  0.00  0.00    -0.206 NA
ATOM     24  O   UNL d   1      14.483  14.961  -5.946  0.00  0.00    -0.265 OA
BRANCH  23  25
ATOM     25  C   UNL d   1      14.205  16.940  -5.073  0.00  0.00     0.102 C 
BRANCH  25  26
ATOM     26  C   UNL d   1      14.156  17.705  -5.398  0.00  0.00     0.019 A 
ATOM     27  C   UNL d   1      13.694  17.843  -6.050  0.00  0.00     0.004 A 
ATOM     28  C   UNL d   1      13.651  18.598  -6.366  0.00  0.00     0.024 A 
ATOM     29  C   UNL d   1      14.071  19.220  -6.029  0.00  0.00     0.094 A 
ATOM     30  C   UNL d   1      14.539  19.076  -5.368  0.00  0.00     0.024 A 
ATOM     31  C   UNL d   1      14.588  18.311  -5.042  0.00  0.00     0.004 A 
BRANCH  29  32
ATOM     32  O   UNL d   1      14.028  19.978  -6.346  0.00  0.00    -0.328 OA
ATOM     33  C   UNL d   1      13.508  20.518  -6.004  0.00  0.00     0.181 C 
ENDBRANCH  29  32
ENDBRANCH  25  26
ENDBRANCH  23  25
ENDBRANCH  21  22
ENDBRANCH  20  21
ENDBRANCH  19  20
ENDBRANCH   6  19
ENDBRANCH   4   5
ENDBRANCH   3   4
TORSDOF 9
ENDMDL
