MODEL 1
REMARK VINA RESULT:      88.3      0.000      0.000
REMARK  8 active torsions:
REMARK  status: ('A' for Active; 'I' for Inactive)
REMARK    1  A    between atoms: C_7  and  C_1 
REMARK    2  A    between atoms: C_10  and  N_2 
REMARK    3  A    between atoms: C_13  and  C_5 
REMARK    4  A    between atoms: C_6  and  C_7 
REMARK    5  A    between atoms: C_18  and  C_10 
REMARK    6  A    between atoms: N_19  and  C_18 
REMARK    7  A    between atoms: C_25  and  N_19 
REMARK    8  A    between atoms: C_26  and  N_19 
ROOT
ATOM      1  C   UNL d   1     -48.744  29.241  34.645  0.00  0.00     0.101 A 
ATOM      2  N   UNL d   1     -48.312  30.473  34.368  0.00  0.00    -0.269 N 
ATOM      3  C   UNL d   1     -49.224  29.553  34.048  0.00  0.00     0.256 A 
ATOM      4  C   UNL d   1     -48.959  30.312  33.877  0.00  0.00     0.304 A 
ATOM      5  C   UNL d   1     -48.183  29.813  34.837  0.00  0.00     0.075 A 
ATOM      6  O   UNL d   1     -49.285  30.825  33.311  0.00  0.00    -0.263 OA
ATOM      7  O   UNL d   1     -49.864  29.169  33.683  0.00  0.00    -0.281 OA
ENDROOT
BRANCH   1   8
ATOM      8  C   UNL d   1     -48.818  28.491  34.981  0.00  0.00     0.223 C 
ATOM      9  O   UNL d   1     -48.476  28.333  35.718  0.00  0.00    -0.284 OA
BRANCH   8  10
ATOM     10  C   UNL d   1     -49.230  27.894  34.589  0.00  0.00     0.139 A 
ATOM     11  O   UNL d   1     -50.024  27.920  34.358  0.00  0.00    -0.304 OA
ATOM     12  C   UNL d   1     -50.199  27.206  33.988  0.00  0.00     0.100 A 
ATOM     13  C   UNL d   1     -50.897  26.924  33.649  0.00  0.00     0.025 A 
ATOM     14  C   UNL d   1     -49.526  26.742  33.987  0.00  0.00     0.025 A 
ATOM     15  C   UNL d   1     -50.913  26.177  33.312  0.00  0.00     0.002 A 
ATOM     16  C   UNL d   1     -50.232  25.714  33.315  0.00  0.00     0.000 A 
ATOM     17  C   UNL d   1     -49.541  25.992  33.649  0.00  0.00     0.002 A 
ATOM     18  C   UNL d   1     -48.926  27.171  34.361  0.00  0.00     0.030 A 
ENDBRANCH   8  10
ENDBRANCH   1   8
BRANCH   5  19
ATOM     19  C   UNL d   1     -47.587  29.725  35.417  0.00  0.00     0.036 A 
ATOM     20  C   UNL d   1     -47.714  30.012  36.183  0.00  0.00     0.100 A 
ATOM     21  N   UNL d   1     -47.129  29.927  36.756  0.00  0.00    -0.242 NA
ATOM     22  C   UNL d   1     -46.404  29.550  36.567  0.00  0.00     0.099 A 
ATOM     23  C   UNL d   1     -46.283  29.263  35.794  0.00  0.00     0.021 A 
ATOM     24  C   UNL d   1     -46.876  29.353  35.224  0.00  0.00     0.005 A 
ENDBRANCH   5  19
BRANCH   2  25
ATOM     25  C   UNL d   1     -47.877  31.180  34.377  0.00  0.00     0.102 C 
BRANCH  25  26
ATOM     26  C   UNL d   1     -48.263  31.906  34.362  0.00  0.00     0.100 C 
BRANCH  26  27
ATOM     27  N   UNL d   1     -47.863  32.585  34.095  0.00  0.00    -0.301 N 
BRANCH  27  28
ATOM     28  C   UNL d   1     -48.286  33.280  33.958  0.00  0.00     0.080 C 
ATOM     29  C   UNL d   1     -48.785  33.343  33.306  0.00  0.00     0.021 C 
ENDBRANCH  27  28
BRANCH  27  30
ATOM     30  C   UNL d   1     -47.051  32.556  33.973  0.00  0.00     0.080 C 
ATOM     31  C   UNL d   1     -46.652  33.211  33.664  0.00  0.00     0.021 C 
ENDBRANCH  27  30
ENDBRANCH  26  27
ENDBRANCH  25  26
ENDBRANCH   2  25
TORSDOF 8
ENDMDL
