MODEL 1
REMARK VINA RESULT:      -3.3      0.000      0.000
REMARK  8 active torsions:
REMARK  status: ('A' for Active; 'I' for Inactive)
REMARK    1  A    between atoms: S_10  and  C_3 
REMARK    2  A    between atoms: C_12  and  C_7 
REMARK    3  A    between atoms: C_15  and  S_10 
REMARK    4  A    between atoms: C_11  and  C_15 
REMARK       I    between atoms: N_16  and  C_11 
REMARK    5  A    between atoms: C_23  and  N_16 
REMARK    6  A    between atoms: O_24  and  C_17 
REMARK    7  A    between atoms: C_18  and  C_29 
REMARK    8  A    between atoms: C_29  and  C_23 
ROOT
ATOM      1  N   UNL d   1      31.688  16.688 -23.614  0.00  0.00    -0.186 N 
ATOM      2  N   UNL d   1      30.956  16.974 -23.838  0.00  0.00    -0.162 NA
ATOM      3  C   UNL d   1      32.447  17.014 -23.663  0.00  0.00     0.217 A 
ATOM      4  C   UNL d   1      31.761  15.943 -23.267  0.00  0.00     0.187 A 
ATOM      5  N   UNL d   1      32.972  16.470 -23.349  0.00  0.00    -0.120 NA
ATOM      6  N   UNL d   1      32.547  15.806 -23.103  0.00  0.00    -0.127 NA
ATOM      7  C   UNL d   1      30.282  16.511 -23.716  0.00  0.00     0.102 A 
ATOM      8  C   UNL d   1      31.083  15.480 -23.145  0.00  0.00     0.042 A 
ATOM      9  C   UNL d   1      30.350  15.764 -23.369  0.00  0.00     0.024 A 
ENDROOT
BRANCH   3  10
ATOM     10  S   UNL d   1      32.658  17.751 -23.970  0.00  0.00    -0.041 SA
BRANCH  10  11
ATOM     11  C   UNL d   1      32.831  18.371 -23.472  0.00  0.00     0.101 C 
BRANCH  11  12
ATOM     12  C   UNL d   1      33.031  19.100 -23.779  0.00  0.00     0.286 C 
ATOM     13  O   UNL d   1      33.241  19.186 -24.573  0.00  0.00    -0.265 OA
ATOM     14  N   UNL d   1      33.028  19.769 -23.296  0.00  0.00    -0.206 NA
BRANCH  14  15
ATOM     15  C   UNL d   1      32.819  19.693 -22.500  0.00  0.00     0.102 C 
BRANCH  15  16
ATOM     16  C   UNL d   1      33.220  20.134 -21.926  0.00  0.00     0.021 C 
BRANCH  16  17
ATOM     17  C   UNL d   1      32.889  20.840 -21.642  0.00  0.00     0.002 A 
ATOM     18  C   UNL d   1      33.099  21.567 -21.982  0.00  0.00     0.002 A 
ATOM     19  C   UNL d   1      32.768  22.274 -21.697  0.00  0.00     0.024 A 
ATOM     20  C   UNL d   1      32.232  22.248 -21.079  0.00  0.00     0.094 A 
ATOM     21  C   UNL d   1      32.018  21.529 -20.735  0.00  0.00     0.024 A 
ATOM     22  C   UNL d   1      32.346  20.826 -21.017  0.00  0.00     0.002 A 
BRANCH  20  23
ATOM     23  O   UNL d   1      31.888  22.945 -20.778  0.00  0.00    -0.328 OA
ATOM     24  C   UNL d   1      32.290  23.396 -20.225  0.00  0.00     0.181 C 
ENDBRANCH  20  23
ENDBRANCH  16  17
ENDBRANCH  15  16
ENDBRANCH  14  15
ENDBRANCH  11  12
ENDBRANCH  10  11
ENDBRANCH   3  10
BRANCH   7  25
ATOM     25  C   UNL d   1      29.541  16.795 -23.941  0.00  0.00     0.022 A 
ATOM     26  C   UNL d   1      29.447  17.145 -24.670  0.00  0.00     0.022 A 
ATOM     27  C   UNL d   1      28.718  17.429 -24.899  0.00  0.00     0.099 A 
ATOM     28  N   UNL d   1      28.070  17.363 -24.392  0.00  0.00    -0.242 NA
ATOM     29  C   UNL d   1      28.168  17.011 -23.661  0.00  0.00     0.099 A 
ATOM     30  C   UNL d   1      28.909  16.726 -23.435  0.00  0.00     0.022 A 
ENDBRANCH   7  25
TORSDOF 8
ENDMDL
MODEL 2
REMARK VINA RESULT:      -1.1      1.409      2.227
REMARK  8 active torsions:
REMARK  status: ('A' for Active; 'I' for Inactive)
REMARK    1  A    between atoms: S_10  and  C_3 
REMARK    2  A    between atoms: C_12  and  C_7 
REMARK    3  A    between atoms: C_15  and  S_10 
REMARK    4  A    between atoms: C_11  and  C_15 
REMARK       I    between atoms: N_16  and  C_11 
REMARK    5  A    between atoms: C_23  and  N_16 
REMARK    6  A    between atoms: O_24  and  C_17 
REMARK    7  A    between atoms: C_18  and  C_29 
REMARK    8  A    between atoms: C_29  and  C_23 
ROOT
ATOM      1  N   UNL d   1      30.134  17.666 -24.358  0.00  0.00    -0.186 N 
ATOM      2  N   UNL d   1      29.668  17.102 -23.996  0.00  0.00    -0.162 NA
ATOM      3  C   UNL d   1      30.955  17.767 -24.389  0.00  0.00     0.217 A 
ATOM      4  C   UNL d   1      29.793  18.280 -24.790  0.00  0.00     0.187 A 
ATOM      5  N   UNL d   1      31.106  18.436 -24.837  0.00  0.00    -0.120 NA
ATOM      6  N   UNL d   1      30.387  18.755 -25.085  0.00  0.00    -0.127 NA
ATOM      7  C   UNL d   1      28.845  17.148 -24.065  0.00  0.00     0.102 A 
ATOM      8  C   UNL d   1      28.967  18.324 -24.858  0.00  0.00     0.042 A 
ATOM      9  C   UNL d   1      28.498  17.761 -24.497  0.00  0.00     0.024 A 
ENDROOT
BRANCH   3  10
ATOM     10  S   UNL d   1      31.533  17.292 -24.041  0.00  0.00    -0.041 SA
BRANCH  10  11
ATOM     11  C   UNL d   1      32.133  17.626 -23.604  0.00  0.00     0.101 C 
BRANCH  11  12
ATOM     12  C   UNL d   1      32.531  17.182 -23.046  0.00  0.00     0.286 C 
ATOM     13  O   UNL d   1      32.462  16.359 -23.028  0.00  0.00    -0.265 OA
ATOM     14  N   UNL d   1      33.011  17.551 -22.487  0.00  0.00    -0.206 NA
BRANCH  14  15
ATOM     15  C   UNL d   1      33.086  18.375 -22.497  0.00  0.00     0.102 C 
BRANCH  15  16
ATOM     16  C   UNL d   1      33.228  18.783 -21.792  0.00  0.00     0.021 C 
BRANCH  16  17
ATOM     17  C   UNL d   1      33.155  19.610 -21.771  0.00  0.00     0.002 A 
ATOM     18  C   UNL d   1      33.087  20.006 -21.046  0.00  0.00     0.002 A 
ATOM     19  C   UNL d   1      33.014  20.833 -21.025  0.00  0.00     0.024 A 
ATOM     20  C   UNL d   1      33.009  21.255 -21.726  0.00  0.00     0.094 A 
ATOM     21  C   UNL d   1      33.077  20.869 -22.452  0.00  0.00     0.024 A 
ATOM     22  C   UNL d   1      33.149  20.048 -22.475  0.00  0.00     0.002 A 
BRANCH  20  23
ATOM     23  O   UNL d   1      32.937  22.086 -21.729  0.00  0.00    -0.328 OA
ATOM     24  C   UNL d   1      32.628  22.472 -21.076  0.00  0.00     0.181 C 
ENDBRANCH  20  23
ENDBRANCH  16  17
ENDBRANCH  15  16
ENDBRANCH  14  15
ENDBRANCH  11  12
ENDBRANCH  10  11
ENDBRANCH   3  10
BRANCH   7  25
ATOM     25  C   UNL d   1      28.370  16.580 -23.701  0.00  0.00     0.022 A 
ATOM     26  C   UNL d   1      28.353  16.528 -22.888  0.00  0.00     0.022 A 
ATOM     27  C   UNL d   1      27.886  15.969 -22.521  0.00  0.00     0.099 A 
ATOM     28  N   UNL d   1      27.427  15.453 -22.972  0.00  0.00    -0.242 NA
ATOM     29  C   UNL d   1      27.446  15.508 -23.788  0.00  0.00     0.099 A 
ATOM     30  C   UNL d   1      27.921  16.076 -24.153  0.00  0.00     0.022 A 
ENDBRANCH   7  25
TORSDOF 8
ENDMDL
MODEL 3
REMARK VINA RESULT:      -0.5      1.799      2.182
REMARK  8 active torsions:
REMARK  status: ('A' for Active; 'I' for Inactive)
REMARK    1  A    between atoms: S_10  and  C_3 
REMARK    2  A    between atoms: C_12  and  C_7 
REMARK    3  A    between atoms: C_15  and  S_10 
REMARK    4  A    between atoms: C_11  and  C_15 
REMARK       I    between atoms: N_16  and  C_11 
REMARK    5  A    between atoms: C_23  and  N_16 
REMARK    6  A    between atoms: O_24  and  C_17 
REMARK    7  A    between atoms: C_18  and  C_29 
REMARK    8  A    between atoms: C_29  and  C_23 
ROOT
ATOM      1  N   UNL d   1      31.869  17.346 -24.126  0.00  0.00    -0.186 N 
ATOM      2  N   UNL d   1      31.078  17.239 -23.955  0.00  0.00    -0.162 NA
ATOM      3  C   UNL d   1      32.428  17.885 -23.842  0.00  0.00     0.217 A 
ATOM      4  C   UNL d   1      32.250  16.863 -24.676  0.00  0.00     0.187 A 
ATOM      5  N   UNL d   1      33.138  17.728 -24.217  0.00  0.00    -0.120 NA
ATOM      6  N   UNL d   1      33.029  17.095 -24.734  0.00  0.00    -0.127 NA
ATOM      7  C   UNL d   1      30.654  16.639 -24.338  0.00  0.00     0.102 A 
ATOM      8  C   UNL d   1      31.823  16.262 -25.059  0.00  0.00     0.042 A 
ATOM      9  C   UNL d   1      31.031  16.153 -24.889  0.00  0.00     0.024 A 
ENDROOT
BRANCH   3  10
ATOM     10  S   UNL d   1      32.311  18.480 -23.282  0.00  0.00    -0.041 SA
BRANCH  10  11
ATOM     11  C   UNL d   1      32.887  19.040 -23.148  0.00  0.00     0.101 C 
BRANCH  11  12
ATOM     12  C   UNL d   1      33.000  19.341 -22.398  0.00  0.00     0.286 C 
ATOM     13  O   UNL d   1      32.981  18.851 -21.734  0.00  0.00    -0.265 OA
ATOM     14  N   UNL d   1      33.138  20.148 -22.291  0.00  0.00    -0.206 NA
BRANCH  14  15
ATOM     15  C   UNL d   1      33.158  20.646 -22.950  0.00  0.00     0.102 C 
BRANCH  15  16
ATOM     16  C   UNL d   1      33.240  21.462 -22.845  0.00  0.00     0.021 C 
BRANCH  16  17
ATOM     17  C   UNL d   1      32.914  21.985 -23.401  0.00  0.00     0.002 A 
ATOM     18  C   UNL d   1      32.934  22.804 -23.268  0.00  0.00     0.002 A 
ATOM     19  C   UNL d   1      32.607  23.327 -23.824  0.00  0.00     0.024 A 
ATOM     20  C   UNL d   1      32.265  23.029 -24.506  0.00  0.00     0.094 A 
ATOM     21  C   UNL d   1      32.241  22.217 -24.646  0.00  0.00     0.024 A 
ATOM     22  C   UNL d   1      32.565  21.695 -24.094  0.00  0.00     0.002 A 
BRANCH  20  23
ATOM     23  O   UNL d   1      31.931  23.536 -25.077  0.00  0.00    -0.328 OA
ATOM     24  C   UNL d   1      31.121  23.656 -25.097  0.00  0.00     0.181 C 
ENDBRANCH  20  23
ENDBRANCH  16  17
ENDBRANCH  15  16
ENDBRANCH  14  15
ENDBRANCH  11  12
ENDBRANCH  10  11
ENDBRANCH   3  10
BRANCH   7  25
ATOM     25  C   UNL d   1      29.855  16.528 -24.168  0.00  0.00     0.022 A 
ATOM     26  C   UNL d   1      29.614  15.851 -23.784  0.00  0.00     0.022 A 
ATOM     27  C   UNL d   1      28.826  15.734 -23.612  0.00  0.00     0.099 A 
ATOM     28  N   UNL d   1      28.267  16.302 -23.827  0.00  0.00    -0.242 NA
ATOM     29  C   UNL d   1      28.512  16.980 -24.212  0.00  0.00     0.099 A 
ATOM     30  C   UNL d   1      29.312  17.092 -24.383  0.00  0.00     0.022 A 
ENDBRANCH   7  25
TORSDOF 8
ENDMDL
