MODEL 1
REMARK VINA RESULT:      91.4      0.000      0.000
REMARK  4 active torsions:
REMARK  status: ('A' for Active; 'I' for Inactive)
REMARK    1  A    between atoms: C_8  and  N_1 
REMARK    2  A    between atoms: N_7  and  C_4 
REMARK    3  A    between atoms: N_6  and  C_10 
REMARK    4  A    between atoms: C_15  and  N_7 
ROOT
ATOM      1  N   UNL d   1     -55.312-101.333 -42.859  0.00  0.00    -0.241 N 
ATOM      2  C   UNL d   1     -55.484-101.945 -42.356  0.00  0.00     0.269 A 
ATOM      3  C   UNL d   1     -55.065-100.696 -42.408  0.00  0.00     0.285 A 
ATOM      4  C   UNL d   1     -55.095-100.949 -41.621  0.00  0.00     0.142 A 
ATOM      5  C   UNL d   1     -55.344-101.689 -41.597  0.00  0.00     0.085 A 
ATOM      6  O   UNL d   1     -55.758-102.716 -42.553  0.00  0.00    -0.267 OA
ATOM      7  O   UNL d   1     -54.829 -99.940 -42.691  0.00  0.00    -0.265 OA
ENDROOT
BRANCH   4   8
ATOM      8  N   UNL d   1     -54.893-100.498 -40.914  0.00  0.00    -0.241 NA
BRANCH   8   9
ATOM      9  C   UNL d   1     -54.943-100.833 -40.156  0.00  0.00     0.082 A 
ATOM     10  C   UNL d   1     -55.109-100.340 -39.508  0.00  0.00     0.021 A 
ATOM     11  C   UNL d   1     -55.157-100.685 -38.750  0.00  0.00     0.019 A 
ATOM     12  C   UNL d   1     -55.046-101.482 -38.644  0.00  0.00     0.064 A 
ATOM     13  C   UNL d   1     -54.884-101.965 -39.270  0.00  0.00     0.019 A 
ATOM     14  C   UNL d   1     -54.831-101.641 -40.034  0.00  0.00     0.021 A 
BRANCH  12  15
ATOM     15  N   UNL d   1     -55.099-101.802 -37.879  0.00  0.00    -0.300 N 
ATOM     16  C   UNL d   1     -55.382-101.330 -37.263  0.00  0.00     0.107 A 
ATOM     17  C   UNL d   1     -55.432-101.657 -36.506  0.00  0.00     0.142 A 
ATOM     18  O   UNL d   1     -55.202-102.433 -36.378  0.00  0.00    -0.300 OA
ATOM     19  C   UNL d   1     -54.926-102.880 -36.999  0.00  0.00     0.142 A 
ATOM     20  C   UNL d   1     -54.866-102.575 -37.769  0.00  0.00     0.107 A 
ENDBRANCH  12  15
ENDBRANCH   8   9
ENDBRANCH   4   8
BRANCH   1  21
ATOM     21  C   UNL d   1     -55.396-101.413 -43.663  0.00  0.00     0.070 A 
ATOM     22  C   UNL d   1     -55.181-100.788 -44.186  0.00  0.00     0.018 A 
ATOM     23  C   UNL d   1     -55.268-100.875 -44.997  0.00  0.00     0.002 A 
ATOM     24  C   UNL d   1     -55.570-101.585 -45.303  0.00  0.00     0.000 A 
ATOM     25  C   UNL d   1     -55.779-102.192 -44.803  0.00  0.00     0.002 A 
ATOM     26  C   UNL d   1     -55.691-102.103 -43.988  0.00  0.00     0.018 A 
ENDBRANCH   1  21
TORSDOF 4
ENDMDL
