MODEL 1
REMARK VINA RESULT:      67.2      0.000      0.000
REMARK  7 active torsions:
REMARK  status: ('A' for Active; 'I' for Inactive)
REMARK    1  A    between atoms: C_3  and  C_1 
REMARK    2  A    between atoms: C_9  and  N_2 
REMARK    3  A    between atoms: C_6  and  C_3 
REMARK    4  A    between atoms: C_8  and  C_3 
REMARK       I    between atoms: N_11  and  C_6 
REMARK    5  A    between atoms: C_26  and  C_7 
REMARK    6  A    between atoms: C_21  and  N_11 
REMARK    7  A    between atoms: C_12  and  C_21 
ROOT
ATOM      1  C   UNL d   1     -50.992  26.177  33.666  0.00  0.00     0.103 A 
ATOM      2  N   UNL d   1     -50.307  26.515  33.969  0.00  0.00    -0.269 N 
ATOM      3  S   UNL d   1     -50.802  25.426  33.380  0.00  0.00    -0.064 SA
ATOM      4  C   UNL d   1     -49.687  25.978  33.873  0.00  0.00     0.271 A 
ATOM      5  C   UNL d   1     -49.997  25.305  33.509  0.00  0.00     0.087 A 
ATOM      6  O   UNL d   1     -48.906  26.094  34.101  0.00  0.00    -0.266 OA
ENDROOT
BRANCH   1   7
ATOM      7  C   UNL d   1     -51.743  26.525  33.648  0.00  0.00     0.101 C 
BRANCH   7   8
ATOM      8  C   UNL d   1     -52.408  26.088  33.874  0.00  0.00     0.283 C 
ATOM      9  N   UNL d   1     -52.873  25.726  33.307  0.00  0.00    -0.204 NA
ATOM     10  O   UNL d   1     -52.599  26.019  34.675  0.00  0.00    -0.265 OA
BRANCH   9  11
ATOM     11  C   UNL d   1     -53.538  25.289  33.531  0.00  0.00     0.127 C 
BRANCH  11  12
ATOM     12  C   UNL d   1     -53.528  24.467  33.510  0.00  0.00     0.119 A 
ATOM     13  O   UNL d   1     -52.866  23.981  33.540  0.00  0.00    -0.304 OA
ATOM     14  C   UNL d   1     -53.118  23.197  33.504  0.00  0.00     0.123 A 
ATOM     15  C   UNL d   1     -53.938  23.198  33.451  0.00  0.00     0.029 A 
ATOM     16  C   UNL d   1     -54.194  23.980  33.454  0.00  0.00     0.028 A 
ENDBRANCH  11  12
ENDBRANCH   9  11
ENDBRANCH   7   8
BRANCH   7  17
ATOM     17  C   UNL d   1     -51.828  27.313  33.404  0.00  0.00     0.129 C 
ATOM     18  N   UNL d   1     -52.583  27.625  33.307  0.00  0.00    -0.146 N 
ENDBRANCH   7  17
ENDBRANCH   1   7
BRANCH   2  19
ATOM     19  C   UNL d   1     -49.796  27.058  34.322  0.00  0.00     0.067 A 
ATOM     20  C   UNL d   1     -49.498  26.916  35.068  0.00  0.00     0.018 A 
ATOM     21  C   UNL d   1     -48.991  27.455  35.419  0.00  0.00     0.008 A 
ATOM     22  C   UNL d   1     -48.780  28.147  35.015  0.00  0.00     0.035 A 
ATOM     23  C   UNL d   1     -49.083  28.287  34.262  0.00  0.00     0.008 A 
ATOM     24 BR   UNL d   1     -48.272  28.692  35.360  0.00  0.00    -0.049 Br
ATOM     25  C   UNL d   1     -49.590  27.745  33.914  0.00  0.00     0.018 A 
ENDBRANCH   2  19
BRANCH   5  26
ATOM     26  C   UNL d   1     -49.567  24.628  33.310  0.00  0.00     0.011 C 
ATOM     27  C   UNL d   1     -49.354  24.091  33.900  0.00  0.00     0.001 C 
ENDBRANCH   5  26
TORSDOF 7
ENDMDL
