MODEL 1
REMARK VINA RESULT:      53.1      0.000      0.000
REMARK  7 active torsions:
REMARK  status: ('A' for Active; 'I' for Inactive)
REMARK    1  A    between atoms: C_10  and  C_3 
REMARK    2  A    between atoms: N_12  and  C_4 
REMARK    3  A    between atoms: O_23  and  C_11 
REMARK    4  A    between atoms: C_25  and  N_12 
REMARK    5  A    between atoms: O_26  and  C_13 
REMARK    6  A    between atoms: C_18  and  C_28 
REMARK    7  A    between atoms: C_28  and  C_25 
ROOT
ATOM      1  C   UNL d   1     -51.056  25.618  33.338  0.00  0.00     0.168 A 
ATOM      2  N   UNL d   1     -50.329  26.035  33.347  0.00  0.00    -0.184 N 
ATOM      3  C   UNL d   1     -51.059  24.820  33.343  0.00  0.00     0.057 A 
ATOM      4  C   UNL d   1     -50.343  26.829  33.342  0.00  0.00     0.218 A 
ATOM      5  N   UNL d   1     -49.644  24.813  33.365  0.00  0.00    -0.160 NA
ATOM      6  N   UNL d   1     -51.748  26.024  33.325  0.00  0.00    -0.227 NA
ATOM      7  C   UNL d   1     -51.038  27.248  33.329  0.00  0.00     0.071 A 
ATOM      8  C   UNL d   1     -50.349  24.409  33.356  0.00  0.00     0.124 A 
ATOM      9  C   UNL d   1     -51.754  26.838  33.320  0.00  0.00     0.087 A 
ATOM     10  C   UNL d   1     -52.485  27.266  33.306  0.00  0.00     0.021 C 
ENDROOT
BRANCH   4  11
ATOM     11  N   UNL d   1     -49.610  27.253  33.352  0.00  0.00    -0.380 NA
BRANCH  11  12
ATOM     12  C   UNL d   1     -48.877  27.573  33.619  0.00  0.00     0.163 C 
BRANCH  12  13
ATOM     13  C   UNL d   1     -48.785  27.742  34.437  0.00  0.00     0.035 C 
BRANCH  13  14
ATOM     14  C   UNL d   1     -48.410  28.464  34.662  0.00  0.00     0.005 A 
ATOM     15  C   UNL d   1     -48.191  28.578  35.481  0.00  0.00     0.026 A 
ATOM     16  C   UNL d   1     -47.811  29.306  35.716  0.00  0.00     0.116 A 
ATOM     17  C   UNL d   1     -47.656  29.909  35.131  0.00  0.00     0.116 A 
ATOM     18  C   UNL d   1     -47.876  29.785  34.332  0.00  0.00     0.026 A 
ATOM     19  C   UNL d   1     -48.256  29.054  34.100  0.00  0.00     0.002 A 
BRANCH  16  20
ATOM     20  O   UNL d   1     -47.593  29.426  36.513  0.00  0.00    -0.326 OA
ATOM     21  C   UNL d   1     -48.181  29.450  37.114  0.00  0.00     0.181 C 
ENDBRANCH  16  20
BRANCH  17  22
ATOM     22  O   UNL d   1     -47.282  30.626  35.363  0.00  0.00    -0.326 OA
ATOM     23  C   UNL d   1     -47.596  31.373  35.119  0.00  0.00     0.181 C 
ENDBRANCH  17  22
ENDBRANCH  13  14
ENDBRANCH  12  13
ENDBRANCH  11  12
ENDBRANCH   4  11
BRANCH   3  24
ATOM     24  C   UNL d   1     -51.763  24.416  33.334  0.00  0.00     0.005 A 
ATOM     25  C   UNL d   1     -52.456  24.821  33.327  0.00  0.00     0.001 A 
ATOM     26  C   UNL d   1     -53.161  24.418  33.318  0.00  0.00     0.011 A 
ATOM     27  C   UNL d   1     -53.162  23.615  33.317  0.00  0.00     0.058 A 
ATOM     28  C   UNL d   1     -52.458  23.216  33.324  0.00  0.00     0.011 A 
ATOM     29 CL   UNL d   1     -53.899  23.193  33.308  0.00  0.00    -0.082 Cl
ATOM     30  C   UNL d   1     -51.764  23.613  33.333  0.00  0.00     0.001 A 
ENDBRANCH   3  24
TORSDOF 7
ENDMDL
