MODEL 1
REMARK VINA RESULT:      -7.9      0.000      0.000
REMARK  3 active torsions:
REMARK  status: ('A' for Active; 'I' for Inactive)
REMARK    1  A    between atoms: C_5  and  C_1 
REMARK    2  A    between atoms: C_4  and  C_6 
REMARK    3  A    between atoms: C_6  and  C_5 
ROOT
ATOM      1  C   UNL d   1     -47.826  13.385  22.548  0.00  0.00     0.068 C 
ENDROOT
BRANCH   1   2
ATOM      2  C   UNL d   1     -48.490  13.829  22.771  0.00  0.00     0.114 A 
ATOM      3  N   UNL d   1     -49.130  13.555  23.217  0.00  0.00    -0.238 NA
ATOM      4  C   UNL d   1     -49.661  14.182  23.306  0.00  0.00     0.088 A 
ATOM      5  C   UNL d   1     -50.389  14.236  23.693  0.00  0.00     0.020 A 
ATOM      6  C   UNL d   1     -49.354  14.842  22.918  0.00  0.00     0.049 A 
ATOM      7  C   UNL d   1     -50.807  14.948  23.691  0.00  0.00     0.002 A 
ATOM      8  C   UNL d   1     -50.492  15.602  23.300  0.00  0.00     0.001 A 
ATOM      9  C   UNL d   1     -49.768  15.547  22.916  0.00  0.00     0.008 A 
ATOM     10  S   UNL d   1     -48.625  14.620  22.586  0.00  0.00    -0.066 SA
ENDBRANCH   1   2
BRANCH   1  11
ATOM     11  C   UNL d   1     -47.133  13.431  23.001  0.00  0.00     0.201 C 
ATOM     12  O   UNL d   1     -46.887  14.153  23.321  0.00  0.00    -0.286 OA
BRANCH  11  13
ATOM     13  C   UNL d   1     -46.681  12.745  23.134  0.00  0.00     0.078 A 
ATOM     14  C   UNL d   1     -45.907  12.691  22.828  0.00  0.00     0.202 A 
ATOM     15  C   UNL d   1     -45.457  12.012  22.958  0.00  0.00     0.084 A 
ATOM     16  O   UNL d   1     -45.589  13.317  22.395  0.00  0.00    -0.286 OA
ATOM     17  C   UNL d   1     -45.783  11.386  23.395  0.00  0.00     0.199 A 
ATOM     18  C   UNL d   1     -46.549  11.439  23.698  0.00  0.00     0.042 A 
ATOM     19  O   UNL d   1     -45.332  10.707  23.525  0.00  0.00    -0.286 OA
ATOM     20  C   UNL d   1     -47.000  12.119  23.568  0.00  0.00     0.010 A 
ENDBRANCH  11  13
ENDBRANCH   1  11
TORSDOF 3
ENDMDL
MODEL 2
REMARK VINA RESULT:      -7.8      0.990      1.350
REMARK  3 active torsions:
REMARK  status: ('A' for Active; 'I' for Inactive)
REMARK    1  A    between atoms: C_5  and  C_1 
REMARK    2  A    between atoms: C_4  and  C_6 
REMARK    3  A    between atoms: C_6  and  C_5 
ROOT
ATOM      1  C   UNL d   1     -47.666  14.162  22.574  0.00  0.00     0.068 C 
ENDROOT
BRANCH   1   2
ATOM      2  C   UNL d   1     -48.436  14.447  22.698  0.00  0.00     0.114 A 
ATOM      3  N   UNL d   1     -48.677  14.942  23.314  0.00  0.00    -0.238 NA
ATOM      4  C   UNL d   1     -49.486  15.084  23.220  0.00  0.00     0.088 A 
ATOM      5  C   UNL d   1     -50.021  15.531  23.662  0.00  0.00     0.020 A 
ATOM      6  C   UNL d   1     -49.746  14.679  22.549  0.00  0.00     0.049 A 
ATOM      7  C   UNL d   1     -50.813  15.575  23.433  0.00  0.00     0.002 A 
ATOM      8  C   UNL d   1     -51.064  15.167  22.761  0.00  0.00     0.001 A 
ATOM      9  C   UNL d   1     -50.531  14.722  22.323  0.00  0.00     0.008 A 
ATOM     10  S   UNL d   1     -49.091  14.284  22.226  0.00  0.00    -0.066 SA
ENDBRANCH   1   2
BRANCH   1  11
ATOM     11  C   UNL d   1     -47.424  13.464  22.951  0.00  0.00     0.201 C 
ATOM     12  O   UNL d   1     -47.939  13.056  23.452  0.00  0.00    -0.286 OA
BRANCH  11  13
ATOM     13  C   UNL d   1     -46.655  13.173  22.821  0.00  0.00     0.078 A 
ATOM     14  C   UNL d   1     -46.425  12.443  23.156  0.00  0.00     0.202 A 
ATOM     15  C   UNL d   1     -45.664  12.152  23.029  0.00  0.00     0.084 A 
ATOM     16  O   UNL d   1     -46.959  12.013  23.614  0.00  0.00    -0.286 OA
ATOM     17  C   UNL d   1     -45.132  12.591  22.568  0.00  0.00     0.199 A 
ATOM     18  C   UNL d   1     -45.360  13.312  22.236  0.00  0.00     0.042 A 
ATOM     19  O   UNL d   1     -44.371  12.299  22.441  0.00  0.00    -0.286 OA
ATOM     20  C   UNL d   1     -46.121  13.604  22.362  0.00  0.00     0.010 A 
ENDBRANCH  11  13
ENDBRANCH   1  11
TORSDOF 3
ENDMDL
MODEL 3
REMARK VINA RESULT:      -7.5      1.669      4.454
REMARK  3 active torsions:
REMARK  status: ('A' for Active; 'I' for Inactive)
REMARK    1  A    between atoms: C_5  and  C_1 
REMARK    2  A    between atoms: C_4  and  C_6 
REMARK    3  A    between atoms: C_6  and  C_5 
ROOT
ATOM      1  C   UNL d   1     -47.773  13.836  22.799  0.00  0.00     0.068 C 
ENDROOT
BRANCH   1   2
ATOM      2  C   UNL d   1     -47.308  13.170  22.968  0.00  0.00     0.114 A 
ATOM      3  N   UNL d   1     -47.570  12.474  23.331  0.00  0.00    -0.238 NA
ATOM      4  C   UNL d   1     -46.923  11.962  23.389  0.00  0.00     0.088 A 
ATOM      5  C   UNL d   1     -46.851  11.200  23.698  0.00  0.00     0.020 A 
ATOM      6  C   UNL d   1     -46.263  12.337  23.065  0.00  0.00     0.049 A 
ATOM      7  C   UNL d   1     -46.121  10.814  23.681  0.00  0.00     0.002 A 
ATOM      8  C   UNL d   1     -45.468  11.196  23.355  0.00  0.00     0.001 A 
ATOM      9  C   UNL d   1     -45.540  11.954  23.049  0.00  0.00     0.008 A 
ATOM     10  S   UNL d   1     -46.505  13.088  22.803  0.00  0.00    -0.066 SA
ENDBRANCH   1   2
BRANCH   1  11
ATOM     11  C   UNL d   1     -48.446  13.753  22.321  0.00  0.00     0.201 C 
ATOM     12  O   UNL d   1     -48.468  13.185  21.721  0.00  0.00    -0.286 OA
BRANCH  11  13
ATOM     13  C   UNL d   1     -49.103  14.247  22.449  0.00  0.00     0.078 A 
ATOM     14  C   UNL d   1     -49.836  14.063  22.093  0.00  0.00     0.202 A 
ATOM     15  C   UNL d   1     -50.490  14.551  22.218  0.00  0.00     0.084 A 
ATOM     16  O   UNL d   1     -49.908  13.394  21.617  0.00  0.00    -0.286 OA
ATOM     17  C   UNL d   1     -50.410  15.222  22.699  0.00  0.00     0.199 A 
ATOM     18  C   UNL d   1     -49.685  15.404  23.051  0.00  0.00     0.042 A 
ATOM     19  O   UNL d   1     -51.064  15.710  22.823  0.00  0.00    -0.286 OA
ATOM     20  C   UNL d   1     -49.031  14.916  22.926  0.00  0.00     0.010 A 
ENDBRANCH  11  13
ENDBRANCH   1  11
TORSDOF 3
ENDMDL
