MODEL 1
REMARK VINA RESULT:      -3.7      0.000      0.000
REMARK  0 active torsions:
REMARK  status: ('A' for Active; 'I' for Inactive)
ROOT
ATOM      1  C   UNL d   1      30.625  17.456 -24.590  0.00  0.00     0.267 A 
ATOM      2  N   UNL d   1      29.858  17.250 -24.495  0.00  0.00    -0.270 N 
ATOM      3  C   UNL d   1      31.164  17.163 -24.291  0.00  0.00     0.081 A 
ATOM      4  C   UNL d   1      31.258  16.543 -23.763  0.00  0.00     0.105 A 
ATOM      5  O   UNL d   1      30.810  16.100 -23.439  0.00  0.00    -0.305 OA
ATOM      6  C   UNL d   1      29.574  16.635 -24.010  0.00  0.00     0.090 A 
ATOM      7  C   UNL d   1      30.015  16.101 -23.520  0.00  0.00     0.116 A 
ATOM      8  C   UNL d   1      31.818  17.570 -24.564  0.00  0.00     0.028 A 
ATOM      9  O   UNL d   1      30.782  18.082 -25.097  0.00  0.00    -0.267 OA
ATOM     10  C   UNL d   1      32.005  16.330 -23.509  0.00  0.00     0.026 A 
ATOM     11  C   UNL d   1      32.574  17.359 -24.311  0.00  0.00     0.103 A 
ATOM     12  C   UNL d   1      29.302  17.681 -24.912  0.00  0.00     0.102 C 
ATOM     13  N   UNL d   1      33.227  17.770 -24.588  0.00  0.00    -0.148 N 
ATOM     14  C   UNL d   1      32.668  16.738 -23.784  0.00  0.00     0.023 A 
ATOM     15  C   UNL d   1      28.729  16.575 -24.046  0.00  0.00     0.020 A 
ATOM     16  C   UNL d   1      29.613  15.517 -23.073  0.00  0.00     0.026 A 
ATOM     17  C   UNL d   1      28.328  15.986 -23.595  0.00  0.00     0.002 A 
ATOM     18  C   UNL d   1      28.773  15.453 -23.104  0.00  0.00     0.002 A 
ENDROOT
TORSDOF 0
ENDMDL
MODEL 2
REMARK VINA RESULT:      -3.6      0.865      2.996
REMARK  0 active torsions:
REMARK  status: ('A' for Active; 'I' for Inactive)
ROOT
ATOM      1  C   UNL d   1      30.172  16.954 -24.395  0.00  0.00     0.267 A 
ATOM      2  N   UNL d   1      30.932  17.158 -24.543  0.00  0.00    -0.270 N 
ATOM      3  C   UNL d   1      29.958  16.479 -23.954  0.00  0.00     0.081 A 
ATOM      4  C   UNL d   1      30.335  15.965 -23.439  0.00  0.00     0.105 A 
ATOM      5  O   UNL d   1      31.013  15.839 -23.278  0.00  0.00    -0.305 OA
ATOM      6  C   UNL d   1      31.606  16.824 -24.184  0.00  0.00     0.090 A 
ATOM      7  C   UNL d   1      31.644  16.212 -23.597  0.00  0.00     0.116 A 
ATOM      8  C   UNL d   1      29.143  16.482 -24.006  0.00  0.00     0.028 A 
ATOM      9  O   UNL d   1      29.592  17.356 -24.813  0.00  0.00    -0.267 OA
ATOM     10  C   UNL d   1      29.897  15.453 -22.977  0.00  0.00     0.026 A 
ATOM     11  C   UNL d   1      28.696  15.967 -23.541  0.00  0.00     0.103 A 
ATOM     12  C   UNL d   1      31.060  17.745 -25.097  0.00  0.00     0.102 C 
ATOM     13  N   UNL d   1      27.878  15.973 -23.596  0.00  0.00    -0.148 N 
ATOM     14  C   UNL d   1      29.073  15.453 -23.027  0.00  0.00     0.023 A 
ATOM     15  C   UNL d   1      32.320  17.175 -24.476  0.00  0.00     0.020 A 
ATOM     16  C   UNL d   1      32.388  15.958 -23.309  0.00  0.00     0.026 A 
ATOM     17  C   UNL d   1      33.068  16.915 -24.183  0.00  0.00     0.002 A 
ATOM     18  C   UNL d   1      33.103  16.302 -23.595  0.00  0.00     0.002 A 
ENDROOT
TORSDOF 0
ENDMDL
MODEL 3
REMARK VINA RESULT:      -3.0      5.615      6.588
REMARK  0 active torsions:
REMARK  status: ('A' for Active; 'I' for Inactive)
ROOT
ATOM      1  C   UNL d   1      33.142  21.848 -22.085  0.00  0.00     0.267 A 
ATOM      2  N   UNL d   1      33.141  22.550 -21.700  0.00  0.00    -0.270 N 
ATOM      3  C   UNL d   1      33.170  21.229 -21.800  0.00  0.00     0.081 A 
ATOM      4  C   UNL d   1      33.210  20.956 -21.027  0.00  0.00     0.105 A 
ATOM      5  O   UNL d   1      33.228  21.273 -20.394  0.00  0.00    -0.305 OA
ATOM      6  C   UNL d   1      33.173  22.654 -20.874  0.00  0.00     0.090 A 
ATOM      7  C   UNL d   1      33.213  22.062 -20.268  0.00  0.00     0.116 A 
ATOM      8  C   UNL d   1      33.158  20.698 -22.421  0.00  0.00     0.028 A 
ATOM      9  O   UNL d   1      33.107  21.874 -22.905  0.00  0.00    -0.267 OA
ATOM     10  C   UNL d   1      33.236  20.154 -20.877  0.00  0.00     0.026 A 
ATOM     11  C   UNL d   1      33.185  19.887 -22.274  0.00  0.00     0.103 A 
ATOM     12  C   UNL d   1      33.104  23.226 -22.158  0.00  0.00     0.102 C 
ATOM     13  N   UNL d   1      33.172  19.358 -22.900  0.00  0.00    -0.148 N 
ATOM     14  C   UNL d   1      33.224  19.615 -21.502  0.00  0.00     0.023 A 
ATOM     15  C   UNL d   1      33.160  23.475 -20.664  0.00  0.00     0.020 A 
ATOM     16  C   UNL d   1      33.241  22.292 -19.463  0.00  0.00     0.026 A 
ATOM     17  C   UNL d   1      33.189  23.702 -19.851  0.00  0.00     0.002 A 
ATOM     18  C   UNL d   1      33.229  23.107 -19.246  0.00  0.00     0.002 A 
ENDROOT
TORSDOF 0
ENDMDL
MODEL 4
REMARK VINA RESULT:      -2.9      4.875      6.180
REMARK  0 active torsions:
REMARK  status: ('A' for Active; 'I' for Inactive)
ROOT
ATOM      1  C   UNL d   1      33.231  20.622 -21.222  0.00  0.00     0.267 A 
ATOM      2  N   UNL d   1      33.228  21.378 -20.959  0.00  0.00    -0.270 N 
ATOM      3  C   UNL d   1      33.233  20.420 -21.874  0.00  0.00     0.081 A 
ATOM      4  C   UNL d   1      33.234  20.811 -22.595  0.00  0.00     0.105 A 
ATOM      5  O   UNL d   1      33.233  21.493 -22.784  0.00  0.00    -0.305 OA
ATOM      6  C   UNL d   1      33.227  22.061 -21.435  0.00  0.00     0.090 A 
ATOM      7  C   UNL d   1      33.230  22.116 -22.282  0.00  0.00     0.116 A 
ATOM      8  C   UNL d   1      33.235  19.603 -21.852  0.00  0.00     0.028 A 
ATOM      9  O   UNL d   1      33.230  20.030 -20.654  0.00  0.00    -0.267 OA
ATOM     10  C   UNL d   1      33.238  20.385 -23.292  0.00  0.00     0.026 A 
ATOM     11  C   UNL d   1      33.239  19.169 -22.553  0.00  0.00     0.103 A 
ATOM     12  C   UNL d   1      33.225  21.490 -20.149  0.00  0.00     0.102 C 
ATOM     13  N   UNL d   1      33.241  18.349 -22.527  0.00  0.00    -0.148 N 
ATOM     14  C   UNL d   1      33.240  19.560 -23.274  0.00  0.00     0.023 A 
ATOM     15  C   UNL d   1      33.224  22.767 -20.967  0.00  0.00     0.020 A 
ATOM     16  C   UNL d   1      33.229  22.867 -22.651  0.00  0.00     0.026 A 
ATOM     17  C   UNL d   1      33.223  23.523 -21.342  0.00  0.00     0.002 A 
ATOM     18  C   UNL d   1      33.226  23.574 -22.191  0.00  0.00     0.002 A 
ENDROOT
TORSDOF 0
ENDMDL
MODEL 5
REMARK VINA RESULT:      -2.8      5.158      6.116
REMARK  0 active torsions:
REMARK  status: ('A' for Active; 'I' for Inactive)
ROOT
ATOM      1  C   UNL d   1      33.218  22.182 -22.171  0.00  0.00     0.267 A 
ATOM      2  N   UNL d   1      33.226  21.610 -22.730  0.00  0.00    -0.270 N 
ATOM      3  C   UNL d   1      33.205  22.089 -21.495  0.00  0.00     0.081 A 
ATOM      4  C   UNL d   1      33.195  21.429 -21.009  0.00  0.00     0.105 A 
ATOM      5  O   UNL d   1      33.196  20.731 -21.127  0.00  0.00    -0.305 OA
ATOM      6  C   UNL d   1      33.222  20.789 -22.589  0.00  0.00     0.090 A 
ATOM      7  C   UNL d   1      33.208  20.380 -21.845  0.00  0.00     0.116 A 
ATOM      8  C   UNL d   1      33.201  22.838 -21.169  0.00  0.00     0.028 A 
ATOM      9  O   UNL d   1      33.224  22.959 -22.435  0.00  0.00    -0.267 OA
ATOM     10  C   UNL d   1      33.181  21.518 -20.196  0.00  0.00     0.026 A 
ATOM     11  C   UNL d   1      33.186  22.933 -20.350  0.00  0.00     0.103 A 
ATOM     12  C   UNL d   1      33.241  21.852 -23.511  0.00  0.00     0.102 C 
ATOM     13  N   UNL d   1      33.182  23.687 -20.026  0.00  0.00    -0.148 N 
ATOM     14  C   UNL d   1      33.176  22.273 -19.863  0.00  0.00     0.023 A 
ATOM     15  C   UNL d   1      33.234  20.348 -23.313  0.00  0.00     0.020 A 
ATOM     16  C   UNL d   1      33.206  19.543 -21.830  0.00  0.00     0.026 A 
ATOM     17  C   UNL d   1      33.232  19.504 -23.293  0.00  0.00     0.002 A 
ATOM     18  C   UNL d   1      33.218  19.098 -22.546  0.00  0.00     0.002 A 
ENDROOT
TORSDOF 0
ENDMDL
MODEL 6
REMARK VINA RESULT:      -2.7      4.070      5.154
REMARK  0 active torsions:
REMARK  status: ('A' for Active; 'I' for Inactive)
ROOT
ATOM      1  C   UNL d   1      33.235  21.177 -22.897  0.00  0.00     0.267 A 
ATOM      2  N   UNL d   1      33.236  20.584 -23.434  0.00  0.00    -0.270 N 
ATOM      3  C   UNL d   1      33.236  21.109 -22.218  0.00  0.00     0.081 A 
ATOM      4  C   UNL d   1      33.238  20.468 -21.707  0.00  0.00     0.105 A 
ATOM      5  O   UNL d   1      33.239  19.766 -21.799  0.00  0.00    -0.305 OA
ATOM      6  C   UNL d   1      33.237  19.769 -23.262  0.00  0.00     0.090 A 
ATOM      7  C   UNL d   1      33.239  19.388 -22.504  0.00  0.00     0.116 A 
ATOM      8  C   UNL d   1      33.235  21.870 -21.919  0.00  0.00     0.028 A 
ATOM      9  O   UNL d   1      33.234  21.944 -23.189  0.00  0.00    -0.267 OA
ATOM     10  C   UNL d   1      33.239  20.588 -20.899  0.00  0.00     0.026 A 
ATOM     11  C   UNL d   1      33.236  21.996 -21.104  0.00  0.00     0.103 A 
ATOM     12  C   UNL d   1      33.234  20.797 -24.224  0.00  0.00     0.102 C 
ATOM     13  N   UNL d   1      33.235  22.761 -20.808  0.00  0.00    -0.148 N 
ATOM     14  C   UNL d   1      33.238  21.354 -20.594  0.00  0.00     0.023 A 
ATOM     15  C   UNL d   1      33.237  19.302 -23.969  0.00  0.00     0.020 A 
ATOM     16  C   UNL d   1      33.241  18.553 -22.457  0.00  0.00     0.026 A 
ATOM     17  C   UNL d   1      33.239  18.460 -23.918  0.00  0.00     0.002 A 
ATOM     18  C   UNL d   1      33.241  18.081 -23.157  0.00  0.00     0.002 A 
ENDROOT
TORSDOF 0
ENDMDL
MODEL 7
REMARK VINA RESULT:      -2.6      0.844      1.948
REMARK  0 active torsions:
REMARK  status: ('A' for Active; 'I' for Inactive)
ROOT
ATOM      1  C   UNL d   1      30.642  16.139 -23.458  0.00  0.00     0.267 A 
ATOM      2  N   UNL d   1      29.888  16.305 -23.671  0.00  0.00    -0.270 N 
ATOM      3  C   UNL d   1      31.197  16.507 -23.608  0.00  0.00     0.081 A 
ATOM      4  C   UNL d   1      31.327  17.201 -24.023  0.00  0.00     0.105 A 
ATOM      5  O   UNL d   1      30.907  17.655 -24.368  0.00  0.00    -0.305 OA
ATOM      6  C   UNL d   1      29.642  16.963 -24.119  0.00  0.00     0.090 A 
ATOM      7  C   UNL d   1      30.113  17.590 -24.443  0.00  0.00     0.116 A 
ATOM      8  C   UNL d   1      31.824  16.109 -23.268  0.00  0.00     0.028 A 
ATOM      9  O   UNL d   1      30.761  15.459 -23.014  0.00  0.00    -0.267 OA
ATOM     10  C   UNL d   1      32.085  17.498 -24.099  0.00  0.00     0.026 A 
ATOM     11  C   UNL d   1      32.591  16.404 -23.341  0.00  0.00     0.103 A 
ATOM     12  C   UNL d   1      29.308  15.783 -23.429  0.00  0.00     0.102 C 
ATOM     13  N   UNL d   1      33.218  16.002 -22.998  0.00  0.00    -0.148 N 
ATOM     14  C   UNL d   1      32.721  17.099 -23.757  0.00  0.00     0.023 A 
ATOM     15  C   UNL d   1      28.803  16.961 -24.239  0.00  0.00     0.020 A 
ATOM     16  C   UNL d   1      29.748  18.203 -24.880  0.00  0.00     0.026 A 
ATOM     17  C   UNL d   1      28.438  17.581 -24.681  0.00  0.00     0.002 A 
ATOM     18  C   UNL d   1      28.914  18.207 -25.004  0.00  0.00     0.002 A 
ENDROOT
TORSDOF 0
ENDMDL
MODEL 8
REMARK VINA RESULT:      -2.5      5.986      7.120
REMARK  0 active torsions:
REMARK  status: ('A' for Active; 'I' for Inactive)
ROOT
ATOM      1  C   UNL d   1      33.072  21.630 -21.039  0.00  0.00     0.267 A 
ATOM      2  N   UNL d   1      33.113  21.364 -21.793  0.00  0.00    -0.270 N 
ATOM      3  C   UNL d   1      33.063  22.282 -20.838  0.00  0.00     0.081 A 
ATOM      4  C   UNL d   1      33.088  23.002 -21.230  0.00  0.00     0.105 A 
ATOM      5  O   UNL d   1      33.127  23.189 -21.912  0.00  0.00    -0.305 OA
ATOM      6  C   UNL d   1      33.153  21.839 -22.476  0.00  0.00     0.090 A 
ATOM      7  C   UNL d   1      33.160  22.686 -22.533  0.00  0.00     0.116 A 
ATOM      8  C   UNL d   1      33.018  22.262 -20.023  0.00  0.00     0.028 A 
ATOM      9  O   UNL d   1      33.036  21.063 -20.447  0.00  0.00    -0.267 OA
ATOM     10  C   UNL d   1      33.068  23.700 -20.807  0.00  0.00     0.026 A 
ATOM     11  C   UNL d   1      32.997  22.964 -19.591  0.00  0.00     0.103 A 
ATOM     12  C   UNL d   1      33.115  20.554 -21.903  0.00  0.00     0.102 C 
ATOM     13  N   UNL d   1      32.951  22.940 -18.772  0.00  0.00    -0.148 N 
ATOM     14  C   UNL d   1      33.022  23.684 -19.983  0.00  0.00     0.023 A 
ATOM     15  C   UNL d   1      33.190  21.369 -23.180  0.00  0.00     0.020 A 
ATOM     16  C   UNL d   1      33.203  23.053 -23.283  0.00  0.00     0.026 A 
ATOM     17  C   UNL d   1      33.234  21.743 -23.936  0.00  0.00     0.002 A 
ATOM     18  C   UNL d   1      33.241  22.591 -23.988  0.00  0.00     0.002 A 
ENDROOT
TORSDOF 0
ENDMDL
MODEL 9
REMARK VINA RESULT:      -2.4      3.100      3.909
REMARK  0 active torsions:
REMARK  status: ('A' for Active; 'I' for Inactive)
ROOT
ATOM      1  C   UNL d   1      33.138  19.507 -23.671  0.00  0.00     0.267 A 
ATOM      2  N   UNL d   1      33.133  18.841 -24.115  0.00  0.00    -0.270 N 
ATOM      3  C   UNL d   1      33.169  19.541 -22.991  0.00  0.00     0.081 A 
ATOM      4  C   UNL d   1      33.208  18.983 -22.391  0.00  0.00     0.105 A 
ATOM      5  O   UNL d   1      33.224  18.276 -22.378  0.00  0.00    -0.305 OA
ATOM      6  C   UNL d   1      33.163  18.061 -23.824  0.00  0.00     0.090 A 
ATOM      7  C   UNL d   1      33.206  17.797 -23.019  0.00  0.00     0.116 A 
ATOM      8  C   UNL d   1      33.159  20.338 -22.808  0.00  0.00     0.028 A 
ATOM      9  O   UNL d   1      33.104  20.222 -24.074  0.00  0.00    -0.267 OA
ATOM     10  C   UNL d   1      33.239  19.222 -21.610  0.00  0.00     0.026 A 
ATOM     11  C   UNL d   1      33.190  20.584 -22.022  0.00  0.00     0.103 A 
ATOM     12  C   UNL d   1      33.093  18.933 -24.926  0.00  0.00     0.102 C 
ATOM     13  N   UNL d   1      33.181  21.384 -21.843  0.00  0.00    -0.148 N 
ATOM     14  C   UNL d   1      33.230  20.026 -21.422  0.00  0.00     0.023 A 
ATOM     15  C   UNL d   1      33.147  17.494 -24.453  0.00  0.00     0.020 A 
ATOM     16  C   UNL d   1      33.231  16.978 -22.849  0.00  0.00     0.026 A 
ATOM     17  C   UNL d   1      33.173  16.668 -24.278  0.00  0.00     0.002 A 
ATOM     18  C   UNL d   1      33.215  16.408 -23.470  0.00  0.00     0.002 A 
ENDROOT
TORSDOF 0
ENDMDL
