MODEL 1
REMARK VINA RESULT:      -6.0      0.000      0.000
REMARK  1 active torsions:
REMARK  status: ('A' for Active; 'I' for Inactive)
REMARK    1  A    between atoms: C_6  and  C_1 
ROOT
ATOM      1  C   UNL d   1     -41.516-122.476 -52.876  0.00  0.00     0.163 A 
ATOM      2  N   UNL d   1     -42.067-121.947 -53.184  0.00  0.00    -0.225 NA
ATOM      3  N   UNL d   1     -41.123-122.866 -53.500  0.00  0.00    -0.225 NA
ATOM      4  C   UNL d   1     -42.035-121.991 -54.015  0.00  0.00     0.101 A 
ATOM      5  C   UNL d   1     -41.443-122.567 -54.213  0.00  0.00     0.101 A 
ATOM      6  C   UNL d   1     -42.430-121.619 -54.612  0.00  0.00     0.021 A 
ATOM      7  C   UNL d   1     -41.288-122.730 -54.994  0.00  0.00     0.021 A 
ATOM      8  C   UNL d   1     -42.258-121.798 -55.399  0.00  0.00     0.002 A 
ATOM      9  C   UNL d   1     -41.708-122.334 -55.584  0.00  0.00     0.002 A 
ENDROOT
BRANCH   1  10
ATOM     10  C   UNL d   1     -41.387-122.587 -52.068  0.00  0.00     0.039 A 
ATOM     11  C   UNL d   1     -41.374-121.962 -51.530  0.00  0.00     0.024 A 
ATOM     12  C   UNL d   1     -41.245-122.096 -50.731  0.00  0.00     0.099 A 
ATOM     13  N   UNL d   1     -41.123-122.835 -50.410  0.00  0.00    -0.242 NA
ATOM     14  C   UNL d   1     -41.134-123.489 -50.953  0.00  0.00     0.099 A 
ATOM     15  C   UNL d   1     -41.268-123.351 -51.779  0.00  0.00     0.024 A 
ENDBRANCH   1  10
TORSDOF 1
ENDMDL
MODEL 2
REMARK VINA RESULT:      -6.0      0.795      3.513
REMARK  1 active torsions:
REMARK  status: ('A' for Active; 'I' for Inactive)
REMARK    1  A    between atoms: C_6  and  C_1 
ROOT
ATOM      1  C   UNL d   1     -41.597-122.522 -53.257  0.00  0.00     0.163 A 
ATOM      2  N   UNL d   1     -41.511-121.955 -52.666  0.00  0.00    -0.225 NA
ATOM      3  N   UNL d   1     -41.515-123.285 -52.930  0.00  0.00    -0.225 NA
ATOM      4  C   UNL d   1     -41.371-122.350 -51.945  0.00  0.00     0.101 A 
ATOM      5  C   UNL d   1     -41.374-123.183 -52.111  0.00  0.00     0.101 A 
ATOM      6  C   UNL d   1     -41.246-122.105 -51.187  0.00  0.00     0.021 A 
ATOM      7  C   UNL d   1     -41.251-123.712 -51.507  0.00  0.00     0.021 A 
ATOM      8  C   UNL d   1     -41.122-122.658 -50.586  0.00  0.00     0.002 A 
ATOM      9  C   UNL d   1     -41.125-123.433 -50.740  0.00  0.00     0.002 A 
ENDROOT
BRANCH   1  10
ATOM     10  C   UNL d   1     -41.742-122.339 -54.050  0.00  0.00     0.039 A 
ATOM     11  C   UNL d   1     -41.219-122.538 -54.655  0.00  0.00     0.024 A 
ATOM     12  C   UNL d   1     -41.383-122.347 -55.435  0.00  0.00     0.099 A 
ATOM     13  N   UNL d   1     -42.058-121.956 -55.673  0.00  0.00    -0.242 NA
ATOM     14  C   UNL d   1     -42.607-121.744 -55.059  0.00  0.00     0.099 A 
ATOM     15  C   UNL d   1     -42.437-121.942 -54.252  0.00  0.00     0.024 A 
ENDBRANCH   1  10
TORSDOF 1
ENDMDL
MODEL 3
REMARK VINA RESULT:      -5.0      1.700      4.299
REMARK  1 active torsions:
REMARK  status: ('A' for Active; 'I' for Inactive)
REMARK    1  A    between atoms: C_6  and  C_1 
ROOT
ATOM      1  C   UNL d   1     -41.654-122.880 -50.626  0.00  0.00     0.163 A 
ATOM      2  N   UNL d   1     -42.400-122.773 -50.293  0.00  0.00    -0.225 NA
ATOM      3  N   UNL d   1     -41.123-123.157 -50.046  0.00  0.00    -0.225 NA
ATOM      4  C   UNL d   1     -42.356-122.981 -49.487  0.00  0.00     0.101 A 
ATOM      5  C   UNL d   1     -41.557-123.221 -49.332  0.00  0.00     0.101 A 
ATOM      6  C   UNL d   1     -42.890-122.993 -48.882  0.00  0.00     0.021 A 
ATOM      7  C   UNL d   1     -41.347-123.457 -48.583  0.00  0.00     0.021 A 
ATOM      8  C   UNL d   1     -42.658-123.236 -48.128  0.00  0.00     0.002 A 
ATOM      9  C   UNL d   1     -41.914-123.460 -47.984  0.00  0.00     0.002 A 
ENDROOT
BRANCH   1  10
ATOM     10  C   UNL d   1     -41.481-122.730 -51.420  0.00  0.00     0.039 A 
ATOM     11  C   UNL d   1     -41.455-121.968 -51.733  0.00  0.00     0.024 A 
ATOM     12  C   UNL d   1     -41.281-121.843 -52.525  0.00  0.00     0.099 A 
ATOM     13  N   UNL d   1     -41.123-122.442 -53.054  0.00  0.00    -0.242 NA
ATOM     14  C   UNL d   1     -41.145-123.234 -52.745  0.00  0.00     0.099 A 
ATOM     15  C   UNL d   1     -41.326-123.364 -51.926  0.00  0.00     0.024 A 
ENDBRANCH   1  10
TORSDOF 1
ENDMDL
MODEL 4
REMARK VINA RESULT:      -4.9      1.264      1.786
REMARK  1 active torsions:
REMARK  status: ('A' for Active; 'I' for Inactive)
REMARK    1  A    between atoms: C_6  and  C_1 
ROOT
ATOM      1  C   UNL d   1     -41.623-123.060 -51.384  0.00  0.00     0.163 A 
ATOM      2  N   UNL d   1     -41.657-122.382 -51.852  0.00  0.00    -0.225 NA
ATOM      3  N   UNL d   1     -41.442-123.721 -51.858  0.00  0.00    -0.225 NA
ATOM      4  C   UNL d   1     -41.498-122.603 -52.640  0.00  0.00     0.101 A 
ATOM      5  C   UNL d   1     -41.364-123.442 -52.644  0.00  0.00     0.101 A 
ATOM      6  C   UNL d   1     -41.453-122.199 -53.337  0.00  0.00     0.021 A 
ATOM      7  C   UNL d   1     -41.194-123.817 -53.344  0.00  0.00     0.021 A 
ATOM      8  C   UNL d   1     -41.279-122.599 -54.038  0.00  0.00     0.002 A 
ATOM      9  C   UNL d   1     -41.154-123.379 -54.042  0.00  0.00     0.002 A 
ENDROOT
BRANCH   1  10
ATOM     10  C   UNL d   1     -41.751-123.059 -50.567  0.00  0.00     0.039 A 
ATOM     11  C   UNL d   1     -42.486-122.895 -50.233  0.00  0.00     0.024 A 
ATOM     12  C   UNL d   1     -42.591-122.900 -49.420  0.00  0.00     0.099 A 
ATOM     13  N   UNL d   1     -41.995-123.064 -48.888  0.00  0.00    -0.242 NA
ATOM     14  C   UNL d   1     -41.231-123.236 -49.218  0.00  0.00     0.099 A 
ATOM     15  C   UNL d   1     -41.123-123.230 -50.061  0.00  0.00     0.024 A 
ENDBRANCH   1  10
TORSDOF 1
ENDMDL
MODEL 5
REMARK VINA RESULT:      -4.5      1.959      3.177
REMARK  1 active torsions:
REMARK  status: ('A' for Active; 'I' for Inactive)
REMARK    1  A    between atoms: C_6  and  C_1 
ROOT
ATOM      1  C   UNL d   1     -41.669-123.135 -49.989  0.00  0.00     0.163 A 
ATOM      2  N   UNL d   1     -41.570-123.726 -50.556  0.00  0.00    -0.225 NA
ATOM      3  N   UNL d   1     -41.573-122.386 -50.344  0.00  0.00    -0.225 NA
ATOM      4  C   UNL d   1     -41.409-123.359 -51.287  0.00  0.00     0.101 A 
ATOM      5  C   UNL d   1     -41.411-122.521 -51.154  0.00  0.00     0.101 A 
ATOM      6  C   UNL d   1     -41.265-123.635 -52.031  0.00  0.00     0.021 A 
ATOM      7  C   UNL d   1     -41.269-122.016 -51.775  0.00  0.00     0.021 A 
ATOM      8  C   UNL d   1     -41.123-123.106 -52.650  0.00  0.00     0.002 A 
ATOM      9  C   UNL d   1     -41.124-122.326 -52.526  0.00  0.00     0.002 A 
ENDROOT
BRANCH   1  10
ATOM     10  C   UNL d   1     -41.836-123.286 -49.194  0.00  0.00     0.039 A 
ATOM     11  C   UNL d   1     -41.257-123.269 -48.607  0.00  0.00     0.024 A 
ATOM     12  C   UNL d   1     -41.446-123.422 -47.824  0.00  0.00     0.099 A 
ATOM     13  N   UNL d   1     -42.200-123.598 -47.566  0.00  0.00    -0.242 NA
ATOM     14  C   UNL d   1     -42.807-123.618 -48.161  0.00  0.00     0.099 A 
ATOM     15  C   UNL d   1     -42.611-123.460 -48.971  0.00  0.00     0.024 A 
ENDBRANCH   1  10
TORSDOF 1
ENDMDL
MODEL 6
REMARK VINA RESULT:      -3.4      1.048      3.597
REMARK  1 active torsions:
REMARK  status: ('A' for Active; 'I' for Inactive)
REMARK    1  A    between atoms: C_6  and  C_1 
ROOT
ATOM      1  C   UNL d   1     -41.849-122.514 -52.558  0.00  0.00     0.163 A 
ATOM      2  N   UNL d   1     -41.296-122.879 -52.070  0.00  0.00    -0.225 NA
ATOM      3  N   UNL d   1     -42.479-122.218 -52.099  0.00  0.00    -0.225 NA
ATOM      4  C   UNL d   1     -41.567-122.822 -51.283  0.00  0.00     0.101 A 
ATOM      5  C   UNL d   1     -42.308-122.408 -51.302  0.00  0.00     0.101 A 
ATOM      6  C   UNL d   1     -41.276-123.068 -50.572  0.00  0.00     0.021 A 
ATOM      7  C   UNL d   1     -42.706-122.269 -50.607  0.00  0.00     0.021 A 
ATOM      8  C   UNL d   1     -41.696-122.918 -49.877  0.00  0.00     0.002 A 
ATOM      9  C   UNL d   1     -42.385-122.532 -49.894  0.00  0.00     0.002 A 
ENDROOT
BRANCH   1  10
ATOM     10  C   UNL d   1     -41.771-122.459 -53.379  0.00  0.00     0.039 A 
ATOM     11  C   UNL d   1     -41.845-121.746 -53.787  0.00  0.00     0.024 A 
ATOM     12  C   UNL d   1     -41.764-121.716 -54.602  0.00  0.00     0.099 A 
ATOM     13  N   UNL d   1     -41.608-122.368 -55.066  0.00  0.00    -0.242 NA
ATOM     14  C   UNL d   1     -41.529-123.111 -54.659  0.00  0.00     0.099 A 
ATOM     15  C   UNL d   1     -41.613-123.142 -53.815  0.00  0.00     0.024 A 
ENDBRANCH   1  10
TORSDOF 1
ENDMDL
