MODEL 1
REMARK VINA RESULT:      67.5      0.000      0.000
REMARK  3 active torsions:
REMARK  status: ('A' for Active; 'I' for Inactive)
REMARK    1  A    between atoms: C_4  and  S_1 
REMARK    2  A    between atoms: N_6  and  S_1 
REMARK    3  A    between atoms: C_2  and  C_8 
ROOT
ATOM      1  C   UNL d   1      60.768  48.379  50.793  0.00  0.00     0.104 A 
ATOM      2  C   UNL d   1      59.979  48.488  50.579  0.00  0.00     0.015 A 
ATOM      3  C   UNL d   1      59.568  49.150  50.858  0.00  0.00     0.025 A 
ATOM      4  C   UNL d   1      61.147  48.925  51.282  0.00  0.00     0.012 A 
ATOM      5  C   UNL d   1      59.944  49.698  51.347  0.00  0.00     0.002 A 
ATOM      6  C   UNL d   1      60.735  49.582  51.557  0.00  0.00     0.001 A 
ATOM      7  C   UNL d   1      61.935  48.813  51.493  0.00  0.00     0.001 C 
ENDROOT
BRANCH   3   8
ATOM      8  C   UNL d   1      58.776  49.264  50.646  0.00  0.00     0.111 A 
ATOM      9  N   UNL d   1      58.132  49.207  51.157  0.00  0.00    -0.239 NA
ATOM     10  C   UNL d   1      57.446  49.361  50.719  0.00  0.00     0.088 A 
ATOM     11  C   UNL d   1      56.652  49.384  50.922  0.00  0.00     0.020 A 
ATOM     12  C   UNL d   1      57.676  49.511  49.939  0.00  0.00     0.049 A 
ATOM     13  C   UNL d   1      56.087  49.555  50.357  0.00  0.00     0.002 A 
ATOM     14  C   UNL d   1      56.314  49.706  49.572  0.00  0.00     0.001 A 
ATOM     15  C   UNL d   1      57.112  49.683  49.365  0.00  0.00     0.008 A 
ATOM     16  S   UNL d   1      58.506  49.449  49.899  0.00  0.00    -0.066 SA
ENDBRANCH   3   8
BRANCH   1  17
ATOM     17  S   UNL d   1      61.189  47.717  50.518  0.00  0.00     0.271 S 
ATOM     18  O   UNL d   1      61.735  48.224  50.150  0.00  0.00    -0.200 OA
ATOM     19  O   UNL d   1      60.563  47.138  50.939  0.00  0.00    -0.200 OA
BRANCH  17  20
ATOM     20  N   UNL d   1      61.570  47.035  50.268  0.00  0.00    -0.229 N 
ATOM     21  C   UNL d   1      61.992  46.947  49.563  0.00  0.00     0.092 A 
ATOM     22  C   UNL d   1      62.285  46.176  49.531  0.00  0.00     0.021 A 
ATOM     23  C   UNL d   1      62.043  45.781  50.223  0.00  0.00     0.021 A 
ATOM     24  C   UNL d   1      61.604  46.314  50.673  0.00  0.00     0.092 A 
ENDBRANCH  17  20
ENDBRANCH   1  17
TORSDOF 3
ENDMDL
