MODEL 1
REMARK VINA RESULT:      -8.9      0.000      0.000
REMARK  7 active torsions:
REMARK  status: ('A' for Active; 'I' for Inactive)
REMARK    1  A    between atoms: N_6  and  C_1 
REMARK    2  A    between atoms: S_9  and  C_3 
REMARK       I    between atoms: C_7  and  N_6 
REMARK    3  A    between atoms: C_14  and  C_7 
REMARK    4  A    between atoms: C_8  and  C_13 
REMARK       I    between atoms: N_10  and  C_8 
REMARK    5  A    between atoms: C_13  and  S_9 
REMARK    6  A    between atoms: C_15  and  N_10 
REMARK    7  A    between atoms: C_22  and  C_14 
ROOT
ATOM      1  C   UNL d   1      50.686  34.368  52.978  0.00  0.00     0.219 A 
ATOM      2  S   UNL d   1      50.852  33.576  53.097  0.00  0.00    -0.019 SA
ATOM      3  C   UNL d   1      51.588  33.438  52.856  0.00  0.00     0.165 A 
ATOM      4  N   UNL d   1      51.372  34.702  52.647  0.00  0.00    -0.120 NA
ATOM      5  N   UNL d   1      51.914  34.143  52.574  0.00  0.00    -0.133 NA
ENDROOT
BRANCH   3   6
ATOM      6  S   UNL d   1      51.913  32.660  52.913  0.00  0.00    -0.054 SA
BRANCH   6   7
ATOM      7  C   UNL d   1      52.679  32.554  53.204  0.00  0.00     0.100 C 
BRANCH   7   8
ATOM      8  C   UNL d   1      53.069  31.833  53.106  0.00  0.00     0.286 C 
ATOM      9  N   UNL d   1      53.761  31.689  53.490  0.00  0.00    -0.208 NA
ATOM     10  O   UNL d   1      52.740  31.239  52.598  0.00  0.00    -0.265 OA
BRANCH   9  11
ATOM     11  C   UNL d   1      54.088  32.290  54.001  0.00  0.00     0.085 A 
ATOM     12  C   UNL d   1      54.643  32.795  53.676  0.00  0.00     0.021 A 
ATOM     13  C   UNL d   1      54.967  33.380  54.159  0.00  0.00     0.031 A 
ATOM     14  C   UNL d   1      54.748  33.461  54.934  0.00  0.00     0.140 A 
ATOM     15  C   UNL d   1      54.177  32.938  55.264  0.00  0.00     0.031 A 
ATOM     16  F   UNL d   1      55.047  33.998  55.373  0.00  0.00    -0.204 F 
ATOM     17  C   UNL d   1      53.845  32.347  54.788  0.00  0.00     0.021 A 
ENDBRANCH   9  11
ENDBRANCH   7   8
ENDBRANCH   6   7
ENDBRANCH   3   6
BRANCH   1  18
ATOM     18  N   UNL d   1      49.987  34.793  53.140  0.00  0.00    -0.181 NA
ATOM     19  C   UNL d   1      49.241  35.062  52.839  0.00  0.00     0.281 C 
ATOM     20  O   UNL d   1      49.030  34.870  52.067  0.00  0.00    -0.265 OA
BRANCH  19  21
ATOM     21  C   UNL d   1      48.663  35.510  53.219  0.00  0.00     0.063 C 
BRANCH  21  22
ATOM     22  C   UNL d   1      48.048  35.918  52.702  0.00  0.00     0.005 C 
ATOM     23  C   UNL d   1      47.745  36.641  52.993  0.00  0.00     0.000 C 
ATOM     24  C   UNL d   1      47.783  35.729  52.098  0.00  0.00     0.000 C 
ENDBRANCH  21  22
ENDBRANCH  19  21
ENDBRANCH   1  18
TORSDOF 7
ENDMDL
MODEL 2
REMARK VINA RESULT:      -7.4      1.629      1.993
REMARK  7 active torsions:
REMARK  status: ('A' for Active; 'I' for Inactive)
REMARK    1  A    between atoms: N_6  and  C_1 
REMARK    2  A    between atoms: S_9  and  C_3 
REMARK       I    between atoms: C_7  and  N_6 
REMARK    3  A    between atoms: C_14  and  C_7 
REMARK    4  A    between atoms: C_8  and  C_13 
REMARK       I    between atoms: N_10  and  C_8 
REMARK    5  A    between atoms: C_13  and  S_9 
REMARK    6  A    between atoms: C_15  and  N_10 
REMARK    7  A    between atoms: C_22  and  C_14 
ROOT
ATOM      1  C   UNL d   1      50.791  34.449  52.586  0.00  0.00     0.219 A 
ATOM      2  S   UNL d   1      51.132  34.575  53.318  0.00  0.00    -0.019 SA
ATOM      3  C   UNL d   1      51.913  34.546  53.235  0.00  0.00     0.165 A 
ATOM      4  N   UNL d   1      51.419  34.341  52.052  0.00  0.00    -0.120 NA
ATOM      5  N   UNL d   1      52.094  34.400  52.443  0.00  0.00    -0.133 NA
ENDROOT
BRANCH   3   6
ATOM      6  S   UNL d   1      52.414  34.659  53.907  0.00  0.00    -0.054 SA
BRANCH   6   7
ATOM      7  C   UNL d   1      52.997  34.100  54.086  0.00  0.00     0.100 C 
BRANCH   7   8
ATOM      8  C   UNL d   1      53.546  34.244  54.684  0.00  0.00     0.286 C 
ATOM      9  N   UNL d   1      54.091  33.686  54.879  0.00  0.00    -0.208 NA
ATOM     10  O   UNL d   1      53.538  34.984  55.098  0.00  0.00    -0.265 OA
BRANCH   9  11
ATOM     11  C   UNL d   1      54.095  32.941  54.460  0.00  0.00     0.085 A 
ATOM     12  C   UNL d   1      53.667  32.326  54.786  0.00  0.00     0.021 A 
ATOM     13  C   UNL d   1      53.663  31.603  54.391  0.00  0.00     0.031 A 
ATOM     14  C   UNL d   1      54.068  31.494  53.698  0.00  0.00     0.140 A 
ATOM     15  C   UNL d   1      54.507  32.131  53.367  0.00  0.00     0.031 A 
ATOM     16  F   UNL d   1      54.061  30.829  53.339  0.00  0.00    -0.204 F 
ATOM     17  C   UNL d   1      54.518  32.862  53.756  0.00  0.00     0.021 A 
ENDBRANCH   9  11
ENDBRANCH   7   8
ENDBRANCH   6   7
ENDBRANCH   3   6
BRANCH   1  18
ATOM     18  N   UNL d   1      49.984  34.424  52.373  0.00  0.00    -0.181 NA
ATOM     19  C   UNL d   1      49.231  34.809  52.427  0.00  0.00     0.281 C 
ATOM     20  O   UNL d   1      49.172  35.513  52.849  0.00  0.00    -0.265 OA
BRANCH  19  21
ATOM     21  C   UNL d   1      48.508  34.576  52.106  0.00  0.00     0.063 C 
BRANCH  21  22
ATOM     22  C   UNL d   1      48.031  35.198  51.663  0.00  0.00     0.005 C 
ATOM     23  C   UNL d   1      47.913  35.059  50.847  0.00  0.00     0.000 C 
ATOM     24  C   UNL d   1      47.743  35.779  51.890  0.00  0.00     0.000 C 
ENDBRANCH  21  22
ENDBRANCH  19  21
ENDBRANCH   1  18
TORSDOF 7
ENDMDL
MODEL 3
REMARK VINA RESULT:      -7.2      2.448      5.347
REMARK  7 active torsions:
REMARK  status: ('A' for Active; 'I' for Inactive)
REMARK    1  A    between atoms: N_6  and  C_1 
REMARK    2  A    between atoms: S_9  and  C_3 
REMARK       I    between atoms: C_7  and  N_6 
REMARK    3  A    between atoms: C_14  and  C_7 
REMARK    4  A    between atoms: C_8  and  C_13 
REMARK       I    between atoms: N_10  and  C_8 
REMARK    5  A    between atoms: C_13  and  S_9 
REMARK    6  A    between atoms: C_15  and  N_10 
REMARK    7  A    between atoms: C_22  and  C_14 
ROOT
ATOM      1  C   UNL d   1      54.053  31.706  53.791  0.00  0.00     0.219 A 
ATOM      2  S   UNL d   1      53.660  32.290  54.208  0.00  0.00    -0.019 SA
ATOM      3  C   UNL d   1      53.966  32.986  54.008  0.00  0.00     0.165 A 
ATOM      4  N   UNL d   1      54.619  32.096  53.324  0.00  0.00    -0.120 NA
ATOM      5  N   UNL d   1      54.567  32.865  53.454  0.00  0.00    -0.133 NA
ENDROOT
BRANCH   3   6
ATOM      6  S   UNL d   1      53.665  33.696  54.354  0.00  0.00    -0.054 SA
BRANCH   6   7
ATOM      7  C   UNL d   1      53.057  34.112  53.980  0.00  0.00     0.100 C 
BRANCH   7   8
ATOM      8  C   UNL d   1      52.906  34.900  54.175  0.00  0.00     0.286 C 
ATOM      9  N   UNL d   1      52.278  35.286  53.853  0.00  0.00    -0.208 NA
ATOM     10  O   UNL d   1      53.415  35.307  54.718  0.00  0.00    -0.265 OA
BRANCH   9  11
ATOM     11  C   UNL d   1      51.768  34.871  53.307  0.00  0.00     0.085 A 
ATOM     12  C   UNL d   1      51.056  34.594  53.598  0.00  0.00     0.021 A 
ATOM     13  C   UNL d   1      50.555  34.192  53.081  0.00  0.00     0.031 A 
ATOM     14  C   UNL d   1      50.753  34.071  52.305  0.00  0.00     0.140 A 
ATOM     15  C   UNL d   1      51.487  34.359  52.011  0.00  0.00     0.031 A 
ATOM     16  F   UNL d   1      50.291  33.702  51.835  0.00  0.00    -0.204 F 
ATOM     17  C   UNL d   1      51.998  34.764  52.522  0.00  0.00     0.021 A 
ENDBRANCH   9  11
ENDBRANCH   7   8
ENDBRANCH   6   7
ENDBRANCH   3   6
BRANCH   1  18
ATOM     18  N   UNL d   1      53.941  30.879  53.803  0.00  0.00    -0.181 NA
ATOM     19  C   UNL d   1      53.427  30.236  53.601  0.00  0.00     0.281 C 
ATOM     20  O   UNL d   1      52.709  30.400  53.233  0.00  0.00    -0.265 OA
BRANCH  19  21
ATOM     21  C   UNL d   1      53.540  29.428  53.722  0.00  0.00     0.063 C 
BRANCH  21  22
ATOM     22  C   UNL d   1      53.178  29.065  54.462  0.00  0.00     0.005 C 
ATOM     23  C   UNL d   1      53.647  28.499  54.861  0.00  0.00     0.000 C 
ATOM     24  C   UNL d   1      52.569  29.179  54.758  0.00  0.00     0.000 C 
ENDBRANCH  21  22
ENDBRANCH  19  21
ENDBRANCH   1  18
TORSDOF 7
ENDMDL
MODEL 4
REMARK VINA RESULT:      -6.6      2.595      4.852
REMARK  7 active torsions:
REMARK  status: ('A' for Active; 'I' for Inactive)
REMARK    1  A    between atoms: N_6  and  C_1 
REMARK    2  A    between atoms: S_9  and  C_3 
REMARK       I    between atoms: C_7  and  N_6 
REMARK    3  A    between atoms: C_14  and  C_7 
REMARK    4  A    between atoms: C_8  and  C_13 
REMARK       I    between atoms: N_10  and  C_8 
REMARK    5  A    between atoms: C_13  and  S_9 
REMARK    6  A    between atoms: C_15  and  N_10 
REMARK    7  A    between atoms: C_22  and  C_14 
ROOT
ATOM      1  C   UNL d   1      52.579  31.099  53.062  0.00  0.00     0.219 A 
ATOM      2  S   UNL d   1      52.328  31.783  53.435  0.00  0.00    -0.019 SA
ATOM      3  C   UNL d   1      52.358  32.373  52.916  0.00  0.00     0.165 A 
ATOM      4  N   UNL d   1      52.763  31.315  52.281  0.00  0.00    -0.120 NA
ATOM      5  N   UNL d   1      52.631  32.081  52.193  0.00  0.00    -0.133 NA
ENDROOT
BRANCH   3   6
ATOM      6  S   UNL d   1      52.129  33.153  53.148  0.00  0.00    -0.054 SA
BRANCH   6   7
ATOM      7  C   UNL d   1      52.658  33.632  53.563  0.00  0.00     0.100 C 
BRANCH   7   8
ATOM      8  C   UNL d   1      52.503  34.436  53.669  0.00  0.00     0.286 C 
ATOM      9  N   UNL d   1      52.983  34.886  54.131  0.00  0.00    -0.208 NA
ATOM     10  O   UNL d   1      51.833  34.791  53.290  0.00  0.00    -0.265 OA
BRANCH   9  11
ATOM     11  C   UNL d   1      53.657  34.523  54.512  0.00  0.00     0.085 A 
ATOM     12  C   UNL d   1      53.555  34.259  55.279  0.00  0.00     0.021 A 
ATOM     13  C   UNL d   1      54.198  33.907  55.657  0.00  0.00     0.031 A 
ATOM     14  C   UNL d   1      54.913  33.821  55.288  0.00  0.00     0.140 A 
ATOM     15  C   UNL d   1      55.013  34.095  54.499  0.00  0.00     0.031 A 
ATOM     16  F   UNL d   1      55.500  33.498  55.639  0.00  0.00    -0.204 F 
ATOM     17  C   UNL d   1      54.373  34.450  54.109  0.00  0.00     0.021 A 
ENDBRANCH   9  11
ENDBRANCH   7   8
ENDBRANCH   6   7
ENDBRANCH   3   6
BRANCH   1  18
ATOM     18  N   UNL d   1      52.650  30.325  53.366  0.00  0.00    -0.181 NA
ATOM     19  C   UNL d   1      53.176  29.736  53.672  0.00  0.00     0.281 C 
ATOM     20  O   UNL d   1      53.978  29.910  53.733  0.00  0.00    -0.265 OA
BRANCH  19  21
ATOM     21  C   UNL d   1      53.001  28.973  53.932  0.00  0.00     0.063 C 
BRANCH  21  22
ATOM     22  C   UNL d   1      53.310  28.730  54.742  0.00  0.00     0.005 C 
ATOM     23  C   UNL d   1      53.796  28.050  54.762  0.00  0.00     0.000 C 
ATOM     24  C   UNL d   1      53.209  29.017  55.357  0.00  0.00     0.000 C 
ENDBRANCH  21  22
ENDBRANCH  19  21
ENDBRANCH   1  18
TORSDOF 7
ENDMDL
