MODEL 1
REMARK VINA RESULT:      -7.8      0.000      0.000
REMARK  2 active torsions:
REMARK  status: ('A' for Active; 'I' for Inactive)
REMARK    1  A    between atoms: C_2  and  C_1 
REMARK    2  A    between atoms: N_6  and  C_2 
ROOT
ATOM      1  C   UNL d   1     -48.662  12.308  22.744  0.00  0.00     0.047 A 
ATOM      2  C   UNL d   1     -48.386  11.664  23.185  0.00  0.00     0.101 A 
ATOM      3  C   UNL d   1     -49.467  12.393  22.903  0.00  0.00     0.021 A 
ATOM      4  N   UNL d   1     -49.020  11.354  23.613  0.00  0.00    -0.244 NA
ATOM      5  C   UNL d   1     -49.689  11.807  23.437  0.00  0.00     0.082 A 
ATOM      6  C   UNL d   1     -50.025  12.927  22.631  0.00  0.00     0.002 A 
ATOM      7  C   UNL d   1     -50.464  11.755  23.698  0.00  0.00     0.019 A 
ATOM      8  C   UNL d   1     -50.804  12.876  22.891  0.00  0.00     0.000 A 
ATOM      9  C   UNL d   1     -51.024  12.287  23.427  0.00  0.00     0.002 A 
ENDROOT
BRANCH   1  10
ATOM     10  C   UNL d   1     -48.219  12.784  22.237  0.00  0.00     0.122 C 
ATOM     11  S   UNL d   1     -48.438  12.864  21.447  0.00  0.00    -0.059 SA
BRANCH  10  12
ATOM     12  N   UNL d   1     -47.553  13.179  22.528  0.00  0.00    -0.292 N 
ATOM     13  C   UNL d   1     -47.592  13.991  22.691  0.00  0.00     0.108 A 
ATOM     14  C   UNL d   1     -46.927  14.385  22.982  0.00  0.00     0.142 A 
ATOM     15  O   UNL d   1     -46.225  13.969  23.109  0.00  0.00    -0.300 OA
ATOM     16  C   UNL d   1     -46.188  13.158  22.946  0.00  0.00     0.142 A 
ATOM     17  C   UNL d   1     -46.853  12.764  22.655  0.00  0.00     0.108 A 
ENDBRANCH  10  12
ENDBRANCH   1  10
TORSDOF 2
ENDMDL
MODEL 2
REMARK VINA RESULT:      -7.8      1.743      2.936
REMARK  2 active torsions:
REMARK  status: ('A' for Active; 'I' for Inactive)
REMARK    1  A    between atoms: C_2  and  C_1 
REMARK    2  A    between atoms: N_6  and  C_2 
ROOT
ATOM      1  C   UNL d   1     -47.892  13.520  22.743  0.00  0.00     0.047 A 
ATOM      2  C   UNL d   1     -47.255  14.034  22.866  0.00  0.00     0.101 A 
ATOM      3  C   UNL d   1     -47.675  12.780  23.035  0.00  0.00     0.021 A 
ATOM      4  N   UNL d   1     -46.649  13.611  23.233  0.00  0.00    -0.244 NA
ATOM      5  C   UNL d   1     -46.911  12.834  23.336  0.00  0.00     0.082 A 
ATOM      6  C   UNL d   1     -48.075  12.065  23.065  0.00  0.00     0.002 A 
ATOM      7  C   UNL d   1     -46.548  12.177  23.666  0.00  0.00     0.019 A 
ATOM      8  C   UNL d   1     -47.712  11.404  23.396  0.00  0.00     0.000 A 
ATOM      9  C   UNL d   1     -46.944  11.461  23.698  0.00  0.00     0.002 A 
ENDROOT
BRANCH   1  10
ATOM     10  C   UNL d   1     -48.615  13.707  22.393  0.00  0.00     0.122 C 
ATOM     11  S   UNL d   1     -48.851  13.328  21.700  0.00  0.00    -0.059 SA
BRANCH  10  12
ATOM     12  N   UNL d   1     -49.101  14.277  22.744  0.00  0.00    -0.292 N 
ATOM     13  C   UNL d   1     -49.719  14.043  23.244  0.00  0.00     0.108 A 
ATOM     14  C   UNL d   1     -50.204  14.612  23.594  0.00  0.00     0.142 A 
ATOM     15  O   UNL d   1     -50.072  15.414  23.444  0.00  0.00    -0.300 OA
ATOM     16  C   UNL d   1     -49.454  15.645  22.944  0.00  0.00     0.142 A 
ATOM     17  C   UNL d   1     -48.970  15.076  22.594  0.00  0.00     0.108 A 
ENDBRANCH  10  12
ENDBRANCH   1  10
TORSDOF 2
ENDMDL
MODEL 3
REMARK VINA RESULT:      -7.6      0.973      1.453
REMARK  2 active torsions:
REMARK  status: ('A' for Active; 'I' for Inactive)
REMARK    1  A    between atoms: C_2  and  C_1 
REMARK    2  A    between atoms: N_6  and  C_2 
ROOT
ATOM      1  C   UNL d   1     -48.863  13.469  22.747  0.00  0.00     0.047 A 
ATOM      2  C   UNL d   1     -48.936  14.259  22.982  0.00  0.00     0.101 A 
ATOM      3  C   UNL d   1     -49.566  13.083  22.943  0.00  0.00     0.021 A 
ATOM      4  N   UNL d   1     -49.682  14.358  23.323  0.00  0.00    -0.244 NA
ATOM      5  C   UNL d   1     -50.070  13.628  23.298  0.00  0.00     0.082 A 
ATOM      6  C   UNL d   1     -49.809  12.307  22.845  0.00  0.00     0.002 A 
ATOM      7  C   UNL d   1     -50.815  13.400  23.553  0.00  0.00     0.019 A 
ATOM      8  C   UNL d   1     -50.556  12.076  23.101  0.00  0.00     0.000 A 
ATOM      9  C   UNL d   1     -51.062  12.625  23.456  0.00  0.00     0.002 A 
ENDROOT
BRANCH   1  10
ATOM     10  C   UNL d   1     -48.210  13.123  22.381  0.00  0.00     0.122 C 
ATOM     11  S   UNL d   1     -48.281  12.791  21.630  0.00  0.00    -0.059 SA
BRANCH  10  12
ATOM     12  N   UNL d   1     -47.482  13.111  22.775  0.00  0.00    -0.292 N 
ATOM     13  C   UNL d   1     -47.277  12.460  23.246  0.00  0.00     0.108 A 
ATOM     14  C   UNL d   1     -46.550  12.450  23.639  0.00  0.00     0.142 A 
ATOM     15  O   UNL d   1     -46.031  13.088  23.562  0.00  0.00    -0.300 OA
ATOM     16  C   UNL d   1     -46.239  13.736  23.091  0.00  0.00     0.142 A 
ATOM     17  C   UNL d   1     -46.965  13.747  22.698  0.00  0.00     0.108 A 
ENDBRANCH  10  12
ENDBRANCH   1  10
TORSDOF 2
ENDMDL
