MODEL 1
REMARK VINA RESULT:      -2.9      0.000      0.000
REMARK  4 active torsions:
REMARK  status: ('A' for Active; 'I' for Inactive)
REMARK    1  A    between atoms: C_23  and  N_1 
REMARK       I    between atoms: N_7  and  C_10 
REMARK    2  A    between atoms: C_10  and  C_25 
REMARK    3  A    between atoms: C_26  and  C_23 
REMARK    4  A    between atoms: C_25  and  C_26 
ROOT
ATOM      1  N   UNL d   1     -41.654-122.523 -52.493  0.00  0.00    -0.249 N 
ATOM      2  C   UNL d   1     -41.951-121.964 -53.020  0.00  0.00     0.268 A 
ATOM      3  C   UNL d   1     -41.420-123.255 -52.767  0.00  0.00     0.208 A 
ATOM      4  C   UNL d   1     -42.013-122.141 -53.824  0.00  0.00     0.076 A 
ATOM      5  C   UNL d   1     -41.778-122.872 -54.097  0.00  0.00     0.090 A 
ATOM      6  N   UNL d   1     -41.488-123.412 -53.561  0.00  0.00    -0.218 NA
ATOM      7  C   UNL d   1     -42.311-121.580 -54.355  0.00  0.00     0.033 A 
ATOM      8  C   UNL d   1     -41.848-123.027 -54.898  0.00  0.00     0.046 A 
ATOM      9  C   UNL d   1     -42.376-121.753 -55.171  0.00  0.00     0.119 A 
ATOM     10  C   UNL d   1     -42.138-122.488 -55.432  0.00  0.00     0.121 A 
ATOM     11  S   UNL d   1     -41.124-123.804 -52.221  0.00  0.00    -0.038 SA
ATOM     12  O   UNL d   1     -42.183-121.240 -52.749  0.00  0.00    -0.267 OA
ATOM     13  O   UNL d   1     -42.642-121.328 -55.822  0.00  0.00    -0.300 OA
ATOM     14  O   UNL d   1     -42.269-122.490 -56.253  0.00  0.00    -0.299 OA
ATOM     15  C   UNL d   1     -42.578-121.780 -56.499  0.00  0.00     0.304 A 
ENDROOT
BRANCH   1  16
ATOM     16  C   UNL d   1     -41.590-122.350 -51.677  0.00  0.00     0.085 C 
BRANCH  16  17
ATOM     17  C   UNL d   1     -42.257-122.195 -51.251  0.00  0.00     0.024 C 
BRANCH  17  18
ATOM     18  C   UNL d   1     -42.203-122.132 -50.442  0.00  0.00     0.063 C 
BRANCH  18  19
ATOM     19  C   UNL d   1     -42.863-122.233 -49.989  0.00  0.00     0.265 C 
ATOM     20  N   UNL d   1     -42.789-122.570 -49.240  0.00  0.00    -0.272 N 
ATOM     21  C   UNL d   1     -42.036-122.799 -48.968  0.00  0.00     0.083 A 
ATOM     22  C   UNL d   1     -43.455-122.679 -48.768  0.00  0.00     0.083 A 
ATOM     23  C   UNL d   1     -41.956-123.138 -48.217  0.00  0.00     0.018 A 
ATOM     24  C   UNL d   1     -41.213-123.364 -47.947  0.00  0.00     0.002 A 
ATOM     25  C   UNL d   1     -42.628-123.250 -47.734  0.00  0.00     0.003 A 
ATOM     26  C   UNL d   1     -41.134-123.703 -47.196  0.00  0.00     0.000 A 
ATOM     27  C   UNL d   1     -41.802-123.815 -46.716  0.00  0.00     0.000 A 
ATOM     28  C   UNL d   1     -42.548-123.587 -46.989  0.00  0.00     0.000 A 
ATOM     29  C   UNL d   1     -43.378-123.019 -48.014  0.00  0.00     0.019 A 
ATOM     30  O   UNL d   1     -43.600-121.991 -50.298  0.00  0.00    -0.267 OA
ENDBRANCH  18  19
ENDBRANCH  17  18
ENDBRANCH  16  17
ENDBRANCH   1  16
TORSDOF 4
ENDMDL
