MODEL 1
REMARK VINA RESULT:      -4.1      0.000      0.000
REMARK  5 active torsions:
REMARK  status: ('A' for Active; 'I' for Inactive)
REMARK    1  A    between atoms: C_11  and  C_1 
REMARK    2  A    between atoms: C_14  and  N_4 
REMARK    3  A    between atoms: C_5  and  S_12 
REMARK    4  A    between atoms: C_16  and  C_11 
REMARK    5  A    between atoms: S_12  and  C_16 
ROOT
ATOM      1  C   UNL d   1      58.023   0.358  30.977  0.00  0.00     0.057 A 
ATOM      2  C   UNL d   1      57.265   0.076  31.177  0.00  0.00     0.067 A 
ATOM      3  N   UNL d   1      57.171   0.158  31.983  0.00  0.00    -0.306 N 
ATOM      4  C   UNL d   1      57.867   0.491  32.302  0.00  0.00     0.064 A 
ATOM      5  C   UNL d   1      58.389   0.609  31.664  0.00  0.00     0.022 A 
ATOM      6  C   UNL d   1      56.683  -0.243  30.636  0.00  0.00     0.019 C 
ATOM      7  C   UNL d   1      58.013   0.669  33.103  0.00  0.00     0.019 C 
ENDROOT
BRANCH   1   8
ATOM      8  C   UNL d   1      58.261   0.339  30.191  0.00  0.00     0.204 C 
ATOM      9  O   UNL d   1      57.780   0.682  29.627  0.00  0.00    -0.286 OA
BRANCH   8  10
ATOM     10  C   UNL d   1      58.975  -0.022  29.974  0.00  0.00     0.080 C 
BRANCH  10  11
ATOM     11  S   UNL d   1      59.030  -0.450  29.277  0.00  0.00    -0.044 SA
BRANCH  11  12
ATOM     12  C   UNL d   1      59.720  -0.871  29.095  0.00  0.00     0.201 A 
ATOM     13  N   UNL d   1      59.807  -1.675  28.986  0.00  0.00    -0.268 N 
ATOM     14  C   UNL d   1      60.606  -1.830  28.812  0.00  0.00     0.171 A 
ATOM     15  C   UNL d   1      59.259  -2.312  29.021  0.00  0.00     0.084 A 
ATOM     16  C   UNL d   1      60.855  -2.616  28.674  0.00  0.00     0.039 A 
ATOM     17  N   UNL d   1      60.996  -1.114  28.817  0.00  0.00    -0.128 NA
ATOM     18  C   UNL d   1      60.319  -3.240  28.708  0.00  0.00     0.005 A 
ATOM     19  C   UNL d   1      59.531  -3.080  28.880  0.00  0.00     0.019 A 
ATOM     20  N   UNL d   1      60.461  -0.537  28.988  0.00  0.00    -0.121 NA
ENDBRANCH  11  12
ENDBRANCH  10  11
ENDBRANCH   8  10
ENDBRANCH   1   8
BRANCH   3  21
ATOM     21  C   UNL d   1      56.534  -0.029  32.488  0.00  0.00     0.064 A 
ATOM     22  C   UNL d   1      56.369  -0.816  32.672  0.00  0.00     0.018 A 
ATOM     23  C   UNL d   1      55.741  -1.000  33.170  0.00  0.00     0.002 A 
ATOM     24  C   UNL d   1      55.280  -0.405  33.484  0.00  0.00     0.000 A 
ATOM     25  C   UNL d   1      55.444   0.391  33.301  0.00  0.00     0.002 A 
ATOM     26  C   UNL d   1      56.070   0.567  32.805  0.00  0.00     0.018 A 
ENDBRANCH   3  21
TORSDOF 5
ENDMDL
MODEL 2
REMARK VINA RESULT:      -4.0      1.270      5.289
REMARK  5 active torsions:
REMARK  status: ('A' for Active; 'I' for Inactive)
REMARK    1  A    between atoms: C_11  and  C_1 
REMARK    2  A    between atoms: C_14  and  N_4 
REMARK    3  A    between atoms: C_5  and  S_12 
REMARK    4  A    between atoms: C_16  and  C_11 
REMARK    5  A    between atoms: S_12  and  C_16 
ROOT
ATOM      1  C   UNL d   1      58.302   0.133  30.324  0.00  0.00     0.057 A 
ATOM      2  C   UNL d   1      58.548  -0.627  30.086  0.00  0.00     0.067 A 
ATOM      3  N   UNL d   1      59.260  -0.550  29.696  0.00  0.00    -0.306 N 
ATOM      4  C   UNL d   1      59.474   0.258  29.683  0.00  0.00     0.064 A 
ATOM      5  C   UNL d   1      58.868   0.670  30.078  0.00  0.00     0.022 A 
ATOM      6  C   UNL d   1      58.130  -1.361  30.223  0.00  0.00     0.019 C 
ATOM      7  C   UNL d   1      60.159   0.586  29.342  0.00  0.00     0.019 C 
ENDROOT
BRANCH   1   8
ATOM      8  C   UNL d   1      57.594   0.214  30.733  0.00  0.00     0.204 C 
ATOM      9  O   UNL d   1      56.899   0.264  30.306  0.00  0.00    -0.286 OA
BRANCH   8  10
ATOM     10  C   UNL d   1      57.584   0.243  31.561  0.00  0.00     0.080 C 
BRANCH  10  11
ATOM     11  S   UNL d   1      56.950   0.578  31.957  0.00  0.00    -0.044 SA
BRANCH  11  12
ATOM     12  C   UNL d   1      56.939   0.607  32.785  0.00  0.00     0.201 A 
ATOM     13  N   UNL d   1      56.291   0.628  33.281  0.00  0.00    -0.268 N 
ATOM     14  C   UNL d   1      56.565   0.654  34.067  0.00  0.00     0.171 A 
ATOM     15  C   UNL d   1      55.464   0.626  33.130  0.00  0.00     0.084 A 
ATOM     16  C   UNL d   1      56.015   0.679  34.697  0.00  0.00     0.039 A 
ATOM     17  N   UNL d   1      57.379   0.649  34.038  0.00  0.00    -0.128 NA
ATOM     18  C   UNL d   1      55.205   0.677  34.549  0.00  0.00     0.005 A 
ATOM     19  C   UNL d   1      54.942   0.651  33.770  0.00  0.00     0.019 A 
ATOM     20  N   UNL d   1      57.604   0.621  33.265  0.00  0.00    -0.121 NA
ENDBRANCH  11  12
ENDBRANCH  10  11
ENDBRANCH   8  10
ENDBRANCH   1   8
BRANCH   3  21
ATOM     21  C   UNL d   1      59.761  -1.114  29.340  0.00  0.00     0.064 A 
ATOM     22  C   UNL d   1      60.568  -1.118  29.514  0.00  0.00     0.018 A 
ATOM     23  C   UNL d   1      61.061  -1.674  29.163  0.00  0.00     0.002 A 
ATOM     24  C   UNL d   1      60.755  -2.223  28.643  0.00  0.00     0.000 A 
ATOM     25  C   UNL d   1      59.942  -2.222  28.466  0.00  0.00     0.002 A 
ATOM     26  C   UNL d   1      59.456  -1.666  28.818  0.00  0.00     0.018 A 
ENDBRANCH   3  21
TORSDOF 5
ENDMDL
MODEL 3
REMARK VINA RESULT:      -2.7      0.940      1.347
REMARK  5 active torsions:
REMARK  status: ('A' for Active; 'I' for Inactive)
REMARK    1  A    between atoms: C_11  and  C_1 
REMARK    2  A    between atoms: C_14  and  N_4 
REMARK    3  A    between atoms: C_5  and  S_12 
REMARK    4  A    between atoms: C_16  and  C_11 
REMARK    5  A    between atoms: S_12  and  C_16 
ROOT
ATOM      1  C   UNL d   1      57.434   0.554  31.939  0.00  0.00     0.057 A 
ATOM      2  C   UNL d   1      56.659   0.514  32.244  0.00  0.00     0.067 A 
ATOM      3  N   UNL d   1      56.707   0.553  33.057  0.00  0.00    -0.306 N 
ATOM      4  C   UNL d   1      57.511   0.618  33.277  0.00  0.00     0.064 A 
ATOM      5  C   UNL d   1      57.951   0.617  32.570  0.00  0.00     0.022 A 
ATOM      6  C   UNL d   1      55.938   0.445  31.788  0.00  0.00     0.019 C 
ATOM      7  C   UNL d   1      57.813   0.672  34.051  0.00  0.00     0.019 C 
ENDROOT
BRANCH   1   8
ATOM      8  C   UNL d   1      57.544   0.526  31.126  0.00  0.00     0.204 C 
ATOM      9  O   UNL d   1      56.907   0.680  30.638  0.00  0.00    -0.286 OA
BRANCH   8  10
ATOM     10  C   UNL d   1      58.287   0.344  30.805  0.00  0.00     0.080 C 
BRANCH  10  11
ATOM     11  S   UNL d   1      58.357   0.117  30.022  0.00  0.00    -0.044 SA
BRANCH  11  12
ATOM     12  C   UNL d   1      59.096  -0.082  29.705  0.00  0.00     0.201 A 
ATOM     13  N   UNL d   1      59.315  -0.772  29.327  0.00  0.00    -0.268 N 
ATOM     14  C   UNL d   1      60.115  -0.709  29.110  0.00  0.00     0.171 A 
ATOM     15  C   UNL d   1      58.889  -1.473  29.141  0.00  0.00     0.084 A 
ATOM     16  C   UNL d   1      60.489  -1.341  28.710  0.00  0.00     0.039 A 
ATOM     17  N   UNL d   1      60.375   0.022  29.361  0.00  0.00    -0.128 NA
ATOM     18  C   UNL d   1      60.072  -2.028  28.528  0.00  0.00     0.005 A 
ATOM     19  C   UNL d   1      59.280  -2.084  28.745  0.00  0.00     0.019 A 
ATOM     20  N   UNL d   1      59.760   0.399  29.719  0.00  0.00    -0.121 NA
ENDBRANCH  11  12
ENDBRANCH  10  11
ENDBRANCH   8  10
ENDBRANCH   1   8
BRANCH   3  21
ATOM     21  C   UNL d   1      56.119   0.539  33.648  0.00  0.00     0.064 A 
ATOM     22  C   UNL d   1      56.321   0.682  34.436  0.00  0.00     0.018 A 
ATOM     23  C   UNL d   1      55.740   0.668  35.018  0.00  0.00     0.002 A 
ATOM     24  C   UNL d   1      54.965   0.513  34.820  0.00  0.00     0.000 A 
ATOM     25  C   UNL d   1      54.758   0.368  34.027  0.00  0.00     0.002 A 
ATOM     26  C   UNL d   1      55.340   0.383  33.452  0.00  0.00     0.018 A 
ENDBRANCH   3  21
TORSDOF 5
ENDMDL
MODEL 4
REMARK VINA RESULT:      -1.1      9.036     10.069
REMARK  5 active torsions:
REMARK  status: ('A' for Active; 'I' for Inactive)
REMARK    1  A    between atoms: C_11  and  C_1 
REMARK    2  A    between atoms: C_14  and  N_4 
REMARK    3  A    between atoms: C_5  and  S_12 
REMARK    4  A    between atoms: C_16  and  C_11 
REMARK    5  A    between atoms: S_12  and  C_16 
ROOT
ATOM      1  C   UNL d   1      58.570  -9.754  31.938  0.00  0.00     0.057 A 
ATOM      2  C   UNL d   1      57.902  -9.770  31.440  0.00  0.00     0.067 A 
ATOM      3  N   UNL d   1      58.163  -9.734  30.668  0.00  0.00    -0.306 N 
ATOM      4  C   UNL d   1      58.997  -9.693  30.668  0.00  0.00     0.064 A 
ATOM      5  C   UNL d   1      59.236  -9.706  31.466  0.00  0.00     0.022 A 
ATOM      6  C   UNL d   1      57.084  -9.818  31.690  0.00  0.00     0.019 C 
ATOM      7  C   UNL d   1      59.494  -9.648  30.000  0.00  0.00     0.019 C 
ENDROOT
BRANCH   1   8
ATOM      8  C   UNL d   1      58.462  -9.784  32.752  0.00  0.00     0.204 C 
ATOM      9  O   UNL d   1      57.700  -9.795  33.046  0.00  0.00    -0.286 OA
BRANCH   8  10
ATOM     10  C   UNL d   1      59.112  -9.804  33.265  0.00  0.00     0.080 C 
BRANCH  10  11
ATOM     11  S   UNL d   1      59.084  -9.418  33.987  0.00  0.00    -0.044 SA
BRANCH  11  12
ATOM     12  C   UNL d   1      59.768  -9.333  34.446  0.00  0.00     0.201 A 
ATOM     13  N   UNL d   1      59.908  -8.805  35.052  0.00  0.00    -0.268 N 
ATOM     14  C   UNL d   1      60.677  -8.936  35.341  0.00  0.00     0.171 A 
ATOM     15  C   UNL d   1      59.433  -8.202  35.396  0.00  0.00     0.084 A 
ATOM     16  C   UNL d   1      60.969  -8.468  35.970  0.00  0.00     0.039 A 
ATOM     17  N   UNL d   1      60.997  -9.545  34.905  0.00  0.00    -0.128 NA
ATOM     18  C   UNL d   1      60.504  -7.878  36.307  0.00  0.00     0.005 A 
ATOM     19  C   UNL d   1      59.745  -7.753  36.016  0.00  0.00     0.019 A 
ATOM     20  N   UNL d   1      60.449  -9.784  34.366  0.00  0.00    -0.121 NA
ENDBRANCH  11  12
ENDBRANCH  10  11
ENDBRANCH   8  10
ENDBRANCH   1   8
BRANCH   3  21
ATOM     21  C   UNL d   1      57.750  -9.731  29.943  0.00  0.00     0.064 A 
ATOM     22  C   UNL d   1      56.929  -9.641  29.935  0.00  0.00     0.018 A 
ATOM     23  C   UNL d   1      56.523  -9.639  29.221  0.00  0.00     0.002 A 
ATOM     24  C   UNL d   1      56.928  -9.725  28.518  0.00  0.00     0.000 A 
ATOM     25  C   UNL d   1      57.756  -9.816  28.523  0.00  0.00     0.002 A 
ATOM     26  C   UNL d   1      58.154  -9.818  29.237  0.00  0.00     0.018 A 
ENDBRANCH   3  21
TORSDOF 5
ENDMDL
