MODEL 1
REMARK VINA RESULT:      15.8      0.000      0.000
REMARK  3 active torsions:
REMARK  status: ('A' for Active; 'I' for Inactive)
REMARK       I    between atoms: C_3  and  N_1 
REMARK    1  A    between atoms: C_9  and  C_3 
REMARK    2  A    between atoms: C_15  and  C_4 
REMARK    3  A    between atoms: N_5  and  C_8 
ROOT
ATOM      1  N   UNL d   1     -41.616-121.823 -51.751  0.00  0.00    -0.269 N 
ATOM      2  C   UNL d   1     -41.488-120.925 -52.749  0.00  0.00     0.036 A 
ATOM      3  C   UNL d   1     -41.789-122.620 -51.617  0.00  0.00     0.265 C 
ATOM      4  C   UNL d   1     -41.618-121.570 -52.527  0.00  0.00     0.069 A 
ATOM      5  C   UNL d   1     -41.293-120.199 -52.377  0.00  0.00     0.086 A 
ATOM      6  N   UNL d   1     -41.196-120.006 -51.687  0.00  0.00    -0.207 NA
ATOM      7  C   UNL d   1     -41.259-120.500 -51.039  0.00  0.00     0.297 A 
ATOM      8  C   UNL d   1     -41.453-121.339 -51.065  0.00  0.00     0.146 A 
ATOM      9  C   UNL d   1     -41.557-120.947 -53.582  0.00  0.00     0.033 A 
ATOM     10  O   UNL d   1     -41.955-123.130 -52.256  0.00  0.00    -0.267 OA
ATOM     11  O   UNL d   1     -41.124-120.163 -50.291  0.00  0.00    -0.264 OA
ATOM     12  C   UNL d   1     -41.171-119.513 -52.834  0.00  0.00     0.022 A 
ATOM     13  C   UNL d   1     -41.436-120.263 -54.043  0.00  0.00     0.140 A 
ATOM     14  C   UNL d   1     -41.241-119.543 -53.661  0.00  0.00     0.031 A 
ATOM     15  F   UNL d   1     -41.506-120.299 -54.856  0.00  0.00    -0.204 F 
ENDROOT
BRANCH   3  16
ATOM     16  C   UNL d   1     -41.798-122.918 -50.850  0.00  0.00     0.058 A 
ATOM     17  C   UNL d   1     -42.482-122.871 -50.391  0.00  0.00     0.028 A 
ATOM     18  C   UNL d   1     -42.478-123.169 -49.636  0.00  0.00     0.127 A 
ATOM     19  C   UNL d   1     -41.800-123.518 -49.323  0.00  0.00     0.022 A 
ATOM     20  C   UNL d   1     -41.124-123.567 -49.772  0.00  0.00     0.002 A 
ATOM     21  C   UNL d   1     -41.811-123.817 -48.553  0.00  0.00     0.002 C 
ATOM     22  C   UNL d   1     -41.123-123.266 -50.539  0.00  0.00     0.005 A 
BRANCH  18  23
ATOM     23  N   UNL d   1     -43.161-123.121 -49.176  0.00  0.00    -0.114 N 
ATOM     24  O   UNL d   1     -43.836-123.505 -49.418  0.00  0.00    -0.532 OA
ATOM     25  O   UNL d   1     -43.154-122.687 -48.480  0.00  0.00    -0.532 OA
ENDBRANCH  18  23
ENDBRANCH   3  16
BRANCH   4  26
ATOM     26  C   UNL d   1     -41.791-122.130 -53.098  0.00  0.00     0.016 A 
ATOM     27  C   UNL d   1     -42.534-122.132 -53.465  0.00  0.00     0.004 A 
ATOM     28  C   UNL d   1     -42.698-122.701 -54.039  0.00  0.00     0.030 A 
ATOM     29  C   UNL d   1     -42.146-123.252 -54.247  0.00  0.00     0.140 A 
ATOM     30  C   UNL d   1     -41.407-123.246 -53.878  0.00  0.00     0.030 A 
ATOM     31  F   UNL d   1     -42.314-123.817 -54.819  0.00  0.00    -0.204 F 
ATOM     32  C   UNL d   1     -41.227-122.690 -53.308  0.00  0.00     0.004 A 
ENDBRANCH   4  26
TORSDOF 3
ENDMDL
