MODEL 1
REMARK VINA RESULT:      21.2      0.000      0.000
REMARK  5 active torsions:
REMARK  status: ('A' for Active; 'I' for Inactive)
REMARK    1  A    between atoms: C_3  and  C_1 
REMARK    2  A    between atoms: C_2  and  C_3 
REMARK    3  A    between atoms: C_4  and  C_2 
REMARK    4  A    between atoms: C_7  and  C_4 
REMARK    5  A    between atoms: O_14  and  C_8 
ROOT
ATOM      1  C   UNL d   1     -56.983 -98.756 -44.487  0.00  0.00     0.042 C 
ENDROOT
BRANCH   1   2
ATOM      2  C   UNL d   1     -57.732 -98.759 -44.071  0.00  0.00     0.199 C 
ATOM      3  O   UNL d   1     -57.734 -98.761 -43.240  0.00  0.00    -0.286 OA
BRANCH   2   4
ATOM      4  C   UNL d   1     -58.438 -98.760 -44.514  0.00  0.00     0.078 A 
ATOM      5  C   UNL d   1     -59.161 -98.765 -44.127  0.00  0.00     0.199 A 
ATOM      6  O   UNL d   1     -59.184 -98.769 -43.290  0.00  0.00    -0.286 OA
ATOM      7  C   UNL d   1     -59.854 -98.766 -44.548  0.00  0.00     0.042 A 
ATOM      8  C   UNL d   1     -59.820 -98.762 -45.396  0.00  0.00     0.003 A 
ATOM      9  C   UNL d   1     -59.119 -98.758 -45.765  0.00  0.00     0.000 A 
ATOM     10  C   UNL d   1     -58.418 -98.757 -45.337  0.00  0.00     0.006 A 
ENDBRANCH   2   4
ENDBRANCH   1   2
BRANCH   1  11
ATOM     11  C   UNL d   1     -56.277 -98.949 -44.064  0.00  0.00     0.003 C 
BRANCH  11  12
ATOM     12  C   UNL d   1     -55.913 -99.642 -44.268  0.00  0.00     0.000 A 
ATOM     13  C   UNL d   1     -56.295-100.354 -44.238  0.00  0.00     0.002 A 
ATOM     14  C   UNL d   1     -55.896-101.043 -44.452  0.00  0.00     0.024 A 
ATOM     15  C   UNL d   1     -55.110-101.028 -44.699  0.00  0.00     0.094 A 
ATOM     16  C   UNL d   1     -54.721-100.299 -44.729  0.00  0.00     0.024 A 
ATOM     17  C   UNL d   1     -55.114 -99.601 -44.516  0.00  0.00     0.002 A 
BRANCH  15  18
ATOM     18  O   UNL d   1     -54.715-101.729 -44.914  0.00  0.00    -0.328 OA
ATOM     19  C   UNL d   1     -55.068-102.469 -44.810  0.00  0.00     0.181 C 
ENDBRANCH  15  18
ENDBRANCH  11  12
ENDBRANCH   1  11
TORSDOF 5
ENDMDL
