MODEL 1
REMARK VINA RESULT:      19.7      0.000      0.000
REMARK  4 active torsions:
REMARK  status: ('A' for Active; 'I' for Inactive)
REMARK    1  A    between atoms: S_10  and  C_6 
REMARK    2  A    between atoms: C_16  and  S_10 
REMARK    3  A    between atoms: C_11  and  C_16 
REMARK       I    between atoms: N_13  and  C_11 
REMARK    4  A    between atoms: C_14  and  N_13 
ROOT
ATOM      1  C   UNL d   1      46.403 -19.318  42.812  0.00  0.00     0.155 A 
ATOM      2  C   UNL d   1      46.483 -18.556  42.499  0.00  0.00     0.107 A 
ATOM      3  N   UNL d   1      46.361 -18.769  44.132  0.00  0.00    -0.250 N 
ATOM      4  C   UNL d   1      46.342 -19.425  43.625  0.00  0.00     0.285 A 
ATOM      5  N   UNL d   1      46.503 -17.899  43.007  0.00  0.00    -0.220 NA
ATOM      6  C   UNL d   1      46.441 -18.015  43.820  0.00  0.00     0.182 A 
ATOM      7  N   UNL d   1      46.400 -19.855  42.186  0.00  0.00    -0.239 NA
ATOM      8  C   UNL d   1      46.532 -18.615  41.679  0.00  0.00     0.037 A 
ATOM      9  C   UNL d   1      46.480 -19.423  41.481  0.00  0.00     0.083 A 
ATOM     10  O   UNL d   1      46.260 -20.188  43.947  0.00  0.00    -0.265 OA
ATOM     11  C   UNL d   1      46.300 -18.875  44.954  0.00  0.00     0.104 C 
ATOM     12  C   UNL d   1      46.615 -18.051  41.085  0.00  0.00     0.003 A 
ATOM     13  C   UNL d   1      46.512 -19.660  40.686  0.00  0.00     0.019 A 
ATOM     14  C   UNL d   1      46.647 -18.287  40.291  0.00  0.00     0.000 A 
ATOM     15  C   UNL d   1      46.596 -19.086  40.095  0.00  0.00     0.002 A 
ENDROOT
BRANCH   6  16
ATOM     16  S   UNL d   1      46.461 -17.362  44.328  0.00  0.00    -0.044 SA
BRANCH  16  17
ATOM     17  C   UNL d   1      45.804 -16.866  44.395  0.00  0.00     0.101 C 
BRANCH  17  18
ATOM     18  C   UNL d   1      45.899 -16.048  44.359  0.00  0.00     0.286 C 
ATOM     19  N   UNL d   1      45.252 -15.562  44.497  0.00  0.00    -0.208 NA
ATOM     20  O   UNL d   1      46.628 -15.714  44.187  0.00  0.00    -0.265 OA
BRANCH  19  21
ATOM     21  C   UNL d   1      45.342 -14.737  44.462  0.00  0.00     0.085 A 
ATOM     22  C   UNL d   1      44.863 -14.301  43.967  0.00  0.00     0.019 A 
ATOM     23  C   UNL d   1      44.952 -13.476  43.932  0.00  0.00     0.002 A 
ATOM     24  C   UNL d   1      44.465 -13.015  43.426  0.00  0.00     0.000 C 
ATOM     25  C   UNL d   1      45.520 -13.104  44.394  0.00  0.00     0.000 A 
ATOM     26  C   UNL d   1      46.006 -13.551  44.896  0.00  0.00     0.002 A 
ATOM     27  C   UNL d   1      45.911 -14.366  44.925  0.00  0.00     0.019 A 
ENDBRANCH  19  21
ENDBRANCH  17  18
ENDBRANCH  16  17
ENDBRANCH   6  16
TORSDOF 4
ENDMDL
