MODEL 1
REMARK VINA RESULT:      -3.2      0.000      0.000
REMARK  3 active torsions:
REMARK  status: ('A' for Active; 'I' for Inactive)
REMARK    1  A    between atoms: N_2  and  C_1 
REMARK       I    between atoms: C_4  and  N_2 
REMARK    2  A    between atoms: C_8  and  C_4 
REMARK    3  A    between atoms: C_10  and  C_5 
ROOT
ATOM      1  C   UNL d   1      32.629  18.786 -23.451  0.00  0.00     0.197 A 
ATOM      2  N   UNL d   1      32.009  18.266 -23.374  0.00  0.00    -0.221 NA
ATOM      3  C   UNL d   1      32.250  17.571 -23.817  0.00  0.00     0.090 A 
ATOM      4  S   UNL d   1      33.241  18.465 -23.911  0.00  0.00    -0.046 SA
ATOM      5  C   UNL d   1      33.012  17.722 -24.137  0.00  0.00     0.058 A 
ENDROOT
BRANCH   1   6
ATOM      6  N   UNL d   1      32.649  19.560 -23.104  0.00  0.00    -0.183 NA
ATOM      7  C   UNL d   1      32.961  19.641 -22.324  0.00  0.00     0.281 C 
ATOM      8  O   UNL d   1      33.241  18.978 -21.911  0.00  0.00    -0.265 OA
BRANCH   7   9
ATOM      9  C   UNL d   1      32.995  20.378 -21.956  0.00  0.00     0.058 A 
ATOM     10  C   UNL d   1      32.813  20.423 -21.161  0.00  0.00     0.006 A 
ATOM     11  C   UNL d   1      32.846  21.168 -20.778  0.00  0.00     0.012 A 
ATOM     12  C   UNL d   1      33.055  21.850 -21.183  0.00  0.00     0.058 A 
ATOM     13  C   UNL d   1      33.241  21.792 -22.002  0.00  0.00     0.012 A 
ATOM     14 CL   UNL d   1      33.091  22.533 -20.856  0.00  0.00    -0.082 Cl
ATOM     15  C   UNL d   1      33.208  21.051 -22.383  0.00  0.00     0.006 A 
ENDBRANCH   7   9
ENDBRANCH   1   6
BRANCH   3  16
ATOM     16  C   UNL d   1      31.828  16.877 -23.922  0.00  0.00     0.018 A 
ATOM     17  C   UNL d   1      31.147  16.857 -24.387  0.00  0.00     0.002 A 
ATOM     18  C   UNL d   1      30.717  16.148 -24.494  0.00  0.00     0.000 A 
ATOM     19  C   UNL d   1      30.990  15.456 -24.119  0.00  0.00     0.000 A 
ATOM     20  C   UNL d   1      31.668  15.480 -23.658  0.00  0.00     0.000 A 
ATOM     21  C   UNL d   1      32.087  16.197 -23.561  0.00  0.00     0.002 A 
ENDBRANCH   3  16
TORSDOF 3
ENDMDL
MODEL 2
REMARK VINA RESULT:      -2.6      2.102      5.159
REMARK  3 active torsions:
REMARK  status: ('A' for Active; 'I' for Inactive)
REMARK    1  A    between atoms: N_2  and  C_1 
REMARK       I    between atoms: C_4  and  N_2 
REMARK    2  A    between atoms: C_8  and  C_4 
REMARK    3  A    between atoms: C_10  and  C_5 
ROOT
ATOM      1  C   UNL d   1      33.121  20.181 -22.074  0.00  0.00     0.197 A 
ATOM      2  N   UNL d   1      32.873  20.938 -22.235  0.00  0.00    -0.221 NA
ATOM      3  C   UNL d   1      32.837  21.324 -21.468  0.00  0.00     0.090 A 
ATOM      4  S   UNL d   1      33.241  20.065 -21.261  0.00  0.00    -0.046 SA
ATOM      5  C   UNL d   1      33.068  20.763 -20.888  0.00  0.00     0.058 A 
ENDROOT
BRANCH   1   6
ATOM      6  N   UNL d   1      33.241  19.583 -22.664  0.00  0.00    -0.183 NA
ATOM      7  C   UNL d   1      32.589  19.088 -22.870  0.00  0.00     0.281 C 
ATOM      8  O   UNL d   1      31.851  19.187 -22.504  0.00  0.00    -0.265 OA
BRANCH   7   9
ATOM      9  C   UNL d   1      32.669  18.497 -23.440  0.00  0.00     0.058 A 
ATOM     10  C   UNL d   1      32.715  17.721 -23.189  0.00  0.00     0.006 A 
ATOM     11  C   UNL d   1      32.797  17.113 -23.760  0.00  0.00     0.012 A 
ATOM     12  C   UNL d   1      32.831  17.281 -24.563  0.00  0.00     0.058 A 
ATOM     13  C   UNL d   1      32.783  18.083 -24.810  0.00  0.00     0.012 A 
ATOM     14 CL   UNL d   1      32.905  16.746 -25.096  0.00  0.00    -0.082 Cl
ATOM     15  C   UNL d   1      32.702  18.688 -24.241  0.00  0.00     0.006 A 
ENDBRANCH   7   9
ENDBRANCH   1   6
BRANCH   3  16
ATOM     16  C   UNL d   1      32.618  22.097 -21.310  0.00  0.00     0.018 A 
ATOM     17  C   UNL d   1      32.744  22.698 -21.861  0.00  0.00     0.002 A 
ATOM     18  C   UNL d   1      32.521  23.487 -21.699  0.00  0.00     0.000 A 
ATOM     19  C   UNL d   1      32.165  23.659 -20.965  0.00  0.00     0.000 A 
ATOM     20  C   UNL d   1      32.042  23.058 -20.421  0.00  0.00     0.000 A 
ATOM     21  C   UNL d   1      32.270  22.273 -20.597  0.00  0.00     0.002 A 
ENDBRANCH   3  16
TORSDOF 3
ENDMDL
MODEL 3
REMARK VINA RESULT:      -0.8      2.411      5.050
REMARK  3 active torsions:
REMARK  status: ('A' for Active; 'I' for Inactive)
REMARK    1  A    between atoms: N_2  and  C_1 
REMARK       I    between atoms: C_4  and  N_2 
REMARK    2  A    between atoms: C_8  and  C_4 
REMARK    3  A    between atoms: C_10  and  C_5 
ROOT
ATOM      1  C   UNL d   1      32.032  17.717 -23.516  0.00  0.00     0.197 A 
ATOM      2  N   UNL d   1      31.894  18.440 -23.171  0.00  0.00    -0.221 NA
ATOM      3  C   UNL d   1      32.676  18.765 -23.024  0.00  0.00     0.090 A 
ATOM      4  S   UNL d   1      32.844  17.567 -23.594  0.00  0.00    -0.046 SA
ATOM      5  C   UNL d   1      33.241  18.206 -23.294  0.00  0.00     0.058 A 
ENDROOT
BRANCH   1   6
ATOM      6  N   UNL d   1      31.421  17.183 -23.764  0.00  0.00    -0.183 NA
ATOM      7  C   UNL d   1      30.683  17.508 -24.013  0.00  0.00     0.281 C 
ATOM      8  O   UNL d   1      30.562  18.328 -24.014  0.00  0.00    -0.265 OA
BRANCH   7   9
ATOM      9  C   UNL d   1      30.067  17.018 -24.261  0.00  0.00     0.058 A 
ATOM     10  C   UNL d   1      29.516  17.322 -24.781  0.00  0.00     0.006 A 
ATOM     11  C   UNL d   1      28.887  16.832 -25.039  0.00  0.00     0.012 A 
ATOM     12  C   UNL d   1      28.812  16.057 -24.779  0.00  0.00     0.058 A 
ATOM     13  C   UNL d   1      29.385  15.754 -24.243  0.00  0.00     0.012 A 
ATOM     14 CL   UNL d   1      28.250  15.598 -25.000  0.00  0.00    -0.082 Cl
ATOM     15  C   UNL d   1      30.012  16.242 -23.987  0.00  0.00     0.006 A 
ENDBRANCH   7   9
ENDBRANCH   1   6
BRANCH   3  16
ATOM     16  C   UNL d   1      32.859  19.487 -22.683  0.00  0.00     0.018 A 
ATOM     17  C   UNL d   1      32.984  20.158 -23.145  0.00  0.00     0.002 A 
ATOM     18  C   UNL d   1      33.171  20.895 -22.796  0.00  0.00     0.000 A 
ATOM     19  C   UNL d   1      33.228  20.940 -21.966  0.00  0.00     0.000 A 
ATOM     20  C   UNL d   1      33.103  20.269 -21.510  0.00  0.00     0.000 A 
ATOM     21  C   UNL d   1      32.917  19.540 -21.874  0.00  0.00     0.002 A 
ENDBRANCH   3  16
TORSDOF 3
ENDMDL
