MODEL 1
REMARK VINA RESULT:      26.4      0.000      0.000
REMARK  2 active torsions:
REMARK  status: ('A' for Active; 'I' for Inactive)
REMARK    1  A    between atoms: C_9  and  C_1 
REMARK    2  A    between atoms: C_18  and  N_6 
ROOT
ATOM      1  C   UNL d   1      60.109  49.672  51.459  0.00  0.00     0.121 A 
ATOM      2  C   UNL d   1      58.727  49.683  51.078  0.00  0.00     0.057 A 
ATOM      3  C   UNL d   1      59.304  49.675  51.676  0.00  0.00     0.204 A 
ATOM      4  C   UNL d   1      58.939  49.688  50.274  0.00  0.00     0.069 A 
ATOM      5  C   UNL d   1      60.330  49.677  50.658  0.00  0.00     0.089 A 
ATOM      6  N   UNL d   1      59.743  49.685  50.068  0.00  0.00    -0.303 N 
ATOM      7  C   UNL d   1      58.362  49.696  49.697  0.00  0.00     0.044 A 
ATOM      8  C   UNL d   1      57.924  49.686  51.284  0.00  0.00     0.031 A 
ATOM      9  C   UNL d   1      57.567  49.699  49.904  0.00  0.00     0.121 A 
ATOM     10  C   UNL d   1      57.348  49.694  50.698  0.00  0.00     0.119 A 
ATOM     11  O   UNL d   1      56.886  49.707  49.449  0.00  0.00    -0.299 OA
ATOM     12  O   UNL d   1      56.532  49.699  50.732  0.00  0.00    -0.300 OA
ATOM     13  O   UNL d   1      59.085  49.670  52.470  0.00  0.00    -0.286 OA
ATOM     14  C   UNL d   1      56.243  49.707  49.967  0.00  0.00     0.304 A 
ENDROOT
BRANCH   1  15
ATOM     15  C   UNL d   1      60.689  49.663  52.046  0.00  0.00     0.215 C 
ATOM     16  O   UNL d   1      60.472  49.708  52.838  0.00  0.00    -0.644 OA
ATOM     17  O   UNL d   1      61.483  49.611  51.838  0.00  0.00    -0.644 OA
ENDBRANCH   1  15
BRANCH   6  18
ATOM     18  C   UNL d   1      59.962  49.690  49.275  0.00  0.00     0.080 C 
ATOM     19  C   UNL d   1      60.765  49.705  49.070  0.00  0.00     0.021 C 
ENDBRANCH   6  18
TORSDOF 2
ENDMDL
