MODEL 1
REMARK VINA RESULT:      -8.4      0.000      0.000
REMARK  4 active torsions:
REMARK  status: ('A' for Active; 'I' for Inactive)
REMARK    1  A    between atoms: S_10  and  C_3 
REMARK    2  A    between atoms: C_11  and  C_7 
REMARK    3  A    between atoms: C_13  and  S_10 
REMARK    4  A    between atoms: C_15  and  C_13 
ROOT
ATOM      1  N   UNL d   1     -49.037  12.347  23.374  0.00  0.00    -0.186 N 
ATOM      2  N   UNL d   1     -49.333  13.095  23.217  0.00  0.00    -0.162 NA
ATOM      3  C   UNL d   1     -48.264  12.048  23.376  0.00  0.00     0.217 A 
ATOM      4  C   UNL d   1     -49.545  11.726  23.573  0.00  0.00     0.187 A 
ATOM      5  N   UNL d   1     -48.305  11.253  23.575  0.00  0.00    -0.120 NA
ATOM      6  N   UNL d   1     -49.098  11.052  23.698  0.00  0.00    -0.127 NA
ATOM      7  C   UNL d   1     -50.151  13.227  23.260  0.00  0.00     0.102 A 
ATOM      8  C   UNL d   1     -50.364  11.862  23.615  0.00  0.00     0.042 A 
ATOM      9  C   UNL d   1     -50.663  12.607  23.459  0.00  0.00     0.024 A 
ENDROOT
BRANCH   3  10
ATOM     10  S   UNL d   1     -47.565  12.458  23.211  0.00  0.00    -0.046 SA
BRANCH  10  11
ATOM     11  C   UNL d   1     -46.842  12.083  23.264  0.00  0.00     0.038 C 
BRANCH  11  12
ATOM     12  C   UNL d   1     -46.186  12.400  22.892  0.00  0.00     0.007 A 
ATOM     13  C   UNL d   1     -46.227  13.129  22.499  0.00  0.00     0.003 A 
ATOM     14  C   UNL d   1     -45.554  13.444  22.124  0.00  0.00     0.030 A 
ATOM     15  C   UNL d   1     -44.850  13.027  22.146  0.00  0.00     0.140 A 
ATOM     16  C   UNL d   1     -44.789  12.303  22.531  0.00  0.00     0.030 A 
ATOM     17  F   UNL d   1     -44.184  13.343  21.772  0.00  0.00    -0.204 F 
ATOM     18  C   UNL d   1     -45.460  11.988  22.906  0.00  0.00     0.003 A 
ENDBRANCH  11  12
ENDBRANCH  10  11
ENDBRANCH   3  10
BRANCH   7  19
ATOM     19  C   UNL d   1     -50.455  13.980  23.103  0.00  0.00     0.022 A 
ATOM     20  C   UNL d   1     -50.737  14.157  22.357  0.00  0.00     0.022 A 
ATOM     21  C   UNL d   1     -51.043  14.901  22.184  0.00  0.00     0.099 A 
ATOM     22  N   UNL d   1     -51.059  15.482  22.799  0.00  0.00    -0.242 NA
ATOM     23  C   UNL d   1     -50.775  15.302  23.546  0.00  0.00     0.099 A 
ATOM     24  C   UNL d   1     -50.473  14.551  23.698  0.00  0.00     0.022 A 
ENDBRANCH   7  19
TORSDOF 4
ENDMDL
MODEL 2
REMARK VINA RESULT:      -7.4      1.888      2.691
REMARK  4 active torsions:
REMARK  status: ('A' for Active; 'I' for Inactive)
REMARK    1  A    between atoms: S_10  and  C_3 
REMARK    2  A    between atoms: C_11  and  C_7 
REMARK    3  A    between atoms: C_13  and  S_10 
REMARK    4  A    between atoms: C_15  and  C_13 
ROOT
ATOM      1  N   UNL d   1     -47.300  13.522  22.885  0.00  0.00    -0.186 N 
ATOM      2  N   UNL d   1     -47.991  13.084  22.928  0.00  0.00    -0.162 NA
ATOM      3  C   UNL d   1     -46.504  13.308  22.971  0.00  0.00     0.217 A 
ATOM      4  C   UNL d   1     -47.323  14.334  22.728  0.00  0.00     0.187 A 
ATOM      5  N   UNL d   1     -46.051  13.984  22.868  0.00  0.00    -0.120 NA
ATOM      6  N   UNL d   1     -46.557  14.621  22.717  0.00  0.00    -0.127 NA
ATOM      7  C   UNL d   1     -48.721  13.462  22.814  0.00  0.00     0.102 A 
ATOM      8  C   UNL d   1     -48.056  14.709  22.614  0.00  0.00     0.042 A 
ATOM      9  C   UNL d   1     -48.749  14.275  22.657  0.00  0.00     0.024 A 
ENDROOT
BRANCH   3  10
ATOM     10  S   UNL d   1     -46.199  12.556  23.133  0.00  0.00    -0.046 SA
BRANCH  10  11
ATOM     11  C   UNL d   1     -45.442  12.358  22.904  0.00  0.00     0.038 C 
BRANCH  11  12
ATOM     12  C   UNL d   1     -45.130  11.628  23.103  0.00  0.00     0.007 A 
ATOM     13  C   UNL d   1     -45.597  11.046  23.462  0.00  0.00     0.003 A 
ATOM     14  C   UNL d   1     -45.271  10.306  23.661  0.00  0.00     0.030 A 
ATOM     15  C   UNL d   1     -44.482  10.159  23.498  0.00  0.00     0.140 A 
ATOM     16  C   UNL d   1     -44.002  10.723  23.142  0.00  0.00     0.030 A 
ATOM     17  F   UNL d   1     -44.162   9.423  23.697  0.00  0.00    -0.204 F 
ATOM     18  C   UNL d   1     -44.327  11.462  22.943  0.00  0.00     0.003 A 
ENDBRANCH  11  12
ENDBRANCH  10  11
ENDBRANCH   3  10
BRANCH   7  19
ATOM     19  C   UNL d   1     -49.422  13.026  22.857  0.00  0.00     0.022 A 
ATOM     20  C   UNL d   1     -49.678  12.603  22.207  0.00  0.00     0.022 A 
ATOM     21  C   UNL d   1     -50.373  12.163  22.232  0.00  0.00     0.099 A 
ATOM     22  N   UNL d   1     -50.819  12.158  22.951  0.00  0.00    -0.242 NA
ATOM     23  C   UNL d   1     -50.560  12.583  23.602  0.00  0.00     0.099 A 
ATOM     24  C   UNL d   1     -49.861  13.016  23.555  0.00  0.00     0.022 A 
ENDBRANCH   7  19
TORSDOF 4
ENDMDL
MODEL 3
REMARK VINA RESULT:      -6.7      1.493      2.551
REMARK  4 active torsions:
REMARK  status: ('A' for Active; 'I' for Inactive)
REMARK    1  A    between atoms: S_10  and  C_3 
REMARK    2  A    between atoms: C_11  and  C_7 
REMARK    3  A    between atoms: C_13  and  S_10 
REMARK    4  A    between atoms: C_15  and  C_13 
ROOT
ATOM      1  N   UNL d   1     -48.205  14.446  22.732  0.00  0.00    -0.186 N 
ATOM      2  N   UNL d   1     -48.673  13.787  22.861  0.00  0.00    -0.162 NA
ATOM      3  C   UNL d   1     -47.382  14.551  22.739  0.00  0.00     0.217 A 
ATOM      4  C   UNL d   1     -48.546  15.179  22.557  0.00  0.00     0.187 A 
ATOM      5  N   UNL d   1     -47.229  15.339  22.570  0.00  0.00    -0.120 NA
ATOM      6  N   UNL d   1     -47.949  15.729  22.457  0.00  0.00    -0.127 NA
ATOM      7  C   UNL d   1     -49.498  13.857  22.815  0.00  0.00     0.102 A 
ATOM      8  C   UNL d   1     -49.374  15.246  22.512  0.00  0.00     0.042 A 
ATOM      9  C   UNL d   1     -49.845  14.589  22.640  0.00  0.00     0.024 A 
ENDROOT
BRANCH   3  10
ATOM     10  S   UNL d   1     -46.803  13.978  22.888  0.00  0.00    -0.046 SA
BRANCH  10  11
ATOM     11  C   UNL d   1     -46.182  13.874  22.370  0.00  0.00     0.038 C 
BRANCH  11  12
ATOM     12  C   UNL d   1     -45.667  13.245  22.467  0.00  0.00     0.007 A 
ATOM     13  C   UNL d   1     -45.848  12.619  22.978  0.00  0.00     0.003 A 
ATOM     14  C   UNL d   1     -45.319  11.983  23.069  0.00  0.00     0.030 A 
ATOM     15  C   UNL d   1     -44.616  11.983  22.649  0.00  0.00     0.140 A 
ATOM     16  C   UNL d   1     -44.418  12.595  22.137  0.00  0.00     0.030 A 
ATOM     17  F   UNL d   1     -44.092  11.349  22.743  0.00  0.00    -0.204 F 
ATOM     18  C   UNL d   1     -44.946  13.229  22.045  0.00  0.00     0.003 A 
ENDBRANCH  11  12
ENDBRANCH  10  11
ENDBRANCH   3  10
BRANCH   7  19
ATOM     19  C   UNL d   1     -49.976  13.194  22.945  0.00  0.00     0.022 A 
ATOM     20  C   UNL d   1     -50.519  13.198  23.554  0.00  0.00     0.022 A 
ATOM     21  C   UNL d   1     -51.002  12.547  23.697  0.00  0.00     0.099 A 
ATOM     22  N   UNL d   1     -50.922  11.870  23.195  0.00  0.00    -0.242 NA
ATOM     23  C   UNL d   1     -50.376  11.869  22.585  0.00  0.00     0.099 A 
ATOM     24  C   UNL d   1     -49.903  12.531  22.460  0.00  0.00     0.022 A 
ENDBRANCH   7  19
TORSDOF 4
ENDMDL
MODEL 4
REMARK VINA RESULT:      -6.5      9.257     10.558
REMARK  4 active torsions:
REMARK  status: ('A' for Active; 'I' for Inactive)
REMARK    1  A    between atoms: S_10  and  C_3 
REMARK    2  A    between atoms: C_11  and  C_7 
REMARK    3  A    between atoms: C_13  and  S_10 
REMARK    4  A    between atoms: C_15  and  C_13 
ROOT
ATOM      1  N   UNL d   1     -40.039  15.085  18.874  0.00  0.00    -0.186 N 
ATOM      2  N   UNL d   1     -39.502  14.576  18.523  0.00  0.00    -0.162 NA
ATOM      3  C   UNL d   1     -40.127  15.340  19.659  0.00  0.00     0.217 A 
ATOM      4  C   UNL d   1     -40.631  15.449  18.427  0.00  0.00     0.187 A 
ATOM      5  N   UNL d   1     -40.767  15.853  19.683  0.00  0.00    -0.120 NA
ATOM      6  N   UNL d   1     -41.080  15.922  18.921  0.00  0.00    -0.127 NA
ATOM      7  C   UNL d   1     -39.556  14.426  17.708  0.00  0.00     0.102 A 
ATOM      8  C   UNL d   1     -40.682  15.297  17.611  0.00  0.00     0.042 A 
ATOM      9  C   UNL d   1     -40.148  14.789  17.256  0.00  0.00     0.024 A 
ENDROOT
BRANCH   3  10
ATOM     10  S   UNL d   1     -39.665  15.129  20.312  0.00  0.00    -0.046 SA
BRANCH  10  11
ATOM     11  C   UNL d   1     -39.998  15.076  21.054  0.00  0.00     0.038 C 
BRANCH  11  12
ATOM     12  C   UNL d   1     -39.553  14.808  21.687  0.00  0.00     0.007 A 
ATOM     13  C   UNL d   1     -39.135  15.336  22.170  0.00  0.00     0.003 A 
ATOM     14  C   UNL d   1     -38.684  15.055  22.811  0.00  0.00     0.030 A 
ATOM     15  C   UNL d   1     -38.658  14.250  22.960  0.00  0.00     0.140 A 
ATOM     16  C   UNL d   1     -39.066  13.710  22.493  0.00  0.00     0.030 A 
ATOM     17  F   UNL d   1     -38.210  13.974  23.598  0.00  0.00    -0.204 F 
ATOM     18  C   UNL d   1     -39.516  13.991  21.853  0.00  0.00     0.003 A 
ENDBRANCH  11  12
ENDBRANCH  10  11
ENDBRANCH   3  10
BRANCH   7  19
ATOM     19  C   UNL d   1     -39.017  13.914  17.348  0.00  0.00     0.022 A 
ATOM     20  C   UNL d   1     -38.945  13.146  17.615  0.00  0.00     0.022 A 
ATOM     21  C   UNL d   1     -38.414  12.622  17.268  0.00  0.00     0.099 A 
ATOM     22  N   UNL d   1     -37.940  12.899  16.624  0.00  0.00    -0.242 NA
ATOM     23  C   UNL d   1     -38.013  13.670  16.358  0.00  0.00     0.099 A 
ATOM     24  C   UNL d   1     -38.552  14.177  16.720  0.00  0.00     0.022 A 
ENDBRANCH   7  19
TORSDOF 4
ENDMDL
