MODEL 1
REMARK VINA RESULT:      -5.2      0.000      0.000
REMARK  5 active torsions:
REMARK  status: ('A' for Active; 'I' for Inactive)
REMARK    1  A    between atoms: C_2  and  S_1 
REMARK    2  A    between atoms: N_3  and  C_14 
REMARK    3  A    between atoms: C_9  and  N_3 
REMARK    4  A    between atoms: N_8  and  C_7 
REMARK    5  A    between atoms: C_15  and  C_9 
ROOT
ATOM      1  N   UNL d   1      57.047  -0.612  31.534  0.00  0.00    -0.244 NA
ENDROOT
BRANCH   1   2
ATOM      2  C   UNL d   1      56.598  -0.350  32.181  0.00  0.00     0.082 A 
ATOM      3  C   UNL d   1      56.096  -0.887  32.556  0.00  0.00     0.020 A 
ATOM      4  C   UNL d   1      55.651  -0.624  33.199  0.00  0.00     0.015 A 
ATOM      5  C   UNL d   1      55.705   0.145  33.457  0.00  0.00     0.107 A 
ATOM      6  C   UNL d   1      56.206   0.681  33.082  0.00  0.00     0.015 A 
ATOM      7  C   UNL d   1      56.652   0.419  32.439  0.00  0.00     0.020 A 
BRANCH   5   8
ATOM      8  S   UNL d   1      55.252   0.405  34.108  0.00  0.00     0.302 S 
ATOM      9  O   UNL d   1      54.559   0.281  33.669  0.00  0.00    -0.197 OA
ATOM     10  O   UNL d   1      54.793   0.661  34.747  0.00  0.00    -0.197 OA
ATOM     11  N   UNL d   1      55.940   0.526  34.540  0.00  0.00    -0.043 N 
ENDBRANCH   5   8
ENDBRANCH   1   2
BRANCH   1  12
ATOM     12  C   UNL d   1      57.377  -0.079  31.016  0.00  0.00     0.099 C 
BRANCH  12  13
ATOM     13  C   UNL d   1      57.943  -0.316  30.461  0.00  0.00     0.019 A 
ATOM     14  C   UNL d   1      58.037  -1.125  30.254  0.00  0.00     0.003 A 
ATOM     15  C   UNL d   1      58.607  -1.328  29.700  0.00  0.00     0.018 A 
ATOM     16  C   UNL d   1      59.082  -0.772  29.348  0.00  0.00     0.064 A 
ATOM     17  C   UNL d   1      58.988   0.037  29.555  0.00  0.00     0.018 A 
ATOM     18  C   UNL d   1      58.422   0.274  30.110  0.00  0.00     0.003 A 
BRANCH  16  19
ATOM     19  N   UNL d   1      59.642  -1.023  28.797  0.00  0.00    -0.301 N 
ATOM     20  C   UNL d   1      59.575  -1.780  28.455  0.00  0.00     0.100 C 
ATOM     21  C   UNL d   1      60.249  -0.516  28.603  0.00  0.00     0.100 C 
ENDBRANCH  16  19
ENDBRANCH  12  13
ENDBRANCH   1  12
TORSDOF 5
ENDMDL
MODEL 2
REMARK VINA RESULT:      -2.5      9.617      9.795
REMARK  5 active torsions:
REMARK  status: ('A' for Active; 'I' for Inactive)
REMARK    1  A    between atoms: C_2  and  S_1 
REMARK    2  A    between atoms: N_3  and  C_14 
REMARK    3  A    between atoms: C_9  and  N_3 
REMARK    4  A    between atoms: N_8  and  C_7 
REMARK    5  A    between atoms: C_15  and  C_9 
ROOT
ATOM      1  N   UNL d   1      58.623  -9.160  32.874  0.00  0.00    -0.244 NA
ENDROOT
BRANCH   1   2
ATOM      2  C   UNL d   1      59.076  -9.122  33.568  0.00  0.00     0.082 A 
ATOM      3  C   UNL d   1      59.897  -9.181  33.507  0.00  0.00     0.020 A 
ATOM      4  C   UNL d   1      60.345  -9.144  34.198  0.00  0.00     0.015 A 
ATOM      5  C   UNL d   1      59.987  -9.052  34.922  0.00  0.00     0.107 A 
ATOM      6  C   UNL d   1      59.167  -8.993  34.983  0.00  0.00     0.015 A 
ATOM      7  C   UNL d   1      58.718  -9.030  34.292  0.00  0.00     0.020 A 
BRANCH   5   8
ATOM      8  S   UNL d   1      60.446  -9.015  35.618  0.00  0.00     0.302 S 
ATOM      9  O   UNL d   1      60.258  -9.807  35.779  0.00  0.00    -0.197 OA
ATOM     10  O   UNL d   1      60.898  -8.990  36.311  0.00  0.00    -0.197 OA
ATOM     11  N   UNL d   1      60.630  -8.231  35.457  0.00  0.00    -0.043 N 
ENDBRANCH   5   8
ENDBRANCH   1   2
BRANCH   1  12
ATOM     12  C   UNL d   1      58.648  -9.818  32.397  0.00  0.00     0.099 C 
BRANCH  12  13
ATOM     13  C   UNL d   1      58.325  -9.807  31.636  0.00  0.00     0.019 A 
ATOM     14  C   UNL d   1      58.817  -9.791  30.955  0.00  0.00     0.003 A 
ATOM     15  C   UNL d   1      58.466  -9.781  30.213  0.00  0.00     0.018 A 
ATOM     16  C   UNL d   1      57.660  -9.787  30.118  0.00  0.00     0.064 A 
ATOM     17  C   UNL d   1      57.168  -9.803  30.799  0.00  0.00     0.018 A 
ATOM     18  C   UNL d   1      57.492  -9.813  31.561  0.00  0.00     0.003 A 
BRANCH  16  19
ATOM     19  N   UNL d   1      57.352  -9.776  29.354  0.00  0.00    -0.301 N 
ATOM     20  C   UNL d   1      56.527  -9.783  29.239  0.00  0.00     0.100 C 
ATOM     21  C   UNL d   1      57.873  -9.760  28.727  0.00  0.00     0.100 C 
ENDBRANCH  16  19
ENDBRANCH  12  13
ENDBRANCH   1  12
TORSDOF 5
ENDMDL
