MODEL 1
REMARK VINA RESULT:       2.1      0.000      0.000
REMARK  2 active torsions:
REMARK  status: ('A' for Active; 'I' for Inactive)
REMARK    1  A    between atoms: C_3  and  C_1 
REMARK       I    between atoms: C_2  and  N_4 
REMARK    2  A    between atoms: N_4  and  C_7 
ROOT
ATOM      1  C   UNL d   1      45.659 -14.449  44.621  0.00  0.00     0.073 A 
ATOM      2  C   UNL d   1      45.091 -14.035  44.185  0.00  0.00     0.024 A 
ATOM      3  C   UNL d   1      45.166 -13.219  44.083  0.00  0.00     0.100 A 
ATOM      4  C   UNL d   1      46.297 -14.049  44.954  0.00  0.00     0.004 A 
ATOM      5  C   UNL d   1      46.371 -13.234  44.852  0.00  0.00     0.002 A 
ATOM      6  C   UNL d   1      45.808 -12.818  44.418  0.00  0.00     0.020 A 
ENDROOT
BRANCH   1   7
ATOM      7  C   UNL d   1      45.584 -15.272  44.724  0.00  0.00     0.419 C 
ATOM      8  F   UNL d   1      45.516 -16.013  44.816  0.00  0.00    -0.166 F 
ATOM      9  F   UNL d   1      46.203 -15.865  44.822  0.00  0.00    -0.166 F 
ATOM     10  F   UNL d   1      44.871 -15.751  44.760  0.00  0.00    -0.166 F 
ENDBRANCH   1   7
BRANCH   3  11
ATOM     11  N   UNL d   1      44.603 -12.800  43.649  0.00  0.00    -0.056 NA
ATOM     12  C   UNL d   1      44.795 -12.499  42.911  0.00  0.00     0.787 C 
ATOM     13  N   UNL d   1      44.237 -12.080  42.475  0.00  0.00     0.064 N 
ATOM     14  N   UNL d   1      45.553 -12.617  42.607  0.00  0.00     0.064 N 
ENDBRANCH   3  11
TORSDOF 2
ENDMDL
MODEL 2
REMARK VINA RESULT:       3.0      7.281      7.813
REMARK  2 active torsions:
REMARK  status: ('A' for Active; 'I' for Inactive)
REMARK    1  A    between atoms: C_3  and  C_1 
REMARK       I    between atoms: C_2  and  N_4 
REMARK    2  A    between atoms: N_4  and  C_7 
ROOT
ATOM      1  C   UNL d   1      45.324 -15.262  36.957  0.00  0.00     0.073 A 
ATOM      2  C   UNL d   1      44.596 -15.239  36.565  0.00  0.00     0.024 A 
ATOM      3  C   UNL d   1      44.024 -15.810  36.728  0.00  0.00     0.100 A 
ATOM      4  C   UNL d   1      45.478 -15.854  37.508  0.00  0.00     0.004 A 
ATOM      5  C   UNL d   1      44.906 -16.425  37.670  0.00  0.00     0.002 A 
ATOM      6  C   UNL d   1      44.180 -16.405  37.281  0.00  0.00     0.020 A 
ENDROOT
BRANCH   1   7
ATOM      7  C   UNL d   1      45.902 -14.684  36.793  0.00  0.00     0.419 C 
ATOM      8  F   UNL d   1      46.422 -14.165  36.645  0.00  0.00    -0.166 F 
ATOM      9  F   UNL d   1      46.644 -14.767  36.361  0.00  0.00    -0.166 F 
ATOM     10  F   UNL d   1      45.914 -13.853  37.009  0.00  0.00    -0.166 F 
ENDBRANCH   1   7
BRANCH   3  11
ATOM     11  N   UNL d   1      43.295 -15.793  36.340  0.00  0.00    -0.056 NA
ATOM     12  C   UNL d   1      42.639 -15.474  36.713  0.00  0.00     0.787 C 
ATOM     13  N   UNL d   1      41.911 -15.455  36.331  0.00  0.00     0.064 N 
ATOM     14  N   UNL d   1      42.713 -15.170  37.477  0.00  0.00     0.064 N 
ENDBRANCH   3  11
TORSDOF 2
ENDMDL
