MODEL 1
REMARK VINA RESULT:      -5.3      0.000      0.000
REMARK  2 active torsions:
REMARK  status: ('A' for Active; 'I' for Inactive)
REMARK       I    between atoms: N_2  and  C_1 
REMARK    1  A    between atoms: C_6  and  C_1 
REMARK    2  A    between atoms: C_4  and  N_2 
ROOT
ATOM      1  C   UNL d   1      57.461   0.105  31.466  0.00  0.00     0.279 C 
ATOM      2  N   UNL d   1      57.443  -0.207  30.705  0.00  0.00    -0.204 NA
ATOM      3  O   UNL d   1      58.107   0.567  31.709  0.00  0.00    -0.265 OA
ENDROOT
BRANCH   1   4
ATOM      4  C   UNL d   1      56.840  -0.037  31.990  0.00  0.00     0.058 A 
ATOM      5  C   UNL d   1      56.642  -0.796  32.200  0.00  0.00     0.006 A 
ATOM      6  C   UNL d   1      56.021  -0.938  32.724  0.00  0.00     0.012 A 
ATOM      7  C   UNL d   1      55.590  -0.323  33.045  0.00  0.00     0.058 A 
ATOM      8  C   UNL d   1      55.790   0.469  32.832  0.00  0.00     0.012 A 
ATOM      9 CL   UNL d   1      54.987  -0.462  33.554  0.00  0.00    -0.082 Cl
ATOM     10  C   UNL d   1      56.411   0.611  32.308  0.00  0.00     0.006 A 
ENDBRANCH   1   4
BRANCH   2  11
ATOM     11  C   UNL d   1      58.073  -0.059  30.184  0.00  0.00     0.130 A 
ATOM     12  C   UNL d   1      58.439  -0.598  29.690  0.00  0.00     0.243 A 
ATOM     13  S   UNL d   1      59.033  -0.206  29.276  0.00  0.00    -0.044 SA
ATOM     14  O   UNL d   1      58.241  -1.403  29.622  0.00  0.00    -0.278 OA
ATOM     15  C   UNL d   1      59.033   0.587  29.519  0.00  0.00     0.040 A 
ATOM     16  C   UNL d   1      58.440   0.681  30.081  0.00  0.00     0.030 A 
ENDBRANCH   2  11
TORSDOF 2
ENDMDL
MODEL 2
REMARK VINA RESULT:      -4.5      2.725      4.215
REMARK  2 active torsions:
REMARK  status: ('A' for Active; 'I' for Inactive)
REMARK       I    between atoms: N_2  and  C_1 
REMARK    1  A    between atoms: C_6  and  C_1 
REMARK    2  A    between atoms: C_4  and  N_2 
ROOT
ATOM      1  C   UNL d   1      56.110   0.027  32.681  0.00  0.00     0.279 C 
ATOM      2  N   UNL d   1      56.187   0.615  33.250  0.00  0.00    -0.204 NA
ATOM      3  O   UNL d   1      55.507  -0.542  32.751  0.00  0.00    -0.265 OA
ENDROOT
BRANCH   1   4
ATOM      4  C   UNL d   1      56.627  -0.004  32.039  0.00  0.00     0.058 A 
ATOM      5  C   UNL d   1      56.911   0.679  31.704  0.00  0.00     0.006 A 
ATOM      6  C   UNL d   1      57.428   0.649  31.062  0.00  0.00     0.012 A 
ATOM      7  C   UNL d   1      57.668  -0.065  30.747  0.00  0.00     0.058 A 
ATOM      8  C   UNL d   1      57.378  -0.780  31.090  0.00  0.00     0.012 A 
ATOM      9 CL   UNL d   1      58.171  -0.095  30.123  0.00  0.00    -0.082 Cl
ATOM     10  C   UNL d   1      56.860  -0.750  31.731  0.00  0.00     0.006 A 
ENDBRANCH   1   4
BRANCH   2  11
ATOM     11  C   UNL d   1      55.661   0.637  33.893  0.00  0.00     0.130 A 
ATOM     12  C   UNL d   1      55.857   0.667  34.686  0.00  0.00     0.243 A 
ATOM     13  S   UNL d   1      55.160   0.682  35.123  0.00  0.00    -0.044 SA
ATOM     14  O   UNL d   1      56.630   0.681  34.993  0.00  0.00    -0.278 OA
ATOM     15  C   UNL d   1      54.524   0.660  34.591  0.00  0.00     0.040 A 
ATOM     16  C   UNL d   1      54.832   0.633  33.829  0.00  0.00     0.030 A 
ENDBRANCH   2  11
TORSDOF 2
ENDMDL
