MODEL 1
REMARK VINA RESULT:       0.4      0.000      0.000
REMARK  4 active torsions:
REMARK  status: ('A' for Active; 'I' for Inactive)
REMARK    1  A    between atoms: N_3  and  S_1 
REMARK    2  A    between atoms: C_13  and  S_1 
REMARK    3  A    between atoms: C_2  and  N_3 
REMARK    4  A    between atoms: N_8  and  C_4 
REMARK       I    between atoms: C_10  and  N_9 
ROOT
ATOM      1  C   UNL d   1      58.927  -0.783  29.225  0.00  0.00     0.110 A 
ATOM      2  C   UNL d   1      58.702  -0.505  30.228  0.00  0.00     0.083 A 
ATOM      3  C   UNL d   1      59.673  -0.454  29.126  0.00  0.00     0.020 A 
ATOM      4  C   UNL d   1      59.373  -0.083  30.462  0.00  0.00     0.018 A 
ATOM      5  C   UNL d   1      59.885  -0.081  29.816  0.00  0.00     0.003 A 
ATOM      6  C   UNL d   1      60.616   0.300  29.870  0.00  0.00     0.000 A 
ATOM      7  C   UNL d   1      60.180  -0.460  28.466  0.00  0.00     0.002 A 
ATOM      8  C   UNL d   1      59.585   0.290  31.153  0.00  0.00     0.002 A 
ATOM      9  C   UNL d   1      60.323   0.682  31.225  0.00  0.00     0.000 A 
ATOM     10  C   UNL d   1      60.916  -0.071  28.535  0.00  0.00     0.000 A 
ATOM     11  C   UNL d   1      60.831   0.677  30.568  0.00  0.00     0.000 A 
ATOM     12  C   UNL d   1      61.132   0.306  29.231  0.00  0.00     0.000 A 
ENDROOT
BRANCH   1  13
ATOM     13  N   UNL d   1      58.558  -1.197  28.627  0.00  0.00    -0.157 NA
BRANCH  13  14
ATOM     14  S   UNL d   1      58.597  -2.020  28.584  0.00  0.00     0.285 S 
ATOM     15  O   UNL d   1      57.771  -2.050  28.595  0.00  0.00    -0.198 OA
ATOM     16  O   UNL d   1      59.415  -1.984  28.574  0.00  0.00    -0.198 OA
BRANCH  14  17
ATOM     17  C   UNL d   1      58.628  -2.836  28.542  0.00  0.00     0.105 A 
ATOM     18  C   UNL d   1      59.356  -3.218  28.540  0.00  0.00     0.013 A 
ATOM     19  C   UNL d   1      59.409  -4.042  28.498  0.00  0.00     0.001 A 
ATOM     20  C   UNL d   1      58.692  -4.482  28.455  0.00  0.00     0.000 A 
ATOM     21  C   UNL d   1      57.968  -4.101  28.457  0.00  0.00     0.001 A 
ATOM     22  C   UNL d   1      57.933  -3.284  28.499  0.00  0.00     0.013 A 
ENDBRANCH  14  17
ENDBRANCH  13  14
ENDBRANCH   1  13
BRANCH   2  23
ATOM     23  N   UNL d   1      58.082  -0.606  30.753  0.00  0.00    -0.300 N 
ATOM     24  C   UNL d   1      57.984  -1.335  31.128  0.00  0.00     0.100 A 
ATOM     25  C   UNL d   1      57.378  -1.426  31.636  0.00  0.00     0.102 A 
ATOM     26  N   UNL d   1      56.823  -0.810  31.817  0.00  0.00    -0.269 N 
ATOM     27  C   UNL d   1      56.923  -0.090  31.444  0.00  0.00     0.102 A 
ATOM     28  C   UNL d   1      56.194  -0.900  32.344  0.00  0.00     0.265 C 
ATOM     29  C   UNL d   1      57.584   0.018  30.885  0.00  0.00     0.100 A 
ATOM     30  O   UNL d   1      56.045  -1.608  32.749  0.00  0.00    -0.267 OA
ATOM     31  C   UNL d   1      55.653  -0.305  32.522  0.00  0.00     0.066 C 
ENDBRANCH   2  23
TORSDOF 4
ENDMDL
MODEL 2
REMARK VINA RESULT:       3.2      1.418      3.809
REMARK  4 active torsions:
REMARK  status: ('A' for Active; 'I' for Inactive)
REMARK    1  A    between atoms: N_3  and  S_1 
REMARK    2  A    between atoms: C_13  and  S_1 
REMARK    3  A    between atoms: C_2  and  N_3 
REMARK    4  A    between atoms: N_8  and  C_4 
REMARK       I    between atoms: C_10  and  N_9 
ROOT
ATOM      1  C   UNL d   1      58.436  -1.068  29.538  0.00  0.00     0.110 A 
ATOM      2  C   UNL d   1      58.925  -1.952  29.202  0.00  0.00     0.083 A 
ATOM      3  C   UNL d   1      59.056  -0.530  29.550  0.00  0.00     0.020 A 
ATOM      4  C   UNL d   1      59.708  -1.709  29.102  0.00  0.00     0.018 A 
ATOM      5  C   UNL d   1      59.733  -0.910  29.308  0.00  0.00     0.003 A 
ATOM      6  C   UNL d   1      60.445  -0.496  29.268  0.00  0.00     0.000 A 
ATOM      7  C   UNL d   1      59.066   0.275  29.760  0.00  0.00     0.002 A 
ATOM      8  C   UNL d   1      60.384  -2.090  28.861  0.00  0.00     0.002 A 
ATOM      9  C   UNL d   1      61.117  -1.684  28.814  0.00  0.00     0.000 A 
ATOM     10  C   UNL d   1      59.794   0.682  29.715  0.00  0.00     0.000 A 
ATOM     11  C   UNL d   1      61.130  -0.880  29.023  0.00  0.00     0.000 A 
ATOM     12  C   UNL d   1      60.478   0.299  29.471  0.00  0.00     0.000 A 
ENDROOT
BRANCH   1  13
ATOM     13  N   UNL d   1      57.678  -0.854  29.753  0.00  0.00    -0.157 NA
BRANCH  13  14
ATOM     14  S   UNL d   1      57.461  -0.770  30.544  0.00  0.00     0.285 S 
ATOM     15  O   UNL d   1      57.568  -1.583  30.649  0.00  0.00    -0.198 OA
ATOM     16  O   UNL d   1      57.356   0.035  30.433  0.00  0.00    -0.198 OA
BRANCH  14  17
ATOM     17  C   UNL d   1      57.247  -0.694  31.329  0.00  0.00     0.105 A 
ATOM     18  C   UNL d   1      57.545  -0.073  31.777  0.00  0.00     0.013 A 
ATOM     19  C   UNL d   1      57.340   0.022  32.572  0.00  0.00     0.001 A 
ATOM     20  C   UNL d   1      56.813  -0.541  32.913  0.00  0.00     0.000 A 
ATOM     21  C   UNL d   1      56.517  -1.159  32.467  0.00  0.00     0.001 A 
ATOM     22  C   UNL d   1      56.730  -1.238  31.680  0.00  0.00     0.013 A 
ENDBRANCH  14  17
ENDBRANCH  13  14
ENDBRANCH   1  13
BRANCH   2  23
ATOM     23  N   UNL d   1      58.716  -2.727  29.042  0.00  0.00    -0.300 N 
ATOM     24  C   UNL d   1      57.919  -2.923  28.954  0.00  0.00     0.100 A 
ATOM     25  C   UNL d   1      57.725  -3.679  28.797  0.00  0.00     0.102 A 
ATOM     26  N   UNL d   1      58.296  -4.301  28.715  0.00  0.00    -0.269 N 
ATOM     27  C   UNL d   1      59.084  -4.105  28.803  0.00  0.00     0.102 A 
ATOM     28  C   UNL d   1      58.099  -5.086  28.554  0.00  0.00     0.265 C 
ATOM     29  C   UNL d   1      59.305  -3.278  28.974  0.00  0.00     0.100 A 
ATOM     30  O   UNL d   1      57.316  -5.342  28.455  0.00  0.00    -0.267 OA
ATOM     31  C   UNL d   1      58.650  -5.693  28.473  0.00  0.00     0.066 C 
ENDBRANCH   2  23
TORSDOF 4
ENDMDL
