MODEL 1
REMARK VINA RESULT:      -5.4      0.000      0.000
REMARK  6 active torsions:
REMARK  status: ('A' for Active; 'I' for Inactive)
REMARK    1  A    between atoms: C_6  and  N_2 
REMARK    2  A    between atoms: C_7  and  C_6 
REMARK    3  A    between atoms: C_8  and  C_7 
REMARK       I    between atoms: N_13  and  C_8 
REMARK    4  A    between atoms: C_10  and  C_17 
REMARK    5  A    between atoms: C_14  and  N_13 
REMARK    6  A    between atoms: C_17  and  C_14 
ROOT
ATOM      1  C   UNL d   1      58.696  -0.048  29.838  0.00  0.00     0.082 C 
ENDROOT
BRANCH   1   2
ATOM      2  C   UNL d   1      58.666  -0.545  29.184  0.00  0.00     0.088 C 
BRANCH   2   3
ATOM      3  N   UNL d   1      59.345  -0.933  28.925  0.00  0.00    -0.268 N 
ATOM      4  C   UNL d   1      60.039  -0.575  28.667  0.00  0.00     0.296 A 
ATOM      5  S   UNL d   1      60.577  -1.209  28.458  0.00  0.00    -0.025 SA
ATOM      6  O   UNL d   1      60.176   0.238  28.623  0.00  0.00    -0.259 OA
ATOM      7  C   UNL d   1      60.204  -1.896  28.592  0.00  0.00     0.050 A 
ATOM      8  C   UNL d   1      60.465  -2.676  28.485  0.00  0.00     0.008 A 
ATOM      9  C   UNL d   1      59.445  -1.751  28.879  0.00  0.00     0.073 A 
ATOM     10  C   UNL d   1      59.963  -3.311  28.668  0.00  0.00     0.001 A 
ATOM     11  C   UNL d   1      59.205  -3.154  28.956  0.00  0.00     0.002 A 
ATOM     12  C   UNL d   1      58.948  -2.375  29.060  0.00  0.00     0.018 A 
ENDBRANCH   2   3
ENDBRANCH   1   2
BRANCH   1  13
ATOM     13  C   UNL d   1      58.006   0.160  30.238  0.00  0.00     0.281 C 
ATOM     14  O   UNL d   1      57.378   0.500  29.824  0.00  0.00    -0.265 OA
ATOM     15  N   UNL d   1      57.938   0.032  31.047  0.00  0.00    -0.206 NA
BRANCH  15  16
ATOM     16  C   UNL d   1      57.251   0.239  31.443  0.00  0.00     0.102 C 
BRANCH  16  17
ATOM     17  C   UNL d   1      57.213   0.191  32.263  0.00  0.00     0.021 C 
BRANCH  17  18
ATOM     18  C   UNL d   1      56.496   0.042  32.641  0.00  0.00     0.002 A 
ATOM     19  C   UNL d   1      56.031   0.682  32.907  0.00  0.00     0.000 A 
ATOM     20  C   UNL d   1      55.310   0.529  33.288  0.00  0.00     0.000 A 
ATOM     21  C   UNL d   1      55.056  -0.243  33.403  0.00  0.00     0.000 A 
ATOM     22  C   UNL d   1      55.522  -0.875  33.138  0.00  0.00     0.000 A 
ATOM     23  C   UNL d   1      56.240  -0.747  32.758  0.00  0.00     0.000 A 
ENDBRANCH  17  18
ENDBRANCH  16  17
ENDBRANCH  15  16
ENDBRANCH   1  13
TORSDOF 6
ENDMDL
MODEL 2
REMARK VINA RESULT:      -2.8      1.930      5.570
REMARK  6 active torsions:
REMARK  status: ('A' for Active; 'I' for Inactive)
REMARK    1  A    between atoms: C_6  and  N_2 
REMARK    2  A    between atoms: C_7  and  C_6 
REMARK    3  A    between atoms: C_8  and  C_7 
REMARK       I    between atoms: N_13  and  C_8 
REMARK    4  A    between atoms: C_10  and  C_17 
REMARK    5  A    between atoms: C_14  and  N_13 
REMARK    6  A    between atoms: C_17  and  C_14 
ROOT
ATOM      1  C   UNL d   1      57.220  -0.019  31.810  0.00  0.00     0.082 C 
ENDROOT
BRANCH   1   2
ATOM      2  C   UNL d   1      57.267   0.668  32.260  0.00  0.00     0.088 C 
BRANCH   2   3
ATOM      3  N   UNL d   1      57.006   0.672  33.041  0.00  0.00    -0.268 N 
ATOM      4  C   UNL d   1      57.482   0.679  33.711  0.00  0.00     0.296 A 
ATOM      5  S   UNL d   1      56.952   0.681  34.386  0.00  0.00    -0.025 SA
ATOM      6  O   UNL d   1      58.307   0.682  33.719  0.00  0.00    -0.259 OA
ATOM      7  C   UNL d   1      56.209   0.676  34.109  0.00  0.00     0.050 A 
ATOM      8  C   UNL d   1      55.487   0.676  34.517  0.00  0.00     0.008 A 
ATOM      9  C   UNL d   1      56.217   0.670  33.284  0.00  0.00     0.073 A 
ATOM     10  C   UNL d   1      54.772   0.670  34.095  0.00  0.00     0.001 A 
ATOM     11  C   UNL d   1      54.792   0.664  33.270  0.00  0.00     0.002 A 
ATOM     12  C   UNL d   1      55.514   0.665  32.867  0.00  0.00     0.018 A 
ENDBRANCH   2   3
ENDBRANCH   1   2
BRANCH   1  13
ATOM     13  C   UNL d   1      57.554  -0.050  31.058  0.00  0.00     0.281 C 
ATOM     14  O   UNL d   1      57.634   0.642  30.615  0.00  0.00    -0.265 OA
ATOM     15  N   UNL d   1      57.810  -0.766  30.744  0.00  0.00    -0.206 NA
BRANCH  15  16
ATOM     16  C   UNL d   1      58.143  -0.795  29.996  0.00  0.00     0.102 C 
BRANCH  16  17
ATOM     17  C   UNL d   1      58.094  -1.481  29.546  0.00  0.00     0.021 C 
BRANCH  17  18
ATOM     18  C   UNL d   1      58.775  -1.834  29.243  0.00  0.00     0.002 A 
ATOM     19  C   UNL d   1      59.408  -1.354  28.990  0.00  0.00     0.000 A 
ATOM     20  C   UNL d   1      60.093  -1.711  28.686  0.00  0.00     0.000 A 
ATOM     21  C   UNL d   1      60.146  -2.528  28.634  0.00  0.00     0.000 A 
ATOM     22  C   UNL d   1      59.514  -3.001  28.887  0.00  0.00     0.000 A 
ATOM     23  C   UNL d   1      58.827  -2.668  29.192  0.00  0.00     0.000 A 
ENDBRANCH  17  18
ENDBRANCH  16  17
ENDBRANCH  15  16
ENDBRANCH   1  13
TORSDOF 6
ENDMDL
