MODEL 1
REMARK VINA RESULT:      46.5      0.000      0.000
REMARK  6 active torsions:
REMARK  status: ('A' for Active; 'I' for Inactive)
REMARK    1  A    between atoms: C_4  and  N_1 
REMARK    2  A    between atoms: C_7  and  C_3 
REMARK    3  A    between atoms: N_13  and  C_4 
REMARK    4  A    between atoms: C_16  and  N_13 
REMARK    5  A    between atoms: C_20  and  C_16 
REMARK    6  A    between atoms: C_17  and  C_20 
ROOT
ATOM      1  N   UNL d   1      14.376  14.152  -1.888  0.00  0.00    -0.281 N 
ATOM      2  C   UNL d   1      15.177  14.595  -0.807  0.00  0.00     0.080 A 
ATOM      3  C   UNL d   1      14.743  14.004  -1.170  0.00  0.00     0.084 A 
ATOM      4  N   UNL d   1      15.246  15.333  -1.160  0.00  0.00    -0.301 N 
ATOM      5  C   UNL d   1      14.445  14.896  -2.245  0.00  0.00     0.101 A 
ATOM      6  C   UNL d   1      15.600  14.611  -0.097  0.00  0.00     0.021 A 
ATOM      7  C   UNL d   1      15.711  15.812  -0.674  0.00  0.00     0.080 A 
ATOM      8  C   UNL d   1      14.883  15.484  -1.874  0.00  0.00     0.100 A 
ATOM      9  C   UNL d   1      15.932  15.368  -0.014  0.00  0.00     0.021 A 
ENDROOT
BRANCH   1  10
ATOM     10  C   UNL d   1      13.935  13.561  -2.263  0.00  0.00     0.184 C 
ATOM     11  S   UNL d   1      13.669  12.922  -1.827  0.00  0.00    -0.040 SA
BRANCH  10  12
ATOM     12  N   UNL d   1      13.765  13.614  -3.063  0.00  0.00    -0.330 N 
ATOM     13  H   UNL d   1      14.017  14.270  -3.496  0.00  0.00     0.168 HD
BRANCH  12  14
ATOM     14  C   UNL d   1      13.345  13.014  -3.435  0.00  0.00     0.074 C 
BRANCH  14  15
ATOM     15  C   UNL d   1      12.977  13.152  -4.127  0.00  0.00     0.018 C 
BRANCH  15  16
ATOM     16  C   UNL d   1      13.178  12.828  -4.862  0.00  0.00     0.002 A 
ATOM     17  C   UNL d   1      13.705  13.238  -5.360  0.00  0.00     0.000 A 
ATOM     18  C   UNL d   1      13.907  12.918  -6.093  0.00  0.00     0.000 A 
ATOM     19  C   UNL d   1      13.588  12.192  -6.333  0.00  0.00     0.000 A 
ATOM     20  C   UNL d   1      13.061  11.781  -5.835  0.00  0.00     0.000 A 
ATOM     21  C   UNL d   1      12.862  12.108  -5.100  0.00  0.00     0.000 A 
ENDBRANCH  15  16
ENDBRANCH  14  15
ENDBRANCH  12  14
ENDBRANCH  10  12
ENDBRANCH   1  10
BRANCH   3  22
ATOM     22  C   UNL d   1      14.673  13.262  -0.818  0.00  0.00     0.037 A 
ATOM     23  C   UNL d   1      15.289  12.718  -0.873  0.00  0.00     0.100 A 
ATOM     24  N   UNL d   1      15.212  11.980  -0.519  0.00  0.00    -0.242 NA
ATOM     25  C   UNL d   1      14.539  11.779  -0.116  0.00  0.00     0.099 A 
ATOM     26  C   UNL d   1      13.916  12.321  -0.057  0.00  0.00     0.021 A 
ATOM     27  C   UNL d   1      13.986  13.063  -0.410  0.00  0.00     0.005 A 
ENDBRANCH   3  22
TORSDOF 6
ENDMDL
