MODEL 1
REMARK VINA RESULT:     -10.7      0.000      0.000
REMARK  1 active torsions:
REMARK  status: ('A' for Active; 'I' for Inactive)
REMARK    1  A    between atoms: C_7  and  C_2 
ROOT
ATOM      1  C   UNL d   1      53.279  33.037  53.977  0.00  0.00     0.074 A 
ATOM      2  C   UNL d   1      52.748  32.777  53.403  0.00  0.00     0.088 A 
ATOM      3  C   UNL d   1      53.822  32.511  54.305  0.00  0.00     0.088 A 
ATOM      4  C   UNL d   1      53.303  31.464  53.483  0.00  0.00     0.221 A 
ATOM      5  N   UNL d   1      53.834  31.724  54.058  0.00  0.00    -0.217 NA
ATOM      6  N   UNL d   1      52.760  31.990  53.155  0.00  0.00    -0.217 NA
ATOM      7  C   UNL d   1      53.264  33.818  54.220  0.00  0.00     0.199 A 
ATOM      8  S   UNL d   1      53.315  30.676  53.235  0.00  0.00    -0.037 SA
ATOM      9  O   UNL d   1      52.720  34.345  53.892  0.00  0.00    -0.286 OA
ATOM     10  C   UNL d   1      54.350  32.765  54.875  0.00  0.00     0.019 A 
ATOM     11  C   UNL d   1      53.798  34.085  54.800  0.00  0.00     0.042 A 
ATOM     12  C   UNL d   1      54.341  33.558  55.127  0.00  0.00     0.005 A 
ENDROOT
BRANCH   2  13
ATOM     13  C   UNL d   1      52.205  33.304  53.075  0.00  0.00     0.021 A 
ATOM     14  C   UNL d   1      51.421  33.302  53.333  0.00  0.00     0.043 A 
ATOM     15  C   UNL d   1      50.881  33.826  53.007  0.00  0.00     0.196 A 
ATOM     16  O   UNL d   1      50.096  33.824  53.265  0.00  0.00    -0.287 OA
ATOM     17  C   UNL d   1      51.121  34.355  52.421  0.00  0.00     0.042 A 
ATOM     18  C   UNL d   1      51.905  34.357  52.164  0.00  0.00     0.003 A 
ATOM     19  C   UNL d   1      52.445  33.833  52.490  0.00  0.00     0.002 A 
ENDBRANCH   2  13
TORSDOF 1
ENDMDL
MODEL 2
REMARK VINA RESULT:     -10.4      1.027      2.957
REMARK  1 active torsions:
REMARK  status: ('A' for Active; 'I' for Inactive)
REMARK    1  A    between atoms: C_7  and  C_2 
ROOT
ATOM      1  C   UNL d   1      52.753  33.129  53.396  0.00  0.00     0.074 A 
ATOM      2  C   UNL d   1      53.326  32.648  53.740  0.00  0.00     0.088 A 
ATOM      3  C   UNL d   1      52.199  32.806  52.879  0.00  0.00     0.088 A 
ATOM      4  C   UNL d   1      52.794  31.517  53.049  0.00  0.00     0.221 A 
ATOM      5  N   UNL d   1      52.219  32.000  52.704  0.00  0.00    -0.217 NA
ATOM      6  N   UNL d   1      53.347  31.841  53.567  0.00  0.00    -0.217 NA
ATOM      7  C   UNL d   1      52.736  33.928  53.571  0.00  0.00     0.199 A 
ATOM      8  S   UNL d   1      52.814  30.710  52.875  0.00  0.00    -0.037 SA
ATOM      9  O   UNL d   1      53.290  34.252  54.089  0.00  0.00    -0.286 OA
ATOM     10  C   UNL d   1      51.629  33.280  52.535  0.00  0.00     0.019 A 
ATOM     11  C   UNL d   1      52.159  34.418  53.225  0.00  0.00     0.042 A 
ATOM     12  C   UNL d   1      51.605  34.094  52.708  0.00  0.00     0.005 A 
ENDROOT
BRANCH   2  13
ATOM     13  C   UNL d   1      53.881  32.972  54.258  0.00  0.00     0.021 A 
ATOM     14  C   UNL d   1      54.634  33.169  53.985  0.00  0.00     0.043 A 
ATOM     15  C   UNL d   1      55.185  33.491  54.500  0.00  0.00     0.196 A 
ATOM     16  O   UNL d   1      55.939  33.689  54.228  0.00  0.00    -0.287 OA
ATOM     17  C   UNL d   1      54.985  33.618  55.292  0.00  0.00     0.042 A 
ATOM     18  C   UNL d   1      54.232  33.421  55.563  0.00  0.00     0.003 A 
ATOM     19  C   UNL d   1      53.681  33.099  55.048  0.00  0.00     0.002 A 
ENDBRANCH   2  13
TORSDOF 1
ENDMDL
MODEL 3
REMARK VINA RESULT:     -10.3      1.352      2.088
REMARK  1 active torsions:
REMARK  status: ('A' for Active; 'I' for Inactive)
REMARK    1  A    between atoms: C_7  and  C_2 
ROOT
ATOM      1  C   UNL d   1      53.059  32.209  53.516  0.00  0.00     0.074 A 
ATOM      2  C   UNL d   1      52.877  33.001  53.656  0.00  0.00     0.088 A 
ATOM      3  C   UNL d   1      53.722  31.871  53.869  0.00  0.00     0.088 A 
ATOM      4  C   UNL d   1      54.021  33.117  54.501  0.00  0.00     0.221 A 
ATOM      5  N   UNL d   1      54.204  32.324  54.362  0.00  0.00    -0.217 NA
ATOM      6  N   UNL d   1      53.358  33.455  54.148  0.00  0.00    -0.217 NA
ATOM      7  C   UNL d   1      52.579  31.763  53.028  0.00  0.00     0.199 A 
ATOM      8  S   UNL d   1      54.504  33.571  54.994  0.00  0.00    -0.037 SA
ATOM      9  O   UNL d   1      51.915  32.101  52.674  0.00  0.00    -0.286 OA
ATOM     10  C   UNL d   1      53.907  31.086  53.734  0.00  0.00     0.019 A 
ATOM     11  C   UNL d   1      52.759  30.963  52.884  0.00  0.00     0.042 A 
ATOM     12  C   UNL d   1      53.423  30.625  53.237  0.00  0.00     0.005 A 
ENDROOT
BRANCH   2  13
ATOM     13  C   UNL d   1      52.212  33.340  53.302  0.00  0.00     0.021 A 
ATOM     14  C   UNL d   1      52.295  33.784  52.612  0.00  0.00     0.043 A 
ATOM     15  C   UNL d   1      51.634  34.121  52.261  0.00  0.00     0.196 A 
ATOM     16  O   UNL d   1      51.716  34.565  51.570  0.00  0.00    -0.287 OA
ATOM     17  C   UNL d   1      50.888  34.015  52.598  0.00  0.00     0.042 A 
ATOM     18  C   UNL d   1      50.807  33.570  53.288  0.00  0.00     0.003 A 
ATOM     19  C   UNL d   1      51.468  33.234  53.639  0.00  0.00     0.002 A 
ENDBRANCH   2  13
TORSDOF 1
ENDMDL
MODEL 4
REMARK VINA RESULT:     -10.3      1.779      3.145
REMARK  1 active torsions:
REMARK  status: ('A' for Active; 'I' for Inactive)
REMARK    1  A    between atoms: C_7  and  C_2 
ROOT
ATOM      1  C   UNL d   1      53.167  32.121  53.398  0.00  0.00     0.074 A 
ATOM      2  C   UNL d   1      53.288  32.922  53.547  0.00  0.00     0.088 A 
ATOM      3  C   UNL d   1      52.512  31.877  52.961  0.00  0.00     0.088 A 
ATOM      4  C   UNL d   1      52.099  33.238  52.822  0.00  0.00     0.221 A 
ATOM      5  N   UNL d   1      51.977  32.435  52.672  0.00  0.00    -0.217 NA
ATOM      6  N   UNL d   1      52.753  33.481  53.259  0.00  0.00    -0.217 NA
ATOM      7  C   UNL d   1      53.699  31.570  53.685  0.00  0.00     0.199 A 
ATOM      8  S   UNL d   1      51.564  33.797  52.534  0.00  0.00    -0.037 SA
ATOM      9  O   UNL d   1      54.354  31.814  54.123  0.00  0.00    -0.286 OA
ATOM     10  C   UNL d   1      52.388  31.083  52.810  0.00  0.00     0.019 A 
ATOM     11  C   UNL d   1      53.580  30.760  53.537  0.00  0.00     0.042 A 
ATOM     12  C   UNL d   1      52.926  30.516  53.099  0.00  0.00     0.005 A 
ENDROOT
BRANCH   2  13
ATOM     13  C   UNL d   1      53.943  33.166  53.985  0.00  0.00     0.021 A 
ATOM     14  C   UNL d   1      53.847  33.418  54.765  0.00  0.00     0.043 A 
ATOM     15  C   UNL d   1      54.499  33.661  55.200  0.00  0.00     0.196 A 
ATOM     16  O   UNL d   1      54.404  33.913  55.980  0.00  0.00    -0.287 OA
ATOM     17  C   UNL d   1      55.250  33.652  54.857  0.00  0.00     0.042 A 
ATOM     18  C   UNL d   1      55.345  33.400  54.078  0.00  0.00     0.003 A 
ATOM     19  C   UNL d   1      54.693  33.158  53.643  0.00  0.00     0.002 A 
ENDBRANCH   2  13
TORSDOF 1
ENDMDL
MODEL 5
REMARK VINA RESULT:     -10.1      1.720      2.698
REMARK  1 active torsions:
REMARK  status: ('A' for Active; 'I' for Inactive)
REMARK    1  A    between atoms: C_7  and  C_2 
ROOT
ATOM      1  C   UNL d   1      53.263  32.927  53.962  0.00  0.00     0.074 A 
ATOM      2  C   UNL d   1      52.853  32.521  53.374  0.00  0.00     0.088 A 
ATOM      3  C   UNL d   1      53.141  33.736  54.066  0.00  0.00     0.088 A 
ATOM      4  C   UNL d   1      52.196  33.730  52.993  0.00  0.00     0.221 A 
ATOM      5  N   UNL d   1      52.607  34.138  53.582  0.00  0.00    -0.217 NA
ATOM      6  N   UNL d   1      52.319  32.922  52.890  0.00  0.00    -0.217 NA
ATOM      7  C   UNL d   1      53.791  32.526  54.440  0.00  0.00     0.199 A 
ATOM      8  S   UNL d   1      51.662  34.132  52.509  0.00  0.00    -0.037 SA
ATOM      9  O   UNL d   1      53.914  31.717  54.336  0.00  0.00    -0.286 OA
ATOM     10  C   UNL d   1      53.546  34.143  54.647  0.00  0.00     0.019 A 
ATOM     11  C   UNL d   1      54.208  32.933  55.034  0.00  0.00     0.042 A 
ATOM     12  C   UNL d   1      54.085  33.741  55.138  0.00  0.00     0.005 A 
ENDROOT
BRANCH   2  13
ATOM     13  C   UNL d   1      52.976  31.711  53.270  0.00  0.00     0.021 A 
ATOM     14  C   UNL d   1      52.367  31.178  53.432  0.00  0.00     0.043 A 
ATOM     15  C   UNL d   1      52.489  30.374  53.329  0.00  0.00     0.196 A 
ATOM     16  O   UNL d   1      51.880  29.840  53.490  0.00  0.00    -0.287 OA
ATOM     17  C   UNL d   1      53.220  30.098  53.063  0.00  0.00     0.042 A 
ATOM     18  C   UNL d   1      53.828  30.632  52.902  0.00  0.00     0.003 A 
ATOM     19  C   UNL d   1      53.706  31.436  53.005  0.00  0.00     0.002 A 
ENDBRANCH   2  13
TORSDOF 1
ENDMDL
MODEL 6
REMARK VINA RESULT:      -9.6      1.783      3.059
REMARK  1 active torsions:
REMARK  status: ('A' for Active; 'I' for Inactive)
REMARK    1  A    between atoms: C_7  and  C_2 
ROOT
ATOM      1  C   UNL d   1      52.939  32.864  53.665  0.00  0.00     0.074 A 
ATOM      2  C   UNL d   1      53.490  32.291  53.884  0.00  0.00     0.088 A 
ATOM      3  C   UNL d   1      53.036  33.644  53.910  0.00  0.00     0.088 A 
ATOM      4  C   UNL d   1      54.238  33.280  54.593  0.00  0.00     0.221 A 
ATOM      5  N   UNL d   1      53.686  33.854  54.374  0.00  0.00    -0.217 NA
ATOM      6  N   UNL d   1      54.140  32.499  54.348  0.00  0.00    -0.217 NA
ATOM      7  C   UNL d   1      52.297  32.653  53.205  0.00  0.00     0.199 A 
ATOM      8  S   UNL d   1      54.888  33.489  55.057  0.00  0.00    -0.037 SA
ATOM      9  O   UNL d   1      52.199  31.872  52.960  0.00  0.00    -0.286 OA
ATOM     10  C   UNL d   1      52.492  34.216  53.696  0.00  0.00     0.019 A 
ATOM     11  C   UNL d   1      51.738  33.228  52.982  0.00  0.00     0.042 A 
ATOM     12  C   UNL d   1      51.835  34.009  53.227  0.00  0.00     0.005 A 
ENDROOT
BRANCH   2  13
ATOM     13  C   UNL d   1      53.393  31.510  53.638  0.00  0.00     0.021 A 
ATOM     14  C   UNL d   1      53.255  30.917  54.196  0.00  0.00     0.043 A 
ATOM     15  C   UNL d   1      53.158  30.140  53.952  0.00  0.00     0.196 A 
ATOM     16  O   UNL d   1      53.021  29.546  54.509  0.00  0.00    -0.287 OA
ATOM     17  C   UNL d   1      53.198  29.951  53.149  0.00  0.00     0.042 A 
ATOM     18  C   UNL d   1      53.335  30.545  52.593  0.00  0.00     0.003 A 
ATOM     19  C   UNL d   1      53.432  31.321  52.837  0.00  0.00     0.002 A 
ENDBRANCH   2  13
TORSDOF 1
ENDMDL
MODEL 7
REMARK VINA RESULT:      -8.4      1.973      3.346
REMARK  1 active torsions:
REMARK  status: ('A' for Active; 'I' for Inactive)
REMARK    1  A    between atoms: C_7  and  C_2 
ROOT
ATOM      1  C   UNL d   1      52.365  33.949  53.389  0.00  0.00     0.074 A 
ATOM      2  C   UNL d   1      53.055  33.879  53.835  0.00  0.00     0.088 A 
ATOM      3  C   UNL d   1      51.949  34.660  53.382  0.00  0.00     0.088 A 
ATOM      4  C   UNL d   1      52.913  35.233  54.268  0.00  0.00     0.221 A 
ATOM      5  N   UNL d   1      52.222  35.302  53.821  0.00  0.00    -0.217 NA
ATOM      6  N   UNL d   1      53.329  34.521  54.275  0.00  0.00    -0.217 NA
ATOM      7  C   UNL d   1      52.097  33.310  52.955  0.00  0.00     0.199 A 
ATOM      8  S   UNL d   1      53.187  35.876  54.707  0.00  0.00    -0.037 SA
ATOM      9  O   UNL d   1      52.514  32.598  52.962  0.00  0.00    -0.286 OA
ATOM     10  C   UNL d   1      51.264  34.733  52.941  0.00  0.00     0.019 A 
ATOM     11  C   UNL d   1      51.401  33.376  52.503  0.00  0.00     0.042 A 
ATOM     12  C   UNL d   1      50.985  34.087  52.496  0.00  0.00     0.005 A 
ENDROOT
BRANCH   2  13
ATOM     13  C   UNL d   1      53.472  33.167  53.842  0.00  0.00     0.021 A 
ATOM     14  C   UNL d   1      53.369  32.636  54.465  0.00  0.00     0.043 A 
ATOM     15  C   UNL d   1      53.783  31.928  54.472  0.00  0.00     0.196 A 
ATOM     16  O   UNL d   1      53.681  31.396  55.094  0.00  0.00    -0.287 OA
ATOM     17  C   UNL d   1      54.303  31.748  53.856  0.00  0.00     0.042 A 
ATOM     18  C   UNL d   1      54.405  32.280  53.234  0.00  0.00     0.003 A 
ATOM     19  C   UNL d   1      53.990  32.987  53.227  0.00  0.00     0.002 A 
ENDBRANCH   2  13
TORSDOF 1
ENDMDL
