MODEL 1
REMARK VINA RESULT:      47.2      0.000      0.000
REMARK  6 active torsions:
REMARK  status: ('A' for Active; 'I' for Inactive)
REMARK    1  A    between atoms: C_6  and  N_2 
REMARK    2  A    between atoms: C_7  and  C_3 
REMARK    3  A    between atoms: C_14  and  C_6 
REMARK    4  A    between atoms: C_8  and  O_16 
REMARK    5  A    between atoms: C_19  and  C_14 
REMARK    6  A    between atoms: O_16  and  C_19 
ROOT
ATOM      1  N   UNL d   1     -50.480  24.298  33.341  0.00  0.00    -0.224 NA
ATOM      2  N   UNL d   1     -50.257  25.627  33.320  0.00  0.00    -0.286 N 
ATOM      3  C   UNL d   1     -49.884  24.885  33.328  0.00  0.00     0.191 A 
ATOM      4  C   UNL d   1     -51.082  25.506  33.328  0.00  0.00     0.083 A 
ATOM      5  C   UNL d   1     -51.221  24.690  33.340  0.00  0.00     0.099 A 
ATOM      6  C   UNL d   1     -51.725  26.024  33.325  0.00  0.00     0.019 A 
ATOM      7  C   UNL d   1     -51.991  24.396  33.350  0.00  0.00     0.021 A 
ATOM      8  C   UNL d   1     -52.496  25.730  33.335  0.00  0.00     0.002 A 
ATOM      9  C   UNL d   1     -52.627  24.915  33.347  0.00  0.00     0.002 A 
ENDROOT
BRANCH   2  10
ATOM     10  C   UNL d   1     -49.737  26.264  33.307  0.00  0.00     0.084 C 
BRANCH  10  11
ATOM     11  C   UNL d   1     -50.013  27.013  33.482  0.00  0.00     0.046 C 
BRANCH  11  12
ATOM     12  C   UNL d   1     -49.482  27.579  33.754  0.00  0.00     0.124 C 
BRANCH  12  13
ATOM     13  O   UNL d   1     -49.359  27.671  34.565  0.00  0.00    -0.305 OA
BRANCH  13  14
ATOM     14  C   UNL d   1     -48.853  28.262  34.840  0.00  0.00     0.100 A 
ATOM     15  C   UNL d   1     -48.364  28.117  35.490  0.00  0.00     0.025 A 
ATOM     16  C   UNL d   1     -47.861  28.704  35.765  0.00  0.00     0.002 A 
ATOM     17  C   UNL d   1     -47.840  29.442  35.391  0.00  0.00     0.000 A 
ATOM     18  C   UNL d   1     -48.334  29.584  34.736  0.00  0.00     0.002 A 
ATOM     19  C   UNL d   1     -47.338  30.031  35.663  0.00  0.00     0.000 C 
ATOM     20  C   UNL d   1     -48.838  28.992  34.465  0.00  0.00     0.025 A 
ENDBRANCH  13  14
ENDBRANCH  12  13
ENDBRANCH  11  12
ENDBRANCH  10  11
ENDBRANCH   2  10
BRANCH   3  21
ATOM     21  C   UNL d   1     -49.070  24.748  33.324  0.00  0.00     0.271 C 
ATOM     22  O   UNL d   1     -48.739  24.219  33.862  0.00  0.00    -0.280 OA
ENDBRANCH   3  21
TORSDOF 6
ENDMDL
