MODEL 1
REMARK VINA RESULT:      44.0      0.000      0.000
REMARK  5 active torsions:
REMARK  status: ('A' for Active; 'I' for Inactive)
REMARK    1  A    between atoms: C_12  and  C_4 
REMARK    2  A    between atoms: S_10  and  C_5 
REMARK    3  A    between atoms: C_15  and  S_10 
REMARK    4  A    between atoms: C_11  and  C_15 
REMARK       I    between atoms: N_13  and  C_11 
REMARK    5  A    between atoms: C_16  and  N_13 
ROOT
ATOM      1  N   UNL d   1      46.372 -17.930  41.306  0.00  0.00    -0.206 N 
ATOM      2  C   UNL d   1      46.317 -18.569  41.828  0.00  0.00     0.166 A 
ATOM      3  N   UNL d   1      46.139 -17.045  42.373  0.00  0.00    -0.163 NA
ATOM      4  C   UNL d   1      46.174 -18.446  42.615  0.00  0.00     0.055 A 
ATOM      5  C   UNL d   1      46.515 -18.074  40.526  0.00  0.00     0.116 A 
ATOM      6  C   UNL d   1      46.084 -17.672  42.886  0.00  0.00     0.104 A 
ATOM      7  N   UNL d   1      46.406 -19.333  41.554  0.00  0.00    -0.227 NA
ATOM      8  C   UNL d   1      46.607 -18.831  40.237  0.00  0.00     0.045 A 
ATOM      9  C   UNL d   1      46.552 -19.465  40.755  0.00  0.00     0.085 A 
ATOM     10  C   UNL d   1      45.942 -17.554  43.670  0.00  0.00     0.023 C 
ATOM     11  C   UNL d   1      46.645 -20.263  40.469  0.00  0.00     0.021 C 
ENDROOT
BRANCH   5  12
ATOM     12  S   UNL d   1      46.572 -17.417  39.989  0.00  0.00    -0.062 SA
BRANCH  12  13
ATOM     13  C   UNL d   1      46.566 -17.212  39.176  0.00  0.00     0.099 C 
BRANCH  13  14
ATOM     14  C   UNL d   1      45.877 -16.870  38.833  0.00  0.00     0.286 C 
ATOM     15  N   UNL d   1      45.835 -16.732  37.997  0.00  0.00    -0.208 NA
ATOM     16  O   UNL d   1      45.220 -16.660  39.322  0.00  0.00    -0.265 OA
BRANCH  15  17
ATOM     17  C   UNL d   1      45.142 -16.389  37.659  0.00  0.00     0.085 A 
ATOM     18  C   UNL d   1      44.930 -15.598  37.857  0.00  0.00     0.022 A 
ATOM     19  C   UNL d   1      44.227 -15.255  37.510  0.00  0.00     0.044 A 
ATOM     20  C   UNL d   1      43.758 -15.705  36.980  0.00  0.00     0.196 A 
ATOM     21  C   UNL d   1      43.971 -16.496  36.783  0.00  0.00     0.044 A 
ATOM     22  O   UNL d   1      43.066 -15.362  36.642  0.00  0.00    -0.287 OA
ATOM     23  C   UNL d   1      44.666 -16.838  37.124  0.00  0.00     0.022 A 
ENDBRANCH  15  17
ENDBRANCH  13  14
ENDBRANCH  12  13
ENDBRANCH   5  12
BRANCH   4  24
ATOM     24  C   UNL d   1      46.119 -19.074  43.128  0.00  0.00     0.004 A 
ATOM     25  C   UNL d   1      45.540 -19.625  43.033  0.00  0.00     0.000 A 
ATOM     26  C   UNL d   1      45.486 -20.253  43.546  0.00  0.00     0.000 A 
ATOM     27  C   UNL d   1      46.010 -20.330  44.154  0.00  0.00     0.000 A 
ATOM     28  C   UNL d   1      46.602 -19.761  44.246  0.00  0.00     0.000 A 
ATOM     29  C   UNL d   1      46.645 -19.148  43.734  0.00  0.00     0.000 A 
ENDBRANCH   4  24
TORSDOF 5
ENDMDL
