MODEL 1
REMARK VINA RESULT:      -1.0      0.000      0.000
REMARK  4 active torsions:
REMARK  status: ('A' for Active; 'I' for Inactive)
REMARK    1  A    between atoms: C_16  and  N_3 
REMARK    2  A    between atoms: S_12  and  C_6 
REMARK    3  A    between atoms: C_10  and  C_14 
REMARK       I    between atoms: N_11  and  C_10 
REMARK    4  A    between atoms: C_14  and  S_12 
ROOT
ATOM      1  C   UNL d   1      30.408  16.805 -24.375  0.00  0.00     0.155 A 
ATOM      2  C   UNL d   1      30.673  17.582 -24.506  0.00  0.00     0.107 A 
ATOM      3  N   UNL d   1      31.733  16.399 -24.065  0.00  0.00    -0.252 N 
ATOM      4  C   UNL d   1      30.935  16.225 -24.158  0.00  0.00     0.285 A 
ATOM      5  N   UNL d   1      31.473  17.755 -24.413  0.00  0.00    -0.220 NA
ATOM      6  C   UNL d   1      32.003  17.165 -24.193  0.00  0.00     0.182 A 
ATOM      7  N   UNL d   1      29.596  16.799 -24.508  0.00  0.00    -0.239 NA
ATOM      8  C   UNL d   1      30.028  18.037 -24.715  0.00  0.00     0.037 A 
ATOM      9  C   UNL d   1      29.360  17.559 -24.718  0.00  0.00     0.083 A 
ATOM     10  O   UNL d   1      30.662  15.453 -24.030  0.00  0.00    -0.265 OA
ATOM     11  C   UNL d   1      29.965  18.834 -24.904  0.00  0.00     0.003 A 
ATOM     12  C   UNL d   1      28.630  17.878 -24.910  0.00  0.00     0.019 A 
ATOM     13  C   UNL d   1      29.234  19.152 -25.096  0.00  0.00     0.000 A 
ATOM     14  C   UNL d   1      28.567  18.665 -25.097  0.00  0.00     0.002 A 
ENDROOT
BRANCH   6  15
ATOM     15  S   UNL d   1      33.218  19.584 -24.535  0.00  0.00    -0.044 SA
BRANCH  15  16
ATOM     16  C   UNL d   1      33.190  20.223 -23.859  0.00  0.00     0.099 C 
BRANCH  16  17
ATOM     17  C   UNL d   1      33.176  21.126 -24.080  0.00  0.00     0.272 C 
ATOM     18  N   UNL d   1      33.189  21.767 -23.417  0.00  0.00    -0.267 N 
ATOM     19  C   UNL d   1      33.175  22.649 -23.631  0.00  0.00     0.110 A 
ATOM     20  C   UNL d   1      33.216  21.499 -22.539  0.00  0.00     0.110 A 
ATOM     21  C   UNL d   1      33.188  23.298 -22.966  0.00  0.00     0.142 A 
ATOM     22  O   UNL d   1      33.215  23.042 -22.085  0.00  0.00    -0.300 OA
ATOM     23  C   UNL d   1      33.229  22.137 -21.864  0.00  0.00     0.142 A 
ATOM     24  O   UNL d   1      33.148  21.392 -24.963  0.00  0.00    -0.266 OA
ENDBRANCH  16  17
ENDBRANCH  15  16
ENDBRANCH   6  15
BRANCH   3  25
ATOM     25  C   UNL d   1      32.331  15.732 -23.817  0.00  0.00     0.085 C 
ATOM     26  C   UNL d   1      33.226  15.931 -23.712  0.00  0.00     0.021 C 
ENDBRANCH   3  25
TORSDOF 4
ENDMDL
MODEL 2
REMARK VINA RESULT:      -0.1      1.225      2.887
REMARK  4 active torsions:
REMARK  status: ('A' for Active; 'I' for Inactive)
REMARK    1  A    between atoms: C_16  and  N_3 
REMARK    2  A    between atoms: S_12  and  C_6 
REMARK    3  A    between atoms: C_10  and  C_14 
REMARK       I    between atoms: N_11  and  C_10 
REMARK    4  A    between atoms: C_14  and  S_12 
ROOT
ATOM      1  C   UNL d   1      30.783  16.981 -24.487  0.00  0.00     0.155 A 
ATOM      2  C   UNL d   1      31.460  17.402 -24.251  0.00  0.00     0.107 A 
ATOM      3  N   UNL d   1      30.124  18.201 -24.792  0.00  0.00    -0.252 N 
ATOM      4  C   UNL d   1      30.127  17.379 -24.753  0.00  0.00     0.285 A 
ATOM      5  N   UNL d   1      31.457  18.224 -24.291  0.00  0.00    -0.220 NA
ATOM      6  C   UNL d   1      30.789  18.624 -24.561  0.00  0.00     0.182 A 
ATOM      7  N   UNL d   1      30.948  16.181 -24.388  0.00  0.00    -0.239 NA
ATOM      8  C   UNL d   1      32.024  16.861 -24.014  0.00  0.00     0.037 A 
ATOM      9  C   UNL d   1      31.713  16.106 -24.096  0.00  0.00     0.083 A 
ATOM     10  O   UNL d   1      29.455  16.952 -24.985  0.00  0.00    -0.265 OA
ATOM     11  C   UNL d   1      32.788  16.963 -23.731  0.00  0.00     0.003 A 
ATOM     12  C   UNL d   1      32.166  15.453 -23.895  0.00  0.00     0.019 A 
ATOM     13  C   UNL d   1      33.241  16.310 -23.530  0.00  0.00     0.000 A 
ATOM     14  C   UNL d   1      32.921  15.553 -23.615  0.00  0.00     0.002 A 
ENDROOT
BRANCH   6  15
ATOM     15  S   UNL d   1      32.816  20.318 -23.876  0.00  0.00    -0.044 SA
BRANCH  15  16
ATOM     16  C   UNL d   1      32.681  20.974 -23.230  0.00  0.00     0.099 C 
BRANCH  16  17
ATOM     17  C   UNL d   1      32.904  20.798 -22.344  0.00  0.00     0.272 C 
ATOM     18  N   UNL d   1      32.836  21.463 -21.707  0.00  0.00    -0.267 N 
ATOM     19  C   UNL d   1      33.053  21.293 -20.843  0.00  0.00     0.110 A 
ATOM     20  C   UNL d   1      32.547  22.296 -21.963  0.00  0.00     0.110 A 
ATOM     21  C   UNL d   1      32.987  21.960 -20.198  0.00  0.00     0.142 A 
ATOM     22  O   UNL d   1      32.698  22.796 -20.442  0.00  0.00    -0.300 OA
ATOM     23  C   UNL d   1      32.475  22.971 -21.329  0.00  0.00     0.142 A 
ATOM     24  O   UNL d   1      33.195  19.960 -22.091  0.00  0.00    -0.266 OA
ENDBRANCH  16  17
ENDBRANCH  15  16
ENDBRANCH   6  15
BRANCH   3  25
ATOM     25  C   UNL d   1      29.370  18.652 -25.097  0.00  0.00     0.085 C 
ATOM     26  C   UNL d   1      28.645  18.768 -24.537  0.00  0.00     0.021 C 
ENDBRANCH   3  25
TORSDOF 4
ENDMDL
