MODEL 1
REMARK VINA RESULT:      -3.8      0.000      0.000
REMARK  9 active torsions:
REMARK  status: ('A' for Active; 'I' for Inactive)
REMARK    1  A    between atoms: N_2  and  C_1 
REMARK       I    between atoms: C_4  and  N_2 
REMARK    2  A    between atoms: C_7  and  C_4 
REMARK    3  A    between atoms: C_8  and  C_5 
REMARK    4  A    between atoms: C_10  and  C_8 
REMARK       I    between atoms: N_12  and  C_10 
REMARK    5  A    between atoms: C_11  and  C_19 
REMARK    6  A    between atoms: C_19  and  N_12 
REMARK    7  A    between atoms: O_23  and  C_17 
REMARK    8  A    between atoms: O_24  and  C_18 
REMARK    9  A    between atoms: O_22  and  C_20 
ROOT
ATOM      1  C   UNL d   1      33.171  19.879 -22.512  0.00  0.00     0.197 A 
ATOM      2  N   UNL d   1      33.013  19.666 -23.302  0.00  0.00    -0.220 NA
ATOM      3  C   UNL d   1      32.989  18.848 -23.348  0.00  0.00     0.095 A 
ATOM      4  S   UNL d   1      33.241  19.180 -22.083  0.00  0.00    -0.046 SA
ATOM      5  C   UNL d   1      33.129  18.545 -22.594  0.00  0.00     0.058 A 
ENDROOT
BRANCH   1   6
ATOM      6  N   UNL d   1      33.241  20.645 -22.229  0.00  0.00    -0.183 NA
ATOM      7  C   UNL d   1      32.783  20.906 -21.603  0.00  0.00     0.281 C 
ATOM      8  O   UNL d   1      32.237  20.395 -21.241  0.00  0.00    -0.265 OA
BRANCH   7   9
ATOM      9  C   UNL d   1      32.851  21.678 -21.315  0.00  0.00     0.062 A 
ATOM     10  C   UNL d   1      32.977  21.818 -20.525  0.00  0.00     0.029 A 
ATOM     11  C   UNL d   1      33.044  22.588 -20.246  0.00  0.00     0.096 A 
ATOM     12  C   UNL d   1      32.982  23.223 -20.772  0.00  0.00     0.048 A 
ATOM     13  C   UNL d   1      32.855  23.071 -21.567  0.00  0.00     0.096 A 
ATOM     14  C   UNL d   1      32.788  22.308 -21.852  0.00  0.00     0.029 A 
BRANCH  11  15
ATOM     15  O   UNL d   1      33.171  22.730 -19.448  0.00  0.00    -0.328 OA
ATOM     16  C   UNL d   1      32.835  23.399 -19.085  0.00  0.00     0.181 C 
ENDBRANCH  11  15
BRANCH  13  17
ATOM     17  O   UNL d   1      32.791  23.701 -22.106  0.00  0.00    -0.328 OA
ATOM     18  C   UNL d   1      32.230  23.674 -22.709  0.00  0.00     0.181 C 
ENDBRANCH  13  17
ENDBRANCH   7   9
ENDBRANCH   1   6
BRANCH   3  19
ATOM     19  C   UNL d   1      32.848  18.403 -24.029  0.00  0.00     0.082 C 
BRANCH  19  20
ATOM     20  C   UNL d   1      32.420  17.696 -23.981  0.00  0.00     0.281 C 
ATOM     21  N   UNL d   1      31.628  17.686 -24.198  0.00  0.00    -0.206 NA
ATOM     22  O   UNL d   1      32.794  17.014 -23.715  0.00  0.00    -0.265 OA
BRANCH  21  23
ATOM     23  C   UNL d   1      31.205  16.986 -24.150  0.00  0.00     0.104 C 
BRANCH  23  24
ATOM     24  C   UNL d   1      30.393  16.982 -24.303  0.00  0.00     0.042 A 
ATOM     25  C   UNL d   1      29.909  16.415 -23.943  0.00  0.00     0.096 A 
ATOM     26  C   UNL d   1      29.103  16.400 -24.086  0.00  0.00     0.024 A 
ATOM     27  C   UNL d   1      28.767  16.955 -24.594  0.00  0.00     0.002 A 
ATOM     28  C   UNL d   1      29.242  17.523 -24.956  0.00  0.00     0.000 A 
ATOM     29  C   UNL d   1      30.054  17.539 -24.812  0.00  0.00     0.004 A 
BRANCH  25  30
ATOM     30  O   UNL d   1      30.241  15.850 -23.428  0.00  0.00    -0.328 OA
ATOM     31  C   UNL d   1      29.769  15.454 -22.876  0.00  0.00     0.181 C 
ENDBRANCH  25  30
ENDBRANCH  23  24
ENDBRANCH  21  23
ENDBRANCH  19  20
ENDBRANCH   3  19
TORSDOF 9
ENDMDL
