MODEL 1
REMARK VINA RESULT:      -4.5      0.000      0.000
REMARK  6 active torsions:
REMARK  status: ('A' for Active; 'I' for Inactive)
REMARK       I    between atoms: C_2  and  N_1 
REMARK    1  A    between atoms: C_3  and  C_2 
REMARK    2  A    between atoms: C_12  and  C_4 
REMARK       I    between atoms: C_5  and  N_8 
REMARK    3  A    between atoms: C_6  and  C_5 
REMARK       I    between atoms: N_9  and  C_6 
REMARK    4  A    between atoms: N_8  and  C_12 
REMARK    5  A    between atoms: C_19  and  N_9 
REMARK    6  A    between atoms: C_21  and  C_19 
ROOT
ATOM      1  C   UNL d   1     -41.639-121.544 -51.294  0.00  0.00     0.337 C 
ATOM      2  N   UNL d   1     -41.515-121.830 -52.052  0.00  0.00    -0.199 NA
ATOM      3  O   UNL d   1     -41.195-120.907 -51.019  0.00  0.00    -0.260 OA
ENDROOT
BRANCH   2   4
ATOM      4  C   UNL d   1     -41.959-122.466 -52.327  0.00  0.00     0.146 C 
BRANCH   4   5
ATOM      5  C   UNL d   1     -41.697-122.895 -52.989  0.00  0.00     0.190 A 
ATOM      6  N   UNL d   1     -41.840-122.685 -53.772  0.00  0.00    -0.250 N 
ATOM      7  C   UNL d   1     -42.248-122.047 -54.112  0.00  0.00     0.272 C 
ATOM      8  C   UNL d   1     -41.481-123.262 -54.244  0.00  0.00     0.112 A 
ATOM      9  O   UNL d   1     -42.601-121.480 -53.626  0.00  0.00    -0.266 OA
ATOM     10  C   UNL d   1     -41.124-123.814 -53.754  0.00  0.00     0.144 A 
ATOM     11  O   UNL d   1     -41.264-123.578 -52.971  0.00  0.00    -0.285 OA
BRANCH   7  12
ATOM     12  C   UNL d   1     -42.303-121.978 -54.929  0.00  0.00     0.086 A 
ATOM     13  S   UNL d   1     -41.739-121.766 -55.500  0.00  0.00    -0.082 SA
ATOM     14  C   UNL d   1     -42.117-121.791 -56.246  0.00  0.00     0.036 A 
ATOM     15  C   UNL d   1     -42.902-122.015 -56.122  0.00  0.00     0.008 A 
ATOM     16  C   UNL d   1     -43.021-122.131 -55.316  0.00  0.00     0.012 A 
ENDBRANCH   7  12
ENDBRANCH   4   5
ENDBRANCH   2   4
BRANCH   1  17
ATOM     17  C   UNL d   1     -42.206-121.888 -50.801  0.00  0.00     0.337 C 
ATOM     18  N   UNL d   1     -41.979-122.384 -50.200  0.00  0.00    -0.202 NA
ATOM     19  O   UNL d   1     -43.003-121.726 -50.924  0.00  0.00    -0.260 OA
BRANCH  18  20
ATOM     20  C   UNL d   1     -42.547-122.730 -49.706  0.00  0.00     0.102 C 
BRANCH  20  21
ATOM     21  C   UNL d   1     -42.342-122.998 -48.960  0.00  0.00     0.019 A 
ATOM     22  C   UNL d   1     -41.564-123.005 -48.712  0.00  0.00     0.002 A 
ATOM     23  C   UNL d   1     -41.350-123.270 -47.973  0.00  0.00     0.011 A 
ATOM     24  C   UNL d   1     -41.943-123.542 -47.452  0.00  0.00     0.058 A 
ATOM     25  C   UNL d   1     -42.730-123.541 -47.687  0.00  0.00     0.011 A 
ATOM     26 CL   UNL d   1     -41.731-123.814 -46.693  0.00  0.00    -0.082 Cl
ATOM     27  C   UNL d   1     -42.935-123.270 -48.439  0.00  0.00     0.002 A 
ENDBRANCH  20  21
ENDBRANCH  18  20
ENDBRANCH   1  17
TORSDOF 6
ENDMDL
