MODEL 1
REMARK VINA RESULT:      46.2      0.000      0.000
REMARK  4 active torsions:
REMARK  status: ('A' for Active; 'I' for Inactive)
REMARK       I    between atoms: C_3  and  N_1 
REMARK    1  A    between atoms: C_5  and  N_2 
REMARK    2  A    between atoms: C_4  and  C_3 
REMARK    3  A    between atoms: C_7  and  C_4 
REMARK    4  A    between atoms: C_13  and  C_7 
ROOT
ATOM      1  N   UNL d   1      13.320  12.792  -3.829  0.00  0.00    -0.269 N 
ATOM      2  N   UNL d   1      13.815  12.379  -2.305  0.00  0.00    -0.301 N 
ATOM      3  C   UNL d   1      13.074  12.987  -4.586  0.00  0.00     0.265 C 
ATOM      4  C   UNL d   1      13.339  11.990  -3.594  0.00  0.00     0.102 A 
ATOM      5  C   UNL d   1      13.551  13.375  -3.295  0.00  0.00     0.102 A 
ATOM      6  C   UNL d   1      13.586  11.784  -2.831  0.00  0.00     0.100 A 
ATOM      7  C   UNL d   1      13.798  13.176  -2.534  0.00  0.00     0.100 A 
ATOM      8  O   UNL d   1      12.845  12.407  -5.117  0.00  0.00    -0.267 OA
ENDROOT
BRANCH   3   9
ATOM      9  C   UNL d   1      13.055  13.782  -4.821  0.00  0.00     0.061 C 
BRANCH   9  10
ATOM     10  C   UNL d   1      13.483  14.031  -5.484  0.00  0.00     0.005 C 
BRANCH  10  11
ATOM     11  C   UNL d   1      13.651  14.828  -5.587  0.00  0.00     0.000 A 
ATOM     12  C   UNL d   1      14.357  15.046  -5.944  0.00  0.00     0.002 A 
ATOM     13  C   UNL d   1      14.533  15.845  -6.051  0.00  0.00     0.030 A 
ATOM     14  C   UNL d   1      13.994  16.421  -5.794  0.00  0.00     0.140 A 
ATOM     15  C   UNL d   1      13.292  16.191  -5.438  0.00  0.00     0.030 A 
ATOM     16  F   UNL d   1      14.169  17.220  -5.900  0.00  0.00    -0.204 F 
ATOM     17  C   UNL d   1      13.123  15.394  -5.336  0.00  0.00     0.002 A 
ENDBRANCH  10  11
ENDBRANCH   9  10
ENDBRANCH   3   9
BRANCH   2  18
ATOM     18  C   UNL d   1      14.063  12.179  -1.541  0.00  0.00     0.065 A 
ATOM     19  C   UNL d   1      14.870  12.168  -1.361  0.00  0.00     0.029 A 
ATOM     20  C   UNL d   1      15.121  11.969  -0.602  0.00  0.00     0.059 A 
ATOM     21 CL   UNL d   1      15.927  11.960  -0.422  0.00  0.00    -0.082 Cl
ATOM     22  C   UNL d   1      14.566  11.779  -0.018  0.00  0.00     0.011 A 
ATOM     23  C   UNL d   1      13.758  11.791  -0.205  0.00  0.00     0.002 A 
ATOM     24  C   UNL d   1      13.506  11.991  -0.968  0.00  0.00     0.018 A 
ENDBRANCH   2  18
TORSDOF 4
ENDMDL
MODEL 2
REMARK VINA RESULT:      49.2      2.308      5.088
REMARK  4 active torsions:
REMARK  status: ('A' for Active; 'I' for Inactive)
REMARK       I    between atoms: C_3  and  N_1 
REMARK    1  A    between atoms: C_5  and  N_2 
REMARK    2  A    between atoms: C_4  and  C_3 
REMARK    3  A    between atoms: C_7  and  C_4 
REMARK    4  A    between atoms: C_13  and  C_7 
ROOT
ATOM      1  N   UNL d   1      13.316  13.371  -4.406  0.00  0.00    -0.269 N 
ATOM      2  N   UNL d   1      13.675  14.901  -4.924  0.00  0.00    -0.301 N 
ATOM      3  C   UNL d   1      13.140  12.609  -4.159  0.00  0.00     0.265 C 
ATOM      4  C   UNL d   1      13.534  13.508  -5.202  0.00  0.00     0.102 A 
ATOM      5  C   UNL d   1      13.282  14.005  -3.882  0.00  0.00     0.102 A 
ATOM      6  C   UNL d   1      13.713  14.274  -5.460  0.00  0.00     0.100 A 
ATOM      7  C   UNL d   1      13.460  14.770  -4.134  0.00  0.00     0.100 A 
ATOM      8  O   UNL d   1      13.174  11.979  -4.681  0.00  0.00    -0.267 OA
ENDROOT
BRANCH   3   9
ATOM      9  C   UNL d   1      12.924  12.472  -3.371  0.00  0.00     0.061 C 
BRANCH   9  10
ATOM     10  C   UNL d   1      13.170  11.783  -2.985  0.00  0.00     0.005 C 
BRANCH  10  11
ATOM     11  C   UNL d   1      13.522  11.831  -2.245  0.00  0.00     0.000 A 
ATOM     12  C   UNL d   1      13.049  11.932  -1.581  0.00  0.00     0.002 A 
ATOM     13  C   UNL d   1      13.396  11.981  -0.835  0.00  0.00     0.030 A 
ATOM     14  C   UNL d   1      14.222  11.928  -0.762  0.00  0.00     0.140 A 
ATOM     15  C   UNL d   1      14.683  11.828  -1.432  0.00  0.00     0.030 A 
ATOM     16  F   UNL d   1      14.569  11.978  -0.016  0.00  0.00    -0.204 F 
ATOM     17  C   UNL d   1      14.331  11.779  -2.172  0.00  0.00     0.002 A 
ENDBRANCH  10  11
ENDBRANCH   9  10
ENDBRANCH   3   9
BRANCH   2  18
ATOM     18  C   UNL d   1      13.854  15.669  -5.177  0.00  0.00     0.065 A 
ATOM     19  C   UNL d   1      14.577  16.012  -4.969  0.00  0.00     0.029 A 
ATOM     20  C   UNL d   1      14.758  16.776  -5.219  0.00  0.00     0.059 A 
ATOM     21 CL   UNL d   1      15.481  17.118  -5.012  0.00  0.00    -0.082 Cl
ATOM     22  C   UNL d   1      14.217  17.201  -5.678  0.00  0.00     0.011 A 
ATOM     23  C   UNL d   1      13.493  16.852  -5.883  0.00  0.00     0.002 A 
ATOM     24  C   UNL d   1      13.311  16.084  -5.632  0.00  0.00     0.018 A 
ENDBRANCH   2  18
TORSDOF 4
ENDMDL
