MODEL 1
REMARK VINA RESULT:      -3.7      0.000      0.000
REMARK  4 active torsions:
REMARK  status: ('A' for Active; 'I' for Inactive)
REMARK    1  A    between atoms: N_7  and  C_6 
REMARK       I    between atoms: C_8  and  N_7 
REMARK    2  A    between atoms: C_14  and  C_8 
REMARK    3  A    between atoms: C_16  and  C_14 
REMARK    4  A    between atoms: C_17  and  C_16 
ROOT
ATOM      1  C   UNL d   1     -42.985-122.267 -50.394  0.00  0.00     0.269 A 
ATOM      2  N   UNL d   1     -43.394-122.337 -49.669  0.00  0.00    -0.239 N 
ATOM      3  C   UNL d   1     -42.325-122.762 -50.344  0.00  0.00     0.079 A 
ATOM      4  C   UNL d   1     -42.991-122.859 -49.199  0.00  0.00     0.267 A 
ATOM      5  C   UNL d   1     -42.329-123.128 -49.605  0.00  0.00     0.063 A 
ATOM      6  C   UNL d   1     -41.725-122.922 -50.881  0.00  0.00     0.089 A 
ATOM      7  O   UNL d   1     -43.194-121.797 -51.036  0.00  0.00    -0.267 OA
ATOM      8  O   UNL d   1     -43.215-123.087 -48.422  0.00  0.00    -0.267 OA
ATOM      9  C   UNL d   1     -44.089-121.941 -49.470  0.00  0.00     0.105 C 
ATOM     10  C   UNL d   1     -41.732-123.654 -49.402  0.00  0.00     0.005 A 
ATOM     11  C   UNL d   1     -41.124-123.451 -50.679  0.00  0.00     0.019 A 
ATOM     12  C   UNL d   1     -41.127-123.817 -49.940  0.00  0.00     0.002 A 
ENDROOT
BRANCH   6  13
ATOM     13  N   UNL d   1     -41.721-122.556 -51.620  0.00  0.00    -0.208 NA
ATOM     14  C   UNL d   1     -41.428-122.960 -52.274  0.00  0.00     0.279 C 
ATOM     15  O   UNL d   1     -41.138-123.727 -52.197  0.00  0.00    -0.265 OA
BRANCH  14  16
ATOM     16  C   UNL d   1     -41.424-122.594 -53.014  0.00  0.00     0.062 C 
BRANCH  16  17
ATOM     17  C   UNL d   1     -41.614-123.028 -53.689  0.00  0.00     0.005 C 
BRANCH  17  18
ATOM     18  C   UNL d   1     -41.761-122.638 -54.401  0.00  0.00     0.000 A 
ATOM     19  C   UNL d   1     -42.520-122.330 -54.554  0.00  0.00     0.000 A 
ATOM     20  C   UNL d   1     -42.668-121.940 -55.265  0.00  0.00     0.000 A 
ATOM     21  C   UNL d   1     -42.056-121.859 -55.825  0.00  0.00     0.000 A 
ATOM     22  C   UNL d   1     -41.318-122.164 -55.668  0.00  0.00     0.000 A 
ATOM     23  C   UNL d   1     -41.171-122.553 -54.956  0.00  0.00     0.000 A 
ENDBRANCH  17  18
ENDBRANCH  16  17
ENDBRANCH  14  16
ENDBRANCH   6  13
TORSDOF 4
ENDMDL
MODEL 2
REMARK VINA RESULT:      -3.6      1.418      4.805
REMARK  4 active torsions:
REMARK  status: ('A' for Active; 'I' for Inactive)
REMARK    1  A    between atoms: N_7  and  C_6 
REMARK       I    between atoms: C_8  and  N_7 
REMARK    2  A    between atoms: C_14  and  C_8 
REMARK    3  A    between atoms: C_16  and  C_14 
REMARK    4  A    between atoms: C_17  and  C_16 
ROOT
ATOM      1  C   UNL d   1     -42.366-121.714 -53.938  0.00  0.00     0.269 A 
ATOM      2  N   UNL d   1     -42.526-121.539 -54.739  0.00  0.00    -0.239 N 
ATOM      3  C   UNL d   1     -41.940-122.422 -53.930  0.00  0.00     0.079 A 
ATOM      4  C   UNL d   1     -42.206-122.125 -55.197  0.00  0.00     0.267 A 
ATOM      5  C   UNL d   1     -41.841-122.676 -54.709  0.00  0.00     0.063 A 
ATOM      6  C   UNL d   1     -41.632-122.863 -53.309  0.00  0.00     0.089 A 
ATOM      7  O   UNL d   1     -42.587-121.271 -53.281  0.00  0.00    -0.267 OA
ATOM      8  O   UNL d   1     -42.241-122.162 -56.035  0.00  0.00    -0.267 OA
ATOM      9  C   UNL d   1     -42.942-120.881 -55.012  0.00  0.00     0.105 C 
ATOM     10  C   UNL d   1     -41.433-123.371 -54.866  0.00  0.00     0.005 A 
ATOM     11  C   UNL d   1     -41.222-123.562 -53.466  0.00  0.00     0.019 A 
ATOM     12  C   UNL d   1     -41.123-123.816 -54.245  0.00  0.00     0.002 A 
ENDROOT
BRANCH   6  13
ATOM     13  N   UNL d   1     -41.731-122.609 -52.531  0.00  0.00    -0.208 NA
ATOM     14  C   UNL d   1     -41.479-123.087 -51.910  0.00  0.00     0.279 C 
ATOM     15  O   UNL d   1     -41.129-123.817 -52.060  0.00  0.00    -0.265 OA
BRANCH  14  16
ATOM     16  C   UNL d   1     -41.578-122.833 -51.131  0.00  0.00     0.062 C 
BRANCH  16  17
ATOM     17  C   UNL d   1     -41.554-123.379 -50.513  0.00  0.00     0.005 C 
BRANCH  17  18
ATOM     18  C   UNL d   1     -41.874-123.184 -49.778  0.00  0.00     0.000 A 
ATOM     19  C   UNL d   1     -41.379-122.881 -49.180  0.00  0.00     0.000 A 
ATOM     20  C   UNL d   1     -41.699-122.686 -48.445  0.00  0.00     0.000 A 
ATOM     21  C   UNL d   1     -42.514-122.795 -48.308  0.00  0.00     0.000 A 
ATOM     22  C   UNL d   1     -42.989-123.092 -48.899  0.00  0.00     0.000 A 
ATOM     23  C   UNL d   1     -42.669-123.287 -49.634  0.00  0.00     0.000 A 
ENDBRANCH  17  18
ENDBRANCH  16  17
ENDBRANCH  14  16
ENDBRANCH   6  13
TORSDOF 4
ENDMDL
MODEL 3
REMARK VINA RESULT:      -0.7      1.571      4.903
REMARK  4 active torsions:
REMARK  status: ('A' for Active; 'I' for Inactive)
REMARK    1  A    between atoms: N_7  and  C_6 
REMARK       I    between atoms: C_8  and  N_7 
REMARK    2  A    between atoms: C_14  and  C_8 
REMARK    3  A    between atoms: C_16  and  C_14 
REMARK    4  A    between atoms: C_17  and  C_16 
ROOT
ATOM      1  C   UNL d   1     -41.263-121.590 -52.204  0.00  0.00     0.269 A 
ATOM      2  N   UNL d   1     -41.366-121.122 -52.887  0.00  0.00    -0.239 N 
ATOM      3  C   UNL d   1     -41.324-122.379 -52.445  0.00  0.00     0.079 A 
ATOM      4  C   UNL d   1     -41.485-121.614 -53.519  0.00  0.00     0.267 A 
ATOM      5  C   UNL d   1     -41.462-122.393 -53.258  0.00  0.00     0.063 A 
ATOM      6  C   UNL d   1     -41.271-123.081 -52.022  0.00  0.00     0.089 A 
ATOM      7  O   UNL d   1     -41.127-121.325 -51.437  0.00  0.00    -0.267 OA
ATOM      8  O   UNL d   1     -41.612-121.367 -54.311  0.00  0.00    -0.267 OA
ATOM      9  C   UNL d   1     -41.348-120.297 -52.910  0.00  0.00     0.105 C 
ATOM     10  C   UNL d   1     -41.546-123.110 -53.649  0.00  0.00     0.005 A 
ATOM     11  C   UNL d   1     -41.356-123.803 -52.414  0.00  0.00     0.019 A 
ATOM     12  C   UNL d   1     -41.493-123.817 -53.228  0.00  0.00     0.002 A 
ENDROOT
BRANCH   6  13
ATOM     13  N   UNL d   1     -41.134-123.067 -51.209  0.00  0.00    -0.208 NA
ATOM     14  C   UNL d   1     -41.666-123.433 -50.699  0.00  0.00     0.279 C 
ATOM     15  O   UNL d   1     -42.334-123.814 -50.993  0.00  0.00    -0.265 OA
BRANCH  14  16
ATOM     16  C   UNL d   1     -41.529-123.419 -49.886  0.00  0.00     0.062 C 
BRANCH  16  17
ATOM     17  C   UNL d   1     -42.160-123.317 -49.363  0.00  0.00     0.005 C 
BRANCH  17  18
ATOM     18  C   UNL d   1     -42.034-123.377 -48.550  0.00  0.00     0.000 A 
ATOM     19  C   UNL d   1     -41.263-123.496 -48.258  0.00  0.00     0.000 A 
ATOM     20  C   UNL d   1     -41.137-123.556 -47.445  0.00  0.00     0.000 A 
ATOM     21  C   UNL d   1     -41.784-123.496 -46.923  0.00  0.00     0.000 A 
ATOM     22  C   UNL d   1     -42.534-123.379 -47.217  0.00  0.00     0.000 A 
ATOM     23  C   UNL d   1     -42.659-123.320 -48.030  0.00  0.00     0.000 A 
ENDBRANCH  17  18
ENDBRANCH  16  17
ENDBRANCH  14  16
ENDBRANCH   6  13
TORSDOF 4
ENDMDL
