MODEL 1
REMARK VINA RESULT:      -6.7      0.000      0.000
REMARK  4 active torsions:
REMARK  status: ('A' for Active; 'I' for Inactive)
REMARK    1  A    between atoms: C_7  and  C_2 
REMARK    2  A    between atoms: O_8  and  C_7 
REMARK    3  A    between atoms: C_9  and  O_8 
REMARK    4  A    between atoms: O_11  and  C_10 
ROOT
ATOM      1  C   UNL d   1     -47.795  13.850  22.655  0.00  0.00     0.161 C 
ENDROOT
BRANCH   1   2
ATOM      2  C   UNL d   1     -48.445  14.318  22.839  0.00  0.00     0.188 A 
ATOM      3  N   UNL d   1     -49.142  14.042  22.463  0.00  0.00    -0.224 NA
ATOM      4  C   UNL d   1     -49.763  14.549  22.683  0.00  0.00     0.101 A 
ATOM      5  C   UNL d   1     -49.460  15.131  23.187  0.00  0.00     0.101 A 
ATOM      6  C   UNL d   1     -50.560  14.542  22.481  0.00  0.00     0.021 A 
ATOM      7  C   UNL d   1     -49.971  15.711  23.487  0.00  0.00     0.021 A 
ATOM      8  N   UNL d   1     -48.649  14.991  23.284  0.00  0.00    -0.224 NA
ATOM      9  C   UNL d   1     -50.767  15.705  23.286  0.00  0.00     0.002 A 
ATOM     10  C   UNL d   1     -51.062  15.119  22.781  0.00  0.00     0.002 A 
ENDBRANCH   1   2
BRANCH   1  11
ATOM     11  O   UNL d   1     -47.163  13.804  23.168  0.00  0.00    -0.302 OA
BRANCH  11  12
ATOM     12  C   UNL d   1     -46.551  13.267  23.028  0.00  0.00     0.102 A 
ATOM     13  C   UNL d   1     -46.539  12.553  23.434  0.00  0.00     0.049 A 
ATOM     14  C   UNL d   1     -45.926  12.017  23.294  0.00  0.00     0.096 A 
ATOM     15  C   UNL d   1     -45.334  12.203  22.750  0.00  0.00     0.024 A 
ATOM     16  C   UNL d   1     -45.353  12.926  22.344  0.00  0.00     0.004 A 
ATOM     17  C   UNL d   1     -45.968  13.451  22.492  0.00  0.00     0.025 A 
BRANCH  14  18
ATOM     18  O   UNL d   1     -45.907  11.298  23.697  0.00  0.00    -0.328 OA
ATOM     19  C   UNL d   1     -45.282  10.772  23.566  0.00  0.00     0.181 C 
ENDBRANCH  14  18
ENDBRANCH  11  12
ENDBRANCH   1  11
TORSDOF 4
ENDMDL
MODEL 2
REMARK VINA RESULT:      -6.1      1.389      4.664
REMARK  4 active torsions:
REMARK  status: ('A' for Active; 'I' for Inactive)
REMARK    1  A    between atoms: C_7  and  C_2 
REMARK    2  A    between atoms: O_8  and  C_7 
REMARK    3  A    between atoms: C_9  and  O_8 
REMARK    4  A    between atoms: O_11  and  C_10 
ROOT
ATOM      1  C   UNL d   1     -48.095  14.187  23.167  0.00  0.00     0.161 C 
ENDROOT
BRANCH   1   2
ATOM      2  C   UNL d   1     -47.365  13.871  22.962  0.00  0.00     0.188 A 
ATOM      3  N   UNL d   1     -47.257  13.105  23.286  0.00  0.00    -0.224 NA
ATOM      4  C   UNL d   1     -46.507  12.835  23.048  0.00  0.00     0.101 A 
ATOM      5  C   UNL d   1     -46.153  13.423  22.584  0.00  0.00     0.101 A 
ATOM      6  C   UNL d   1     -46.115  12.130  23.202  0.00  0.00     0.021 A 
ATOM      7  C   UNL d   1     -45.395  13.291  22.275  0.00  0.00     0.021 A 
ATOM      8  N   UNL d   1     -46.679  14.060  22.531  0.00  0.00    -0.224 NA
ATOM      9  C   UNL d   1     -45.003  12.586  22.429  0.00  0.00     0.002 A 
ATOM     10  C   UNL d   1     -45.364  12.003  22.893  0.00  0.00     0.002 A 
ENDBRANCH   1   2
BRANCH   1  11
ATOM     11  O   UNL d   1     -48.437  14.767  22.708  0.00  0.00    -0.302 OA
BRANCH  11  12
ATOM     12  C   UNL d   1     -49.250  14.905  22.746  0.00  0.00     0.102 A 
ATOM     13  C   UNL d   1     -49.746  14.554  22.194  0.00  0.00     0.049 A 
ATOM     14  C   UNL d   1     -50.560  14.693  22.233  0.00  0.00     0.096 A 
ATOM     15  C   UNL d   1     -50.865  15.182  22.824  0.00  0.00     0.024 A 
ATOM     16  C   UNL d   1     -50.357  15.533  23.378  0.00  0.00     0.004 A 
ATOM     17  C   UNL d   1     -49.550  15.387  23.329  0.00  0.00     0.025 A 
BRANCH  14  18
ATOM     18  O   UNL d   1     -51.064  14.344  21.683  0.00  0.00    -0.328 OA
ATOM     19  C   UNL d   1     -51.062  13.522  21.589  0.00  0.00     0.181 C 
ENDBRANCH  14  18
ENDBRANCH  11  12
ENDBRANCH   1  11
TORSDOF 4
ENDMDL
MODEL 3
REMARK VINA RESULT:      -5.3      9.045      9.746
REMARK  4 active torsions:
REMARK  status: ('A' for Active; 'I' for Inactive)
REMARK    1  A    between atoms: C_7  and  C_2 
REMARK    2  A    between atoms: O_8  and  C_7 
REMARK    3  A    between atoms: C_9  and  O_8 
REMARK    4  A    between atoms: O_11  and  C_10 
ROOT
ATOM      1  C   UNL d   1     -39.458  14.691  19.747  0.00  0.00     0.161 C 
ENDROOT
BRANCH   1   2
ATOM      2  C   UNL d   1     -39.301  14.475  20.524  0.00  0.00     0.188 A 
ATOM      3  N   UNL d   1     -39.190  15.147  21.015  0.00  0.00    -0.224 NA
ATOM      4  C   UNL d   1     -39.035  14.873  21.784  0.00  0.00     0.101 A 
ATOM      5  C   UNL d   1     -39.049  14.045  21.774  0.00  0.00     0.101 A 
ATOM      6  C   UNL d   1     -38.885  15.281  22.481  0.00  0.00     0.021 A 
ATOM      7  C   UNL d   1     -38.910  13.631  22.479  0.00  0.00     0.021 A 
ATOM      8  N   UNL d   1     -39.213  13.799  21.000  0.00  0.00    -0.224 NA
ATOM      9  C   UNL d   1     -38.760  14.038  23.176  0.00  0.00     0.002 A 
ATOM     10  C   UNL d   1     -38.748  14.866  23.177  0.00  0.00     0.002 A 
ENDBRANCH   1   2
BRANCH   1  11
ATOM     11  O   UNL d   1     -39.753  14.143  19.220  0.00  0.00    -0.302 OA
BRANCH  11  12
ATOM     12  C   UNL d   1     -39.836  14.335  18.421  0.00  0.00     0.102 A 
ATOM     13  C   UNL d   1     -40.553  14.628  18.148  0.00  0.00     0.049 A 
ATOM     14  C   UNL d   1     -40.636  14.820  17.348  0.00  0.00     0.096 A 
ATOM     15  C   UNL d   1     -39.999  14.716  16.833  0.00  0.00     0.024 A 
ATOM     16  C   UNL d   1     -39.278  14.420  17.116  0.00  0.00     0.004 A 
ATOM     17  C   UNL d   1     -39.209  14.232  17.914  0.00  0.00     0.025 A 
BRANCH  14  18
ATOM     18  O   UNL d   1     -41.352  15.114  17.067  0.00  0.00    -0.328 OA
ATOM     19  C   UNL d   1     -41.379  15.866  16.723  0.00  0.00     0.181 C 
ENDBRANCH  14  18
ENDBRANCH  11  12
ENDBRANCH   1  11
TORSDOF 4
ENDMDL
MODEL 4
REMARK VINA RESULT:      -4.9      8.698      9.128
REMARK  4 active torsions:
REMARK  status: ('A' for Active; 'I' for Inactive)
REMARK    1  A    between atoms: C_7  and  C_2 
REMARK    2  A    between atoms: O_8  and  C_7 
REMARK    3  A    between atoms: C_9  and  O_8 
REMARK    4  A    between atoms: O_11  and  C_10 
ROOT
ATOM      1  C   UNL d   1     -39.575  15.266  20.083  0.00  0.00     0.161 C 
ENDROOT
BRANCH   1   2
ATOM      2  C   UNL d   1     -39.972  15.400  19.375  0.00  0.00     0.188 A 
ATOM      3  N   UNL d   1     -39.611  14.991  18.737  0.00  0.00    -0.224 NA
ATOM      4  C   UNL d   1     -40.049  15.161  18.051  0.00  0.00     0.101 A 
ATOM      5  C   UNL d   1     -40.672  15.666  18.257  0.00  0.00     0.101 A 
ATOM      6  C   UNL d   1     -39.949  14.913  17.274  0.00  0.00     0.021 A 
ATOM      7  C   UNL d   1     -41.197  15.920  17.668  0.00  0.00     0.021 A 
ATOM      8  N   UNL d   1     -40.626  15.813  19.071  0.00  0.00    -0.224 NA
ATOM      9  C   UNL d   1     -41.097  15.673  16.891  0.00  0.00     0.002 A 
ATOM     10  C   UNL d   1     -40.472  15.168  16.694  0.00  0.00     0.002 A 
ENDBRANCH   1   2
BRANCH   1  11
ATOM     11  O   UNL d   1     -39.994  15.153  20.774  0.00  0.00    -0.302 OA
BRANCH  11  12
ATOM     12  C   UNL d   1     -39.597  15.015  21.484  0.00  0.00     0.102 A 
ATOM     13  C   UNL d   1     -39.413  14.244  21.701  0.00  0.00     0.049 A 
ATOM     14  C   UNL d   1     -39.016  14.106  22.412  0.00  0.00     0.096 A 
ATOM     15  C   UNL d   1     -38.808  14.742  22.897  0.00  0.00     0.024 A 
ATOM     16  C   UNL d   1     -38.997  15.517  22.671  0.00  0.00     0.004 A 
ATOM     17  C   UNL d   1     -39.393  15.641  21.961  0.00  0.00     0.025 A 
BRANCH  14  18
ATOM     18  O   UNL d   1     -38.828  13.336  22.637  0.00  0.00    -0.328 OA
ATOM     19  C   UNL d   1     -38.036  13.097  22.656  0.00  0.00     0.181 C 
ENDBRANCH  14  18
ENDBRANCH  11  12
ENDBRANCH   1  11
TORSDOF 4
ENDMDL
MODEL 5
REMARK VINA RESULT:      -4.7      2.003      2.317
REMARK  4 active torsions:
REMARK  status: ('A' for Active; 'I' for Inactive)
REMARK    1  A    between atoms: C_7  and  C_2 
REMARK    2  A    between atoms: O_8  and  C_7 
REMARK    3  A    between atoms: C_9  and  O_8 
REMARK    4  A    between atoms: O_11  and  C_10 
ROOT
ATOM      1  C   UNL d   1     -47.582  11.445  23.105  0.00  0.00     0.161 C 
ENDROOT
BRANCH   1   2
ATOM      2  C   UNL d   1     -48.389  11.582  23.184  0.00  0.00     0.188 A 
ATOM      3  N   UNL d   1     -48.679  12.081  22.574  0.00  0.00    -0.224 NA
ATOM      4  C   UNL d   1     -49.493  12.185  22.702  0.00  0.00     0.101 A 
ATOM      5  C   UNL d   1     -49.709  11.759  23.379  0.00  0.00     0.101 A 
ATOM      6  C   UNL d   1     -50.053  12.616  22.282  0.00  0.00     0.021 A 
ATOM      7  C   UNL d   1     -50.499  11.771  23.628  0.00  0.00     0.021 A 
ATOM      8  N   UNL d   1     -49.030  11.388  23.675  0.00  0.00    -0.224 NA
ATOM      9  C   UNL d   1     -51.059  12.201  23.209  0.00  0.00     0.002 A 
ATOM     10  C   UNL d   1     -50.835  12.625  22.533  0.00  0.00     0.002 A 
ENDBRANCH   1   2
BRANCH   1  11
ATOM     11  O   UNL d   1     -47.048  12.044  23.249  0.00  0.00    -0.302 OA
BRANCH  11  12
ATOM     12  C   UNL d   1     -46.239  11.917  23.139  0.00  0.00     0.102 A 
ATOM     13  C   UNL d   1     -45.889  11.243  23.451  0.00  0.00     0.049 A 
ATOM     14  C   UNL d   1     -45.080  11.117  23.340  0.00  0.00     0.096 A 
ATOM     15  C   UNL d   1     -44.633  11.667  22.918  0.00  0.00     0.024 A 
ATOM     16  C   UNL d   1     -44.994  12.346  22.605  0.00  0.00     0.004 A 
ATOM     17  C   UNL d   1     -45.799  12.460  22.723  0.00  0.00     0.025 A 
BRANCH  14  18
ATOM     18  O   UNL d   1     -44.721  10.443  23.650  0.00  0.00    -0.328 OA
ATOM     19  C   UNL d   1     -43.964  10.227  23.394  0.00  0.00     0.181 C 
ENDBRANCH  14  18
ENDBRANCH  11  12
ENDBRANCH   1  11
TORSDOF 4
ENDMDL
MODEL 6
REMARK VINA RESULT:      -3.9      1.925      5.035
REMARK  4 active torsions:
REMARK  status: ('A' for Active; 'I' for Inactive)
REMARK    1  A    between atoms: C_7  and  C_2 
REMARK    2  A    between atoms: O_8  and  C_7 
REMARK    3  A    between atoms: C_9  and  O_8 
REMARK    4  A    between atoms: O_11  and  C_10 
ROOT
ATOM      1  C   UNL d   1     -46.534  12.797  22.378  0.00  0.00     0.161 C 
ENDROOT
BRANCH   1   2
ATOM      2  C   UNL d   1     -45.739  12.588  22.360  0.00  0.00     0.188 A 
ATOM      3  N   UNL d   1     -45.313  13.042  21.798  0.00  0.00    -0.224 NA
ATOM      4  C   UNL d   1     -44.521  12.791  21.821  0.00  0.00     0.101 A 
ATOM      5  C   UNL d   1     -44.453  12.191  22.388  0.00  0.00     0.101 A 
ATOM      6  C   UNL d   1     -43.864  13.040  21.394  0.00  0.00     0.021 A 
ATOM      7  C   UNL d   1     -43.713  11.843  22.521  0.00  0.00     0.021 A 
ATOM      8  N   UNL d   1     -45.202  12.065  22.720  0.00  0.00    -0.224 NA
ATOM      9  C   UNL d   1     -43.056  12.091  22.094  0.00  0.00     0.002 A 
ATOM     10  C   UNL d   1     -43.132  12.692  21.530  0.00  0.00     0.002 A 
ENDBRANCH   1   2
BRANCH   1  11
ATOM     11  O   UNL d   1     -46.919  12.886  23.091  0.00  0.00    -0.302 OA
BRANCH  11  12
ATOM     12  C   UNL d   1     -47.728  13.049  23.111  0.00  0.00     0.102 A 
ATOM     13  C   UNL d   1     -47.997  13.791  22.882  0.00  0.00     0.049 A 
ATOM     14  C   UNL d   1     -48.807  13.953  22.902  0.00  0.00     0.096 A 
ATOM     15  C   UNL d   1     -49.337  13.371  23.150  0.00  0.00     0.024 A 
ATOM     16  C   UNL d   1     -49.058  12.624  23.379  0.00  0.00     0.004 A 
ATOM     17  C   UNL d   1     -48.249  12.475  23.355  0.00  0.00     0.025 A 
BRANCH  14  18
ATOM     18  O   UNL d   1     -49.085  14.695  22.674  0.00  0.00    -0.328 OA
ATOM     19  C   UNL d   1     -49.603  15.108  23.170  0.00  0.00     0.181 C 
ENDBRANCH  14  18
ENDBRANCH  11  12
ENDBRANCH   1  11
TORSDOF 4
ENDMDL
