MODEL 1
REMARK VINA RESULT:      56.9      0.000      0.000
REMARK  4 active torsions:
REMARK  status: ('A' for Active; 'I' for Inactive)
REMARK    1  A    between atoms: C_2  and  S_1 
REMARK    2  A    between atoms: N_3  and  S_1 
REMARK    3  A    between atoms: C_14  and  N_3 
REMARK       I    between atoms: C_7  and  N_8 
REMARK    4  A    between atoms: N_8  and  C_15 
ROOT
ATOM      1  S   UNL d   1     -55.671-100.197 -44.443  0.00  0.00     0.285 S 
ATOM      2  O   UNL d   1     -55.406 -99.443 -44.210  0.00  0.00    -0.198 OA
ATOM      3  O   UNL d   1     -55.925-100.952 -44.673  0.00  0.00    -0.198 OA
ENDROOT
BRANCH   1   4
ATOM      4  C   UNL d   1     -56.416 -99.862 -44.642  0.00  0.00     0.105 A 
ATOM      5  C   UNL d   1     -56.988 -99.748 -44.083  0.00  0.00     0.013 A 
ATOM      6  C   UNL d   1     -57.715 -99.418 -44.288  0.00  0.00     0.001 A 
ATOM      7  C   UNL d   1     -58.299 -99.310 -43.681  0.00  0.00     0.000 A 
ATOM      8  C   UNL d   1     -57.877 -99.199 -45.055  0.00  0.00     0.000 A 
ATOM      9  C   UNL d   1     -59.032 -98.984 -43.856  0.00  0.00     0.000 A 
ATOM     10  C   UNL d   1     -59.198 -98.756 -44.659  0.00  0.00     0.000 A 
ATOM     11  C   UNL d   1     -58.616 -98.867 -45.251  0.00  0.00     0.000 A 
ATOM     12  C   UNL d   1     -57.278 -99.315 -45.653  0.00  0.00     0.001 A 
ATOM     13  C   UNL d   1     -56.561 -99.645 -45.427  0.00  0.00     0.013 A 
ENDBRANCH   1   4
BRANCH   1  14
ATOM     14  N   UNL d   1     -54.930-100.519 -44.243  0.00  0.00    -0.158 NA
BRANCH  14  15
ATOM     15  C   UNL d   1     -54.874-101.016 -43.591  0.00  0.00     0.094 A 
ATOM     16  C   UNL d   1     -54.927-101.823 -43.736  0.00  0.00     0.021 A 
ATOM     17  C   UNL d   1     -54.872-102.354 -43.088  0.00  0.00     0.021 A 
ATOM     18  C   UNL d   1     -54.768-102.053 -42.326  0.00  0.00     0.085 A 
ATOM     19  C   UNL d   1     -54.719-101.237 -42.214  0.00  0.00     0.021 A 
ATOM     20  C   UNL d   1     -54.772-100.721 -42.844  0.00  0.00     0.021 A 
BRANCH  18  21
ATOM     21  N   UNL d   1     -54.713-102.592 -41.672  0.00  0.00    -0.208 NA
ATOM     22  C   UNL d   1     -54.949-102.343 -40.896  0.00  0.00     0.279 C 
ATOM     23  O   UNL d   1     -55.235-101.575 -40.764  0.00  0.00    -0.265 OA
ATOM     24  C   UNL d   1     -54.888-102.873 -40.288  0.00  0.00     0.068 C 
ENDBRANCH  18  21
ENDBRANCH  14  15
ENDBRANCH   1  14
TORSDOF 4
ENDMDL
