MODEL 1
REMARK VINA RESULT:      -2.9      0.000      0.000
REMARK  3 active torsions:
REMARK  status: ('A' for Active; 'I' for Inactive)
REMARK    1  A    between atoms: C_6  and  C_1 
REMARK    2  A    between atoms: N_7  and  C_2 
REMARK    3  A    between atoms: C_9  and  C_5 
REMARK       I    between atoms: N_8  and  C_6 
ROOT
ATOM      1  C   UNL d   1      58.843  -1.030  29.324  0.00  0.00     0.106 A 
ATOM      2  C   UNL d   1      59.059  -2.396  29.000  0.00  0.00     0.180 A 
ATOM      3  N   UNL d   1      59.769  -2.015  28.930  0.00  0.00    -0.222 NA
ATOM      4  S   UNL d   1      58.508  -1.843  29.228  0.00  0.00    -0.044 SA
ATOM      5  C   UNL d   1      59.662  -1.237  29.111  0.00  0.00     0.094 A 
ENDROOT
BRANCH   1   6
ATOM      6  C   UNL d   1      58.365  -0.395  29.554  0.00  0.00     0.272 C 
ATOM      7  N   UNL d   1      57.950  -0.423  30.278  0.00  0.00    -0.272 N 
ATOM      8  C   UNL d   1      57.749  -0.826  30.981  0.00  0.00     0.083 A 
ATOM      9  C   UNL d   1      57.641   0.325  30.122  0.00  0.00     0.083 A 
ATOM     10  C   UNL d   1      57.238  -0.475  31.525  0.00  0.00     0.019 A 
ATOM     11  C   UNL d   1      56.921   0.282  31.374  0.00  0.00     0.003 A 
ATOM     12  C   UNL d   1      57.122   0.680  30.674  0.00  0.00     0.019 A 
ATOM     13  O   UNL d   1      58.292   0.272  29.073  0.00  0.00    -0.266 OA
ENDBRANCH   1   6
BRANCH   5  14
ATOM     14  C   UNL d   1      60.159  -0.588  29.140  0.00  0.00     0.018 A 
ATOM     15  C   UNL d   1      60.228  -0.095  28.514  0.00  0.00     0.002 A 
ATOM     16  C   UNL d   1      60.709   0.532  28.545  0.00  0.00     0.000 A 
ATOM     17  C   UNL d   1      61.133   0.681  29.207  0.00  0.00     0.000 A 
ATOM     18  C   UNL d   1      61.076   0.197  29.847  0.00  0.00     0.000 A 
ATOM     19  C   UNL d   1      60.586  -0.437  29.805  0.00  0.00     0.002 A 
ENDBRANCH   5  14
BRANCH   2  20
ATOM     20  N   UNL d   1      59.143  -3.166  28.825  0.00  0.00    -0.280 N 
ATOM     21  C   UNL d   1      58.475  -3.641  28.696  0.00  0.00     0.109 A 
ATOM     22  C   UNL d   1      58.563  -4.437  28.515  0.00  0.00     0.142 A 
ATOM     23  O   UNL d   1      59.319  -4.768  28.461  0.00  0.00    -0.300 OA
ATOM     24  C   UNL d   1      59.994  -4.297  28.589  0.00  0.00     0.142 A 
ATOM     25  C   UNL d   1      59.906  -3.496  28.771  0.00  0.00     0.109 A 
ENDBRANCH   2  20
TORSDOF 3
ENDMDL
MODEL 2
REMARK VINA RESULT:      -2.0      1.270      3.736
REMARK  3 active torsions:
REMARK  status: ('A' for Active; 'I' for Inactive)
REMARK    1  A    between atoms: C_6  and  C_1 
REMARK    2  A    between atoms: N_7  and  C_2 
REMARK    3  A    between atoms: C_9  and  C_5 
REMARK       I    between atoms: N_8  and  C_6 
ROOT
ATOM      1  C   UNL d   1      58.401  -1.082  29.792  0.00  0.00     0.106 A 
ATOM      2  C   UNL d   1      57.647  -0.599  30.895  0.00  0.00     0.180 A 
ATOM      3  N   UNL d   1      58.174  -0.021  30.690  0.00  0.00    -0.222 NA
ATOM      4  S   UNL d   1      57.762  -1.223  30.387  0.00  0.00    -0.044 SA
ATOM      5  C   UNL d   1      58.610  -0.280  30.064  0.00  0.00     0.094 A 
ENDROOT
BRANCH   1   6
ATOM      6  C   UNL d   1      58.597  -1.655  29.229  0.00  0.00     0.272 C 
ATOM      7  N   UNL d   1      59.098  -2.290  29.434  0.00  0.00    -0.272 N 
ATOM      8  C   UNL d   1      59.563  -2.690  30.000  0.00  0.00     0.083 A 
ATOM      9  C   UNL d   1      59.032  -2.582  28.666  0.00  0.00     0.083 A 
ATOM     10  C   UNL d   1      59.961  -3.383  29.793  0.00  0.00     0.019 A 
ATOM     11  C   UNL d   1      59.899  -3.684  29.016  0.00  0.00     0.003 A 
ATOM     12  C   UNL d   1      59.436  -3.284  28.456  0.00  0.00     0.019 A 
ATOM     13  O   UNL d   1      58.300  -1.608  28.460  0.00  0.00    -0.266 OA
ENDBRANCH   1   6
BRANCH   5  14
ATOM     14  C   UNL d   1      59.214   0.045  29.620  0.00  0.00     0.018 A 
ATOM     15  C   UNL d   1      59.079   0.323  28.883  0.00  0.00     0.002 A 
ATOM     16  C   UNL d   1      59.666   0.637  28.455  0.00  0.00     0.000 A 
ATOM     17  C   UNL d   1      60.405   0.680  28.758  0.00  0.00     0.000 A 
ATOM     18  C   UNL d   1      60.561   0.405  29.498  0.00  0.00     0.000 A 
ATOM     19  C   UNL d   1      59.958   0.088  29.923  0.00  0.00     0.002 A 
ENDBRANCH   5  14
BRANCH   2  20
ATOM     20  N   UNL d   1      57.207  -0.362  31.512  0.00  0.00    -0.280 N 
ATOM     21  C   UNL d   1      57.249   0.423  31.779  0.00  0.00     0.109 A 
ATOM     22  C   UNL d   1      56.794   0.668  32.416  0.00  0.00     0.142 A 
ATOM     23  O   UNL d   1      56.291   0.132  32.795  0.00  0.00    -0.300 OA
ATOM     24  C   UNL d   1      56.243  -0.657  32.533  0.00  0.00     0.142 A 
ATOM     25  C   UNL d   1      56.701  -0.904  31.891  0.00  0.00     0.109 A 
ENDBRANCH   2  20
TORSDOF 3
ENDMDL
