MODEL 1
REMARK VINA RESULT:      47.2      0.000      0.000
REMARK  4 active torsions:
REMARK  status: ('A' for Active; 'I' for Inactive)
REMARK    1  A    between atoms: C_5  and  N_1 
REMARK    2  A    between atoms: C_9  and  C_3 
REMARK    3  A    between atoms: C_7  and  C_4 
REMARK    4  A    between atoms: N_10  and  C_5 
ROOT
ATOM      1  N   UNL d   1     -57.870 -98.915 -44.591  0.00  0.00    -0.203 N 
ATOM      2  N   UNL d   1     -57.905 -98.910 -45.418  0.00  0.00    -0.163 NA
ATOM      3  C   UNL d   1     -58.673 -98.857 -45.661  0.00  0.00     0.103 A 
ATOM      4  C   UNL d   1     -58.649 -98.863 -44.297  0.00  0.00     0.087 A 
ATOM      5  C   UNL d   1     -59.152 -98.827 -44.954  0.00  0.00     0.040 A 
ENDROOT
BRANCH   4   6
ATOM      6  C   UNL d   1     -58.907 -98.849 -43.511  0.00  0.00     0.018 A 
ATOM      7  C   UNL d   1     -59.703 -98.776 -43.328  0.00  0.00     0.002 A 
ATOM      8  C   UNL d   1     -59.957 -98.761 -42.545  0.00  0.00     0.007 A 
ATOM      9  C   UNL d   1     -59.406 -98.821 -41.938  0.00  0.00     0.035 A 
ATOM     10  C   UNL d   1     -58.624 -98.892 -42.104  0.00  0.00     0.007 A 
ATOM     11 BR   UNL d   1     -59.687 -98.804 -41.147  0.00  0.00    -0.049 Br
ATOM     12  C   UNL d   1     -58.367 -98.907 -42.890  0.00  0.00     0.002 A 
ENDBRANCH   4   6
BRANCH   1  13
ATOM     13  C   UNL d   1     -57.173 -98.964 -44.119  0.00  0.00     0.222 C 
ATOM     14  S   UNL d   1     -57.232 -98.834 -43.285  0.00  0.00    -0.037 SA
BRANCH  13  15
ATOM     15  N   UNL d   1     -56.419 -99.139 -44.461  0.00  0.00    -0.214 NA
ATOM     16  C   UNL d   1     -55.726 -98.826 -44.124  0.00  0.00     0.122 C 
ENDBRANCH  13  15
ENDBRANCH   1  13
BRANCH   3  17
ATOM     17  C   UNL d   1     -58.925 -98.837 -46.455  0.00  0.00     0.019 A 
ATOM     18  C   UNL d   1     -59.725 -98.779 -46.643  0.00  0.00     0.002 A 
ATOM     19  C   UNL d   1     -59.958 -98.760 -47.445  0.00  0.00     0.000 A 
ATOM     20  C   UNL d   1     -59.394 -98.801 -48.037  0.00  0.00     0.000 A 
ATOM     21  C   UNL d   1     -58.598 -98.859 -47.830  0.00  0.00     0.000 A 
ATOM     22  C   UNL d   1     -58.366 -98.878 -47.055  0.00  0.00     0.002 A 
ENDBRANCH   3  17
TORSDOF 4
ENDMDL
