MODEL 1
REMARK VINA RESULT:      32.5      0.000      0.000
REMARK  6 active torsions:
REMARK  status: ('A' for Active; 'I' for Inactive)
REMARK    1  A    between atoms: C_7  and  S_1 
REMARK    2  A    between atoms: N_11  and  S_1 
REMARK    3  A    between atoms: C_5  and  C_2 
REMARK    4  A    between atoms: C_6  and  C_15 
REMARK    5  A    between atoms: C_18  and  N_11 
REMARK    6  A    between atoms: C_15  and  C_18 
ROOT
ATOM      1  C   UNL d   1      14.781  13.314  -0.043  0.00  0.00     0.041 C 
ENDROOT
BRANCH   1   2
ATOM      2  C   UNL d   1      14.575  12.839  -0.691  0.00  0.00     0.090 A 
ATOM      3  N   UNL d   1      14.209  13.108  -1.386  0.00  0.00    -0.238 NA
ATOM      4  C   UNL d   1      14.107  12.451  -1.883  0.00  0.00     0.112 A 
ATOM      5  S   UNL d   1      14.407  11.781  -1.499  0.00  0.00    -0.066 SA
ATOM      6  C   UNL d   1      14.698  12.025  -0.757  0.00  0.00     0.056 A 
BRANCH   4   7
ATOM      7  C   UNL d   1      13.760  12.456  -2.644  0.00  0.00     0.043 A 
ATOM      8  C   UNL d   1      13.963  13.043  -3.185  0.00  0.00     0.101 A 
ATOM      9  N   UNL d   1      13.625  13.048  -3.927  0.00  0.00    -0.242 NA
ATOM     10  C   UNL d   1      13.082  12.466  -4.132  0.00  0.00     0.099 A 
ATOM     11  C   UNL d   1      12.877  11.868  -3.577  0.00  0.00     0.021 A 
ATOM     12  C   UNL d   1      13.217  11.865  -2.833  0.00  0.00     0.005 A 
ENDBRANCH   4   7
ENDBRANCH   1   2
BRANCH   1  13
ATOM     13  C   UNL d   1      15.174  14.029  -0.154  0.00  0.00     0.114 C 
BRANCH  13  14
ATOM     14  N   UNL d   1      14.769  14.754  -0.014  0.00  0.00    -0.157 NA
BRANCH  14  15
ATOM     15  S   UNL d   1      14.902  15.397  -0.519  0.00  0.00     0.285 S 
ATOM     16  O   UNL d   1      14.193  15.219  -0.922  0.00  0.00    -0.198 OA
ATOM     17  O   UNL d   1      15.609  15.576  -0.119  0.00  0.00    -0.198 OA
BRANCH  15  18
ATOM     18  C   UNL d   1      15.027  16.036  -1.027  0.00  0.00     0.105 A 
ATOM     19  C   UNL d   1      14.771  15.983  -1.807  0.00  0.00     0.015 A 
ATOM     20  C   UNL d   1      14.896  16.627  -2.322  0.00  0.00     0.030 A 
ATOM     21  C   UNL d   1      15.271  17.302  -2.052  0.00  0.00     0.140 A 
ATOM     22  C   UNL d   1      15.524  17.347  -1.274  0.00  0.00     0.030 A 
ATOM     23  F   UNL d   1      15.396  17.942  -2.561  0.00  0.00    -0.204 F 
ATOM     24  C   UNL d   1      15.409  16.722  -0.752  0.00  0.00     0.015 A 
ENDBRANCH  15  18
ENDBRANCH  14  15
ENDBRANCH  13  14
ENDBRANCH   1  13
TORSDOF 6
ENDMDL
