MODEL 1
REMARK VINA RESULT:      -2.4      0.000      0.000
REMARK  3 active torsions:
REMARK  status: ('A' for Active; 'I' for Inactive)
REMARK    1  A    between atoms: N_2  and  S_1 
REMARK    2  A    between atoms: C_3  and  S_1 
REMARK    3  A    between atoms: O_17  and  C_11 
ROOT
ATOM      1  S   UNL d   1      31.142  16.739 -24.191  0.00  0.00     0.274 S 
ATOM      2  O   UNL d   1      31.074  16.368 -23.435  0.00  0.00    -0.199 OA
ATOM      3  O   UNL d   1      31.190  17.095 -24.949  0.00  0.00    -0.199 OA
ENDROOT
BRANCH   1   4
ATOM      4  N   UNL d   1      30.470  16.317 -24.447  0.00  0.00    -0.212 N 
ATOM      5  C   UNL d   1      30.492  15.728 -25.009  0.00  0.00     0.193 A 
ATOM      6  N   UNL d   1      29.683  15.453 -25.097  0.00  0.00    -0.223 NA
ATOM      7  C   UNL d   1      29.210  15.883 -24.588  0.00  0.00     0.100 A 
ATOM      8  C   UNL d   1      29.706  16.433 -24.173  0.00  0.00     0.094 A 
ATOM      9  C   UNL d   1      28.399  15.864 -24.432  0.00  0.00     0.021 A 
ATOM     10  C   UNL d   1      29.367  16.941 -23.620  0.00  0.00     0.020 A 
ATOM     11  C   UNL d   1      28.556  16.915 -23.470  0.00  0.00     0.002 A 
ATOM     12  C   UNL d   1      28.065  16.388 -23.865  0.00  0.00     0.002 A 
ENDBRANCH   1   4
BRANCH   1  13
ATOM     13  C   UNL d   1      31.840  17.174 -23.918  0.00  0.00     0.127 A 
ATOM     14  C   UNL d   1      31.780  17.974 -23.801  0.00  0.00     0.026 A 
ATOM     15  C   UNL d   1      32.474  18.376 -23.535  0.00  0.00     0.059 A 
ATOM     16 CL   UNL d   1      32.417  19.210 -23.411  0.00  0.00    -0.082 Cl
ATOM     17  C   UNL d   1      33.177  17.972 -23.402  0.00  0.00     0.013 A 
ATOM     18  C   UNL d   1      33.206  17.144 -23.533  0.00  0.00     0.026 A 
ATOM     19  C   UNL d   1      32.534  16.750 -23.791  0.00  0.00     0.106 A 
BRANCH  19  20
ATOM     20  O   UNL d   1      32.590  15.916 -23.915  0.00  0.00    -0.327 OA
ATOM     21  C   UNL d   1      33.235  15.484 -23.683  0.00  0.00     0.181 C 
ENDBRANCH  19  20
ENDBRANCH   1  13
TORSDOF 3
ENDMDL
MODEL 2
REMARK VINA RESULT:      -1.7      2.187      4.061
REMARK  3 active torsions:
REMARK  status: ('A' for Active; 'I' for Inactive)
REMARK    1  A    between atoms: N_2  and  S_1 
REMARK    2  A    between atoms: C_3  and  S_1 
REMARK    3  A    between atoms: O_17  and  C_11 
ROOT
ATOM      1  S   UNL d   1      32.485  18.245 -23.866  0.00  0.00     0.274 S 
ATOM      2  O   UNL d   1      33.217  18.105 -24.263  0.00  0.00    -0.199 OA
ATOM      3  O   UNL d   1      31.763  18.408 -23.469  0.00  0.00    -0.199 OA
ENDROOT
BRANCH   1   4
ATOM      4  N   UNL d   1      32.690  19.049 -23.794  0.00  0.00    -0.212 N 
ATOM      5  C   UNL d   1      32.755  19.559 -24.427  0.00  0.00     0.193 A 
ATOM      6  N   UNL d   1      32.975  20.321 -24.097  0.00  0.00    -0.223 NA
ATOM      7  C   UNL d   1      33.034  20.241 -23.286  0.00  0.00     0.100 A 
ATOM      8  C   UNL d   1      32.854  19.435 -23.089  0.00  0.00     0.094 A 
ATOM      9  C   UNL d   1      33.225  20.776 -22.687  0.00  0.00     0.021 A 
ATOM     10  C   UNL d   1      32.873  19.201 -22.300  0.00  0.00     0.020 A 
ATOM     11  C   UNL d   1      33.065  19.742 -21.707  0.00  0.00     0.002 A 
ATOM     12  C   UNL d   1      33.241  20.525 -21.884  0.00  0.00     0.002 A 
ENDBRANCH   1   4
BRANCH   1  13
ATOM     13  C   UNL d   1      32.277  17.407 -23.944  0.00  0.00     0.127 A 
ATOM     14  C   UNL d   1      32.809  16.849 -23.695  0.00  0.00     0.026 A 
ATOM     15  C   UNL d   1      32.585  16.039 -23.782  0.00  0.00     0.059 A 
ATOM     16 CL   UNL d   1      33.135  15.453 -23.524  0.00  0.00    -0.082 Cl
ATOM     17  C   UNL d   1      31.859  15.829 -24.105  0.00  0.00     0.013 A 
ATOM     18  C   UNL d   1      31.330  16.431 -24.354  0.00  0.00     0.026 A 
ATOM     19  C   UNL d   1      31.546  17.219 -24.271  0.00  0.00     0.106 A 
BRANCH  19  20
ATOM     20  O   UNL d   1      30.995  17.806 -24.529  0.00  0.00    -0.327 OA
ATOM     21  C   UNL d   1      30.263  17.618 -24.821  0.00  0.00     0.181 C 
ENDBRANCH  19  20
ENDBRANCH   1  13
TORSDOF 3
ENDMDL
MODEL 3
REMARK VINA RESULT:      -1.4      1.360      1.949
REMARK  3 active torsions:
REMARK  status: ('A' for Active; 'I' for Inactive)
REMARK    1  A    between atoms: N_2  and  S_1 
REMARK    2  A    between atoms: C_3  and  S_1 
REMARK    3  A    between atoms: O_17  and  C_11 
ROOT
ATOM      1  S   UNL d   1      32.201  17.728 -24.171  0.00  0.00     0.274 S 
ATOM      2  O   UNL d   1      32.694  17.619 -24.848  0.00  0.00    -0.199 OA
ATOM      3  O   UNL d   1      31.702  17.814 -23.502  0.00  0.00    -0.199 OA
ENDROOT
BRANCH   1   4
ATOM      4  N   UNL d   1      31.867  16.977 -24.307  0.00  0.00    -0.212 N 
ATOM      5  C   UNL d   1      32.305  16.296 -24.397  0.00  0.00     0.193 A 
ATOM      6  N   UNL d   1      31.738  15.663 -24.524  0.00  0.00    -0.223 NA
ATOM      7  C   UNL d   1      30.988  15.985 -24.507  0.00  0.00     0.100 A 
ATOM      8  C   UNL d   1      31.065  16.819 -24.369  0.00  0.00     0.094 A 
ATOM      9  C   UNL d   1      30.237  15.652 -24.594  0.00  0.00     0.021 A 
ATOM     10  C   UNL d   1      30.385  17.283 -24.325  0.00  0.00     0.020 A 
ATOM     11  C   UNL d   1      29.640  16.942 -24.414  0.00  0.00     0.002 A 
ATOM     12  C   UNL d   1      29.551  16.137 -24.548  0.00  0.00     0.002 A 
ENDBRANCH   1   4
BRANCH   1  13
ATOM     13  C   UNL d   1      32.553  18.508 -24.036  0.00  0.00     0.127 A 
ATOM     14  C   UNL d   1      32.527  19.057 -24.632  0.00  0.00     0.026 A 
ATOM     15  C   UNL d   1      32.877  19.809 -24.477  0.00  0.00     0.059 A 
ATOM     16 CL   UNL d   1      32.853  20.385 -25.095  0.00  0.00    -0.082 Cl
ATOM     17  C   UNL d   1      33.227  19.977 -23.752  0.00  0.00     0.013 A 
ATOM     18  C   UNL d   1      33.237  19.388 -23.155  0.00  0.00     0.026 A 
ATOM     19  C   UNL d   1      32.898  18.655 -23.303  0.00  0.00     0.106 A 
BRANCH  19  20
ATOM     20  O   UNL d   1      32.922  18.079 -22.685  0.00  0.00    -0.327 OA
ATOM     21  C   UNL d   1      33.212  18.244 -21.947  0.00  0.00     0.181 C 
ENDBRANCH  19  20
ENDBRANCH   1  13
TORSDOF 3
ENDMDL
MODEL 4
REMARK VINA RESULT:      -1.3      1.590      3.662
REMARK  3 active torsions:
REMARK  status: ('A' for Active; 'I' for Inactive)
REMARK    1  A    between atoms: N_2  and  S_1 
REMARK    2  A    between atoms: C_3  and  S_1 
REMARK    3  A    between atoms: O_17  and  C_11 
ROOT
ATOM      1  S   UNL d   1      30.546  16.619 -24.094  0.00  0.00     0.274 S 
ATOM      2  O   UNL d   1      30.783  16.751 -23.294  0.00  0.00    -0.199 OA
ATOM      3  O   UNL d   1      30.334  16.489 -24.896  0.00  0.00    -0.199 OA
ENDROOT
BRANCH   1   4
ATOM      4  N   UNL d   1      31.343  16.687 -24.330  0.00  0.00    -0.212 N 
ATOM      5  C   UNL d   1      31.714  16.160 -24.830  0.00  0.00     0.193 A 
ATOM      6  N   UNL d   1      32.520  16.443 -24.918  0.00  0.00    -0.223 NA
ATOM      7  C   UNL d   1      32.602  17.123 -24.472  0.00  0.00     0.100 A 
ATOM      8  C   UNL d   1      31.857  17.281 -24.097  0.00  0.00     0.094 A 
ATOM      9  C   UNL d   1      33.241  17.630 -24.344  0.00  0.00     0.021 A 
ATOM     10  C   UNL d   1      31.785  17.941 -23.609  0.00  0.00     0.020 A 
ATOM     11  C   UNL d   1      32.428  18.443 -23.487  0.00  0.00     0.002 A 
ATOM     12  C   UNL d   1      33.155  18.301 -23.844  0.00  0.00     0.002 A 
ENDBRANCH   1   4
BRANCH   1  13
ATOM     13  C   UNL d   1      29.720  16.550 -23.842  0.00  0.00     0.127 A 
ATOM     14  C   UNL d   1      29.538  16.036 -23.242  0.00  0.00     0.026 A 
ATOM     15  C   UNL d   1      28.726  15.987 -23.014  0.00  0.00     0.059 A 
ATOM     16 CL   UNL d   1      28.529  15.453 -22.389  0.00  0.00    -0.082 Cl
ATOM     17  C   UNL d   1      28.149  16.439 -23.384  0.00  0.00     0.013 A 
ATOM     18  C   UNL d   1      28.371  16.962 -24.002  0.00  0.00     0.026 A 
ATOM     19  C   UNL d   1      29.159  17.013 -24.227  0.00  0.00     0.106 A 
BRANCH  19  20
ATOM     20  O   UNL d   1      29.356  17.546 -24.851  0.00  0.00    -0.327 OA
ATOM     21  C   UNL d   1      28.855  18.134 -25.097  0.00  0.00     0.181 C 
ENDBRANCH  19  20
ENDBRANCH   1  13
TORSDOF 3
ENDMDL
MODEL 5
REMARK VINA RESULT:      -1.2      1.699      3.560
REMARK  3 active torsions:
REMARK  status: ('A' for Active; 'I' for Inactive)
REMARK    1  A    between atoms: N_2  and  S_1 
REMARK    2  A    between atoms: C_3  and  S_1 
REMARK    3  A    between atoms: O_17  and  C_11 
ROOT
ATOM      1  S   UNL d   1      30.735  16.123 -24.062  0.00  0.00     0.274 S 
ATOM      2  O   UNL d   1      30.717  16.753 -23.498  0.00  0.00    -0.199 OA
ATOM      3  O   UNL d   1      30.776  15.502 -24.625  0.00  0.00    -0.199 OA
ENDROOT
BRANCH   1   4
ATOM      4  N   UNL d   1      31.552  16.251 -24.163  0.00  0.00    -0.212 N 
ATOM      5  C   UNL d   1      32.117  15.672 -24.065  0.00  0.00     0.193 A 
ATOM      6  N   UNL d   1      32.873  16.047 -24.224  0.00  0.00    -0.223 NA
ATOM      7  C   UNL d   1      32.735  16.831 -24.410  0.00  0.00     0.100 A 
ATOM      8  C   UNL d   1      31.898  16.965 -24.373  0.00  0.00     0.094 A 
ATOM      9  C   UNL d   1      33.240  17.453 -24.609  0.00  0.00     0.021 A 
ATOM     10  C   UNL d   1      31.603  17.716 -24.537  0.00  0.00     0.020 A 
ATOM     11  C   UNL d   1      32.115  18.332 -24.736  0.00  0.00     0.002 A 
ATOM     12  C   UNL d   1      32.928  18.216 -24.775  0.00  0.00     0.002 A 
ENDBRANCH   1   4
BRANCH   1  13
ATOM     13  C   UNL d   1      29.885  15.996 -23.951  0.00  0.00     0.127 A 
ATOM     14  C   UNL d   1      29.386  16.125 -24.577  0.00  0.00     0.026 A 
ATOM     15  C   UNL d   1      28.562  15.994 -24.444  0.00  0.00     0.059 A 
ATOM     16 CL   UNL d   1      28.038  16.126 -25.093  0.00  0.00    -0.082 Cl
ATOM     17  C   UNL d   1      28.281  15.748 -23.713  0.00  0.00     0.013 A 
ATOM     18  C   UNL d   1      28.823  15.624 -23.085  0.00  0.00     0.026 A 
ATOM     19  C   UNL d   1      29.625  15.750 -23.210  0.00  0.00     0.106 A 
BRANCH  19  20
ATOM     20  O   UNL d   1      30.149  15.617 -22.561  0.00  0.00    -0.327 OA
ATOM     21  C   UNL d   1      29.885  15.453 -21.813  0.00  0.00     0.181 C 
ENDBRANCH  19  20
ENDBRANCH   1  13
TORSDOF 3
ENDMDL
