MODEL 1
REMARK VINA RESULT:      42.5      0.000      0.000
REMARK  4 active torsions:
REMARK  status: ('A' for Active; 'I' for Inactive)
REMARK    1  A    between atoms: C_7  and  N_1 
REMARK    2  A    between atoms: C_6  and  C_2 
REMARK    3  A    between atoms: C_17  and  C_6 
REMARK    4  A    between atoms: C_8  and  C_7 
ROOT
ATOM      1  N   UNL d   1     -47.283  31.531  34.612  0.00  0.00    -0.303 N 
ATOM      2  C   UNL d   1     -47.404  30.589  35.569  0.00  0.00     0.057 A 
ATOM      3  C   UNL d   1     -47.587  30.767  34.792  0.00  0.00     0.067 A 
ATOM      4  C   UNL d   1     -46.988  31.231  35.881  0.00  0.00     0.022 A 
ATOM      5  C   UNL d   1     -46.924  31.807  35.269  0.00  0.00     0.064 A 
ATOM      6  C   UNL d   1     -48.005  30.268  34.274  0.00  0.00     0.019 C 
ATOM      7  C   UNL d   1     -46.544  32.542  35.351  0.00  0.00     0.019 C 
ENDROOT
BRANCH   1   8
ATOM      8  C   UNL d   1     -47.345  31.920  33.894  0.00  0.00     0.105 C 
BRANCH   8   9
ATOM      9  C   UNL d   1     -47.913  32.533  33.789  0.00  0.00     0.118 A 
ATOM     10  O   UNL d   1     -48.667  32.645  34.073  0.00  0.00    -0.304 OA
ATOM     11  C   UNL d   1     -48.920  33.359  33.760  0.00  0.00     0.123 A 
ATOM     12  C   UNL d   1     -48.366  33.685  33.306  0.00  0.00     0.029 A 
ATOM     13  C   UNL d   1     -47.713  33.170  33.312  0.00  0.00     0.028 A 
ENDBRANCH   8   9
ENDBRANCH   1   8
BRANCH   2  14
ATOM     14  C   UNL d   1     -47.593  29.917  35.954  0.00  0.00     0.208 C 
ATOM     15  O   UNL d   1     -47.767  29.938  36.751  0.00  0.00    -0.286 OA
BRANCH  14  16
ATOM     16  C   UNL d   1     -47.615  29.196  35.559  0.00  0.00     0.110 C 
ATOM     17 CL   UNL d   1     -48.116  28.572  35.824  0.00  0.00    -0.078 Cl
ENDBRANCH  14  16
ENDBRANCH   2  14
TORSDOF 4
ENDMDL
MODEL 2
REMARK VINA RESULT:      43.1      1.572      3.423
REMARK  4 active torsions:
REMARK  status: ('A' for Active; 'I' for Inactive)
REMARK    1  A    between atoms: C_7  and  N_1 
REMARK    2  A    between atoms: C_6  and  C_2 
REMARK    3  A    between atoms: C_17  and  C_6 
REMARK    4  A    between atoms: C_8  and  C_7 
ROOT
ATOM      1  N   UNL d   1     -47.161  31.287  34.794  0.00  0.00    -0.303 N 
ATOM      2  C   UNL d   1     -47.617  32.441  34.270  0.00  0.00     0.057 A 
ATOM      3  C   UNL d   1     -47.546  31.639  34.133  0.00  0.00     0.067 A 
ATOM      4  C   UNL d   1     -47.282  32.600  35.008  0.00  0.00     0.022 A 
ATOM      5  C   UNL d   1     -47.004  31.868  35.318  0.00  0.00     0.064 A 
ATOM      6  C   UNL d   1     -47.813  31.245  33.451  0.00  0.00     0.019 C 
ATOM      7  C   UNL d   1     -46.627  31.779  36.054  0.00  0.00     0.019 C 
ENDROOT
BRANCH   1   8
ATOM      8  C   UNL d   1     -46.980  30.493  34.883  0.00  0.00     0.105 C 
BRANCH   8   9
ATOM      9  C   UNL d   1     -47.395  30.022  35.444  0.00  0.00     0.118 A 
ATOM     10  O   UNL d   1     -47.669  30.168  36.196  0.00  0.00    -0.304 OA
ATOM     11  C   UNL d   1     -48.029  29.473  36.442  0.00  0.00     0.123 A 
ATOM     12  C   UNL d   1     -47.988  28.918  35.885  0.00  0.00     0.029 A 
ATOM     13  C   UNL d   1     -47.586  29.251  35.239  0.00  0.00     0.028 A 
ENDBRANCH   8   9
ENDBRANCH   1   8
BRANCH   2  14
ATOM     14  C   UNL d   1     -47.950  32.974  33.778  0.00  0.00     0.208 C 
ATOM     15  O   UNL d   1     -47.479  33.455  33.317  0.00  0.00    -0.286 OA
BRANCH  14  16
ATOM     16  C   UNL d   1     -48.768  33.048  33.728  0.00  0.00     0.110 C 
ATOM     17 CL   UNL d   1     -49.119  33.688  33.306  0.00  0.00    -0.078 Cl
ENDBRANCH  14  16
ENDBRANCH   2  14
TORSDOF 4
ENDMDL
