MODEL 1
REMARK VINA RESULT:      61.6      0.000      0.000
REMARK  1 active torsions:
REMARK  status: ('A' for Active; 'I' for Inactive)
REMARK       I    between atoms: N_3  and  C_1 
REMARK       I    between atoms: N_5  and  C_1 
REMARK       I    between atoms: C_2  and  N_4 
REMARK    1  A    between atoms: C_6  and  C_2 
ROOT
ATOM      1  C   UNL d   1      14.371  15.368  -3.710  0.00  0.00     0.340 C 
ATOM      2  C   UNL d   1      13.777  12.396  -2.398  0.00  0.00     0.265 C 
ATOM      3  N   UNL d   1      14.321  14.604  -3.401  0.00  0.00    -0.254 N 
ATOM      4  N   UNL d   1      13.943  13.153  -2.728  0.00  0.00    -0.269 N 
ATOM      5  N   UNL d   1      14.219  15.503  -4.510  0.00  0.00    -0.253 N 
ATOM      6  O   UNL d   1      14.575  15.998  -3.211  0.00  0.00    -0.245 OA
ATOM      7  C   UNL d   1      14.445  14.472  -2.595  0.00  0.00     0.104 A 
ATOM      8  C   UNL d   1      14.021  13.989  -3.874  0.00  0.00     0.104 A 
ATOM      9  C   UNL d   1      14.244  13.735  -2.244  0.00  0.00     0.102 A 
ATOM     10  C   UNL d   1      13.835  13.258  -3.540  0.00  0.00     0.102 A 
ATOM     11  O   UNL d   1      13.478  11.788  -2.874  0.00  0.00    -0.267 OA
ATOM     12  O   UNL d   1      13.634  15.821  -6.041  0.00  0.00    -0.300 OA
ATOM     13  C   UNL d   1      13.734  14.914  -4.938  0.00  0.00     0.111 C 
ATOM     14  C   UNL d   1      13.988  16.309  -4.749  0.00  0.00     0.111 C 
ATOM     15  C   UNL d   1      13.837  16.447  -5.545  0.00  0.00     0.142 C 
ATOM     16  C   UNL d   1      13.582  15.054  -5.739  0.00  0.00     0.142 C 
ENDROOT
BRANCH   2  17
ATOM     17  C   UNL d   1      13.894  12.266  -1.590  0.00  0.00     0.057 C 
ATOM     18  C   UNL d   1      14.670  12.118  -1.315  0.00  0.00     0.011 C 
ATOM     19  C   UNL d   1      14.795  11.951  -0.509  0.00  0.00     0.035 C 
ATOM     20 BR   UNL d   1      15.570  11.955  -0.204  0.00  0.00    -0.049 Br
ATOM     21  C   UNL d   1      14.153  11.782  -0.018  0.00  0.00     0.007 C 
ATOM     22  C   UNL d   1      13.383  11.780  -0.331  0.00  0.00     0.001 C 
ATOM     23  C   UNL d   1      13.260  11.946  -1.133  0.00  0.00     0.005 C 
ENDBRANCH   2  17
TORSDOF 1
ENDMDL
MODEL 2
REMARK VINA RESULT:      64.2      2.002      3.197
REMARK  1 active torsions:
REMARK  status: ('A' for Active; 'I' for Inactive)
REMARK       I    between atoms: N_3  and  C_1 
REMARK       I    between atoms: N_5  and  C_1 
REMARK       I    between atoms: C_2  and  N_4 
REMARK    1  A    between atoms: C_6  and  C_2 
ROOT
ATOM      1  C   UNL d   1      13.314  12.508  -3.640  0.00  0.00     0.340 C 
ATOM      2  C   UNL d   1      14.524  15.254  -2.263  0.00  0.00     0.265 C 
ATOM      3  N   UNL d   1      13.521  13.211  -3.262  0.00  0.00    -0.254 N 
ATOM      4  N   UNL d   1      14.205  14.553  -2.603  0.00  0.00    -0.269 N 
ATOM      5  N   UNL d   1      13.061  12.518  -4.426  0.00  0.00    -0.253 N 
ATOM      6  O   UNL d   1      13.361  11.791  -3.226  0.00  0.00    -0.245 OA
ATOM      7  C   UNL d   1      13.802  13.199  -2.485  0.00  0.00     0.104 A 
ATOM      8  C   UNL d   1      13.570  13.915  -3.702  0.00  0.00     0.104 A 
ATOM      9  C   UNL d   1      14.161  13.880  -2.147  0.00  0.00     0.102 A 
ATOM     10  C   UNL d   1      13.908  14.592  -3.373  0.00  0.00     0.102 A 
ATOM     11  O   UNL d   1      14.570  15.951  -2.707  0.00  0.00    -0.267 OA
ATOM     12  O   UNL d   1      12.833  12.498  -6.079  0.00  0.00    -0.300 OA
ATOM     13  C   UNL d   1      13.293  13.201  -4.920  0.00  0.00     0.111 C 
ATOM     14  C   UNL d   1      13.133  11.779  -4.884  0.00  0.00     0.111 C 
ATOM     15  C   UNL d   1      12.880  11.786  -5.667  0.00  0.00     0.142 C 
ATOM     16  C   UNL d   1      13.039  13.206  -5.708  0.00  0.00     0.142 C 
ENDROOT
BRANCH   2  17
ATOM     17  C   UNL d   1      14.812  15.241  -1.488  0.00  0.00     0.057 C 
ATOM     18  C   UNL d   1      15.162  15.935  -1.178  0.00  0.00     0.011 C 
ATOM     19  C   UNL d   1      15.487  15.923  -0.412  0.00  0.00     0.035 C 
ATOM     20 BR   UNL d   1      15.696  16.640  -0.044  0.00  0.00    -0.049 Br
ATOM     21  C   UNL d   1      15.600  15.204  -0.022  0.00  0.00     0.007 C 
ATOM     22  C   UNL d   1      15.388  14.494  -0.397  0.00  0.00     0.001 C 
ATOM     23  C   UNL d   1      15.065  14.506  -1.159  0.00  0.00     0.005 C 
ENDBRANCH   2  17
TORSDOF 1
ENDMDL
