MODEL 1
REMARK VINA RESULT:      63.1      0.000      0.000
REMARK  4 active torsions:
REMARK  status: ('A' for Active; 'I' for Inactive)
REMARK    1  A    between atoms: S_11  and  C_7 
REMARK    2  A    between atoms: C_17  and  C_10 
REMARK    3  A    between atoms: C_16  and  S_11 
REMARK    4  A    between atoms: C_20  and  C_17 
ROOT
ATOM      1  N   UNL d   1     -51.309  24.084  33.553  0.00  0.00    -0.224 N 
ATOM      2  N   UNL d   1     -52.446  24.961  33.574  0.00  0.00    -0.241 N 
ATOM      3  C   UNL d   1     -52.134  24.199  33.596  0.00  0.00     0.343 A 
ATOM      4  C   UNL d   1     -51.933  25.608  33.509  0.00  0.00     0.160 A 
ATOM      5  C   UNL d   1     -50.804  24.732  33.488  0.00  0.00     0.273 A 
ATOM      6  C   UNL d   1     -51.116  25.494  33.466  0.00  0.00     0.115 A 
ATOM      7  C   UNL d   1     -50.612  26.143  33.402  0.00  0.00     0.120 A 
ATOM      8  N   UNL d   1     -52.244  26.379  33.487  0.00  0.00    -0.209 NA
ATOM      9  N   UNL d   1     -50.920  26.905  33.380  0.00  0.00    -0.220 NA
ATOM     10  C   UNL d   1     -51.740  27.027  33.422  0.00  0.00     0.165 A 
ATOM     11  O   UNL d   1     -52.639  23.546  33.661  0.00  0.00    -0.245 OA
ATOM     12  O   UNL d   1     -49.988  24.614  33.446  0.00  0.00    -0.266 OA
ATOM     13  C   UNL d   1     -51.005  23.322  33.575  0.00  0.00     0.107 C 
ATOM     14  C   UNL d   1     -53.263  25.075  33.617  0.00  0.00     0.105 C 
ENDROOT
BRANCH   7  15
ATOM     15  S   UNL d   1     -49.795  26.025  33.359  0.00  0.00    -0.068 SA
BRANCH  15  16
ATOM     16  C   UNL d   1     -49.283  26.529  33.767  0.00  0.00     0.031 A 
ATOM     17  C   UNL d   1     -49.330  26.729  34.564  0.00  0.00     0.006 A 
ATOM     18  C   UNL d   1     -48.715  27.244  34.751  0.00  0.00     0.001 A 
ATOM     19  C   UNL d   1     -48.280  27.363  34.053  0.00  0.00     0.001 A 
ATOM     20  C   UNL d   1     -48.635  26.919  33.445  0.00  0.00     0.006 A 
ENDBRANCH  15  16
ENDBRANCH   7  15
BRANCH  10  21
ATOM     21  C   UNL d   1     -52.047  27.794  33.400  0.00  0.00     0.039 C 
BRANCH  21  22
ATOM     22  C   UNL d   1     -51.705  28.387  33.866  0.00  0.00     0.003 C 
ATOM     23  C   UNL d   1     -51.957  29.162  33.804  0.00  0.00     0.000 C 
ENDBRANCH  21  22
ENDBRANCH  10  21
TORSDOF 4
ENDMDL
