MODEL 1
REMARK VINA RESULT:      47.3      0.000      0.000
REMARK  4 active torsions:
REMARK  status: ('A' for Active; 'I' for Inactive)
REMARK    1  A    between atoms: N_7  and  C_3 
REMARK       I    between atoms: C_8  and  N_7 
REMARK    2  A    between atoms: C_10  and  C_8 
REMARK    3  A    between atoms: C_12  and  C_10 
REMARK    4  A    between atoms: C_16  and  C_12 
ROOT
ATOM      1  N   UNL d   1     -50.032  26.649  33.393  0.00  0.00    -0.190 NA
ATOM      2  C   UNL d   1     -49.827  27.005  34.106  0.00  0.00     0.281 C 
ATOM      3  O   UNL d   1     -50.220  26.795  34.801  0.00  0.00    -0.265 OA
ENDROOT
BRANCH   1   4
ATOM      4  C   UNL d   1     -50.632  26.081  33.371  0.00  0.00     0.159 A 
ATOM      5  N   UNL d   1     -50.446  25.281  33.350  0.00  0.00    -0.241 N 
ATOM      6  C   UNL d   1     -51.040  24.720  33.328  0.00  0.00     0.343 A 
ATOM      7  C   UNL d   1     -49.655  25.045  33.349  0.00  0.00     0.105 C 
ATOM      8  N   UNL d   1     -51.830  24.957  33.328  0.00  0.00    -0.224 N 
ATOM      9  O   UNL d   1     -50.850  23.916  33.306  0.00  0.00    -0.245 OA
ATOM     10  C   UNL d   1     -52.034  25.757  33.350  0.00  0.00     0.271 A 
ATOM     11  C   UNL d   1     -52.431  24.390  33.306  0.00  0.00     0.107 C 
ATOM     12  C   UNL d   1     -51.423  26.317  33.372  0.00  0.00     0.099 A 
ATOM     13  O   UNL d   1     -52.817  25.991  33.350  0.00  0.00    -0.266 OA
ENDBRANCH   1   4
BRANCH   2  14
ATOM     14  C   UNL d   1     -49.229  27.571  34.126  0.00  0.00     0.063 C 
BRANCH  14  15
ATOM     15  C   UNL d   1     -49.357  28.284  34.507  0.00  0.00     0.005 C 
BRANCH  15  16
ATOM     16  C   UNL d   1     -48.735  28.698  34.828  0.00  0.00     0.000 A 
ATOM     17  C   UNL d   1     -48.435  29.355  34.422  0.00  0.00     0.000 A 
ATOM     18  C   UNL d   1     -47.794  29.786  34.745  0.00  0.00     0.000 A 
ATOM     19  C   UNL d   1     -47.476  29.554  35.454  0.00  0.00     0.000 A 
ATOM     20  C   UNL d   1     -47.773  28.900  35.861  0.00  0.00     0.000 A 
ATOM     21  C   UNL d   1     -48.411  28.470  35.539  0.00  0.00     0.000 A 
ENDBRANCH  15  16
ENDBRANCH  14  15
ENDBRANCH   2  14
TORSDOF 4
ENDMDL
