MODEL 1
REMARK VINA RESULT:      -5.7      0.000      0.000
REMARK  4 active torsions:
REMARK  status: ('A' for Active; 'I' for Inactive)
REMARK    1  A    between atoms: C_14  and  C_2 
REMARK    2  A    between atoms: C_4  and  C_5 
REMARK    3  A    between atoms: C_5  and  O_9 
REMARK    4  A    between atoms: O_9  and  C_14 
ROOT
ATOM      1  N   UNL d   1     -41.904-121.769 -53.092  0.00  0.00    -0.236 NA
ATOM      2  C   UNL d   1     -41.463-122.335 -52.704  0.00  0.00     0.136 A 
ATOM      3  S   UNL d   1     -41.216-122.904 -53.262  0.00  0.00    -0.064 SA
ATOM      4  C   UNL d   1     -41.935-121.978 -53.893  0.00  0.00     0.088 A 
ATOM      5  C   UNL d   1     -41.514-122.672 -53.998  0.00  0.00     0.049 A 
ATOM      6  C   UNL d   1     -42.299-121.615 -54.538  0.00  0.00     0.020 A 
ATOM      7  C   UNL d   1     -41.458-123.004 -54.754  0.00  0.00     0.008 A 
ATOM      8  C   UNL d   1     -41.822-122.643 -55.407  0.00  0.00     0.001 A 
ATOM      9  C   UNL d   1     -42.243-121.948 -55.299  0.00  0.00     0.002 A 
ENDROOT
BRANCH   2  10
ATOM     10  C   UNL d   1     -41.277-122.371 -51.911  0.00  0.00     0.152 C 
BRANCH  10  11
ATOM     11  O   UNL d   1     -41.870-122.643 -51.385  0.00  0.00    -0.269 OA
BRANCH  11  12
ATOM     12  C   UNL d   1     -41.750-122.583 -50.554  0.00  0.00     0.306 C 
ATOM     13  O   UNL d   1     -41.123-122.126 -50.263  0.00  0.00    -0.258 OA
BRANCH  12  14
ATOM     14  C   UNL d   1     -42.264-122.987 -50.010  0.00  0.00     0.093 A 
ATOM     15  S   UNL d   1     -42.207-123.726 -49.659  0.00  0.00    -0.081 SA
ATOM     16  C   UNL d   1     -42.875-123.817 -49.180  0.00  0.00     0.036 A 
ATOM     17  C   UNL d   1     -43.325-123.150 -49.239  0.00  0.00     0.008 A 
ATOM     18  C   UNL d   1     -42.954-122.628 -49.753  0.00  0.00     0.012 A 
ENDBRANCH  12  14
ENDBRANCH  11  12
ENDBRANCH  10  11
ENDBRANCH   2  10
TORSDOF 4
ENDMDL
MODEL 2
REMARK VINA RESULT:      -5.4      1.073      4.486
REMARK  4 active torsions:
REMARK  status: ('A' for Active; 'I' for Inactive)
REMARK    1  A    between atoms: C_14  and  C_2 
REMARK    2  A    between atoms: C_4  and  C_5 
REMARK    3  A    between atoms: C_5  and  O_9 
REMARK    4  A    between atoms: O_9  and  C_14 
ROOT
ATOM      1  N   UNL d   1     -42.544-122.674 -50.444  0.00  0.00    -0.236 NA
ATOM      2  C   UNL d   1     -41.767-122.564 -50.669  0.00  0.00     0.136 A 
ATOM      3  S   UNL d   1     -41.273-122.872 -50.072  0.00  0.00    -0.064 SA
ATOM      4  C   UNL d   1     -42.540-123.051 -49.707  0.00  0.00     0.088 A 
ATOM      5  C   UNL d   1     -41.764-123.173 -49.478  0.00  0.00     0.049 A 
ATOM      6  C   UNL d   1     -43.158-123.297 -49.218  0.00  0.00     0.020 A 
ATOM      7  C   UNL d   1     -41.605-123.543 -48.755  0.00  0.00     0.008 A 
ATOM      8  C   UNL d   1     -42.223-123.793 -48.259  0.00  0.00     0.001 A 
ATOM      9  C   UNL d   1     -42.999-123.670 -48.490  0.00  0.00     0.002 A 
ENDROOT
BRANCH   2  10
ATOM     10  C   UNL d   1     -41.486-122.217 -51.352  0.00  0.00     0.152 C 
BRANCH  10  11
ATOM     11  O   UNL d   1     -41.653-122.598 -52.079  0.00  0.00    -0.269 OA
BRANCH  11  12
ATOM     12  C   UNL d   1     -41.420-122.236 -52.802  0.00  0.00     0.306 C 
ATOM     13  O   UNL d   1     -41.123-121.462 -52.797  0.00  0.00    -0.258 OA
BRANCH  12  14
ATOM     14  C   UNL d   1     -41.487-122.656 -53.539  0.00  0.00     0.093 A 
ATOM     15  S   UNL d   1     -41.230-123.403 -53.760  0.00  0.00    -0.081 SA
ATOM     16  C   UNL d   1     -41.454-123.511 -54.549  0.00  0.00     0.036 A 
ATOM     17  C   UNL d   1     -41.836-122.845 -54.800  0.00  0.00     0.008 A 
ATOM     18  C   UNL d   1     -41.862-122.308 -54.179  0.00  0.00     0.012 A 
ENDBRANCH  12  14
ENDBRANCH  11  12
ENDBRANCH  10  11
ENDBRANCH   2  10
TORSDOF 4
ENDMDL
