MODEL 1
REMARK VINA RESULT:      52.6      0.000      0.000
REMARK  2 active torsions:
REMARK  status: ('A' for Active; 'I' for Inactive)
REMARK    1  A    between atoms: C_9  and  N_2 
REMARK    2  A    between atoms: C_7  and  C_4 
ROOT
ATOM      1  C   UNL d   1      58.601  49.588  50.180  0.00  0.00     0.136 A 
ATOM      2  N   UNL d   1      59.117  49.599  50.825  0.00  0.00    -0.281 N 
ATOM      3  C   UNL d   1      57.784  49.575  50.311  0.00  0.00     0.152 A 
ATOM      4  C   UNL d   1      58.813  49.597  51.601  0.00  0.00     0.175 A 
ATOM      5  N   UNL d   1      57.996  49.584  51.724  0.00  0.00    -0.188 NA
ATOM      6  C   UNL d   1      57.483  49.573  51.080  0.00  0.00     0.292 A 
ATOM      7  C   UNL d   1      57.271  49.564  49.667  0.00  0.00     0.108 C 
ATOM      8  N   UNL d   1      56.751  49.553  49.020  0.00  0.00    -0.191 NA
ATOM      9  S   UNL d   1      58.894  49.590  49.408  0.00  0.00    -0.058 SA
ATOM     10  O   UNL d   1      56.661  49.560  51.201  0.00  0.00    -0.264 OA
ENDROOT
BRANCH   2  11
ATOM     11  C   UNL d   1      59.928  49.612  50.700  0.00  0.00     0.066 A 
ATOM     12  C   UNL d   1      60.441  49.598  51.346  0.00  0.00     0.020 A 
ATOM     13  C   UNL d   1      61.254  49.612  51.217  0.00  0.00     0.031 A 
ATOM     14  C   UNL d   1      61.556  49.639  50.447  0.00  0.00     0.140 A 
ATOM     15  C   UNL d   1      61.037  49.653  49.800  0.00  0.00     0.031 A 
ATOM     16  F   UNL d   1      62.375  49.652  50.325  0.00  0.00    -0.204 F 
ATOM     17  C   UNL d   1      60.223  49.640  49.928  0.00  0.00     0.020 A 
ENDBRANCH   2  11
BRANCH   4  18
ATOM     18  C   UNL d   1      59.326  49.608  52.246  0.00  0.00     0.135 A 
ATOM     19  O   UNL d   1      60.146  49.586  52.209  0.00  0.00    -0.302 OA
ATOM     20  C   UNL d   1      60.430  49.608  52.978  0.00  0.00     0.123 A 
ATOM     21  C   UNL d   1      59.787  49.642  53.490  0.00  0.00     0.029 A 
ATOM     22  C   UNL d   1      59.105  49.643  53.049  0.00  0.00     0.030 A 
ENDBRANCH   4  18
TORSDOF 2
ENDMDL
