MODEL 1
REMARK VINA RESULT:      -8.7      0.000      0.000
REMARK  3 active torsions:
REMARK  status: ('A' for Active; 'I' for Inactive)
REMARK    1  A    between atoms: C_2  and  C_1 
REMARK    2  A    between atoms: C_13  and  C_8 
REMARK    3  A    between atoms: O_23  and  C_20 
ROOT
ATOM      1  C   UNL d   1     -47.960  12.501  22.932  0.00  0.00     0.106 A 
ATOM      2  C   UNL d   1     -48.430  11.804  22.807  0.00  0.00     0.304 A 
ATOM      3  C   UNL d   1     -48.322  13.241  22.936  0.00  0.00     0.011 A 
ATOM      4  C   UNL d   1     -49.119  13.301  22.822  0.00  0.00     0.023 A 
ATOM      5  O   UNL d   1     -49.244  11.870  22.691  0.00  0.00    -0.273 OA
ATOM      6  C   UNL d   1     -49.589  12.603  22.697  0.00  0.00     0.103 A 
ATOM      7  C   UNL d   1     -49.481  14.040  22.827  0.00  0.00     0.002 A 
ATOM      8  O   UNL d   1     -48.052  11.048  22.803  0.00  0.00    -0.259 OA
ATOM      9  C   UNL d   1     -50.403  12.670  22.582  0.00  0.00     0.025 A 
ATOM     10  C   UNL d   1     -50.296  14.112  22.711  0.00  0.00     0.000 A 
ATOM     11  C   UNL d   1     -50.766  13.415  22.587  0.00  0.00     0.002 A 
ATOM     12  C   UNL d   1     -49.005  14.707  22.950  0.00  0.00     0.000 A 
ATOM     13  C   UNL d   1     -50.640  14.839  22.718  0.00  0.00     0.000 A 
ATOM     14  C   UNL d   1     -49.369  15.451  22.955  0.00  0.00     0.000 A 
ATOM     15  C   UNL d   1     -50.183  15.519  22.839  0.00  0.00     0.000 A 
ENDROOT
BRANCH   1  16
ATOM     16  C   UNL d   1     -47.145  12.429  23.047  0.00  0.00     0.210 A 
ATOM     17  O   UNL d   1     -46.624  12.567  22.431  0.00  0.00    -0.268 OA
ATOM     18  C   UNL d   1     -45.862  12.455  22.706  0.00  0.00     0.204 A 
ATOM     19  N   UNL d   1     -45.927  12.250  23.487  0.00  0.00    -0.121 NA
ATOM     20  N   UNL d   1     -46.713  12.234  23.697  0.00  0.00    -0.121 NA
BRANCH  18  21
ATOM     21  C   UNL d   1     -45.111  12.511  22.355  0.00  0.00     0.043 A 
ATOM     22  C   UNL d   1     -44.962  13.097  21.801  0.00  0.00     0.006 A 
ATOM     23  C   UNL d   1     -44.241  13.166  21.450  0.00  0.00     0.024 A 
ATOM     24  C   UNL d   1     -43.633  12.618  21.665  0.00  0.00     0.094 A 
ATOM     25  C   UNL d   1     -43.787  12.032  22.221  0.00  0.00     0.024 A 
ATOM     26  C   UNL d   1     -44.531  11.984  22.563  0.00  0.00     0.006 A 
BRANCH  24  27
ATOM     27  O   UNL d   1     -42.881  12.656  21.329  0.00  0.00    -0.328 OA
ATOM     28  C   UNL d   1     -42.467  13.358  21.317  0.00  0.00     0.181 C 
ENDBRANCH  24  27
ENDBRANCH  18  21
ENDBRANCH   1  16
TORSDOF 3
ENDMDL
MODEL 2
REMARK VINA RESULT:      -8.4      1.223      2.000
REMARK  3 active torsions:
REMARK  status: ('A' for Active; 'I' for Inactive)
REMARK    1  A    between atoms: C_2  and  C_1 
REMARK    2  A    between atoms: C_13  and  C_8 
REMARK    3  A    between atoms: O_23  and  C_20 
ROOT
ATOM      1  C   UNL d   1     -48.084  14.010  22.737  0.00  0.00     0.106 A 
ATOM      2  C   UNL d   1     -48.461  14.695  22.403  0.00  0.00     0.304 A 
ATOM      3  C   UNL d   1     -48.542  13.369  22.976  0.00  0.00     0.011 A 
ATOM      4  C   UNL d   1     -49.345  13.394  22.893  0.00  0.00     0.023 A 
ATOM      5  O   UNL d   1     -49.281  14.716  22.320  0.00  0.00    -0.273 OA
ATOM      6  C   UNL d   1     -49.721  14.079  22.559  0.00  0.00     0.103 A 
ATOM      7  C   UNL d   1     -49.803  12.753  23.132  0.00  0.00     0.002 A 
ATOM      8  O   UNL d   1     -47.985  15.349  22.160  0.00  0.00    -0.259 OA
ATOM      9  C   UNL d   1     -50.542  14.100  22.476  0.00  0.00     0.025 A 
ATOM     10  C   UNL d   1     -50.626  12.768  23.051  0.00  0.00     0.000 A 
ATOM     11  C   UNL d   1     -51.002  13.454  22.717  0.00  0.00     0.002 A 
ATOM     12  C   UNL d   1     -49.416  12.095  23.454  0.00  0.00     0.000 A 
ATOM     13  C   UNL d   1     -51.064  12.137  23.288  0.00  0.00     0.000 A 
ATOM     14  C   UNL d   1     -49.878  11.450  23.695  0.00  0.00     0.000 A 
ATOM     15  C   UNL d   1     -50.698  11.469  23.613  0.00  0.00     0.000 A 
ENDROOT
BRANCH   1  16
ATOM     16  C   UNL d   1     -47.262  13.995  22.818  0.00  0.00     0.210 A 
ATOM     17  O   UNL d   1     -46.810  13.477  22.373  0.00  0.00    -0.268 OA
ATOM     18  C   UNL d   1     -46.023  13.586  22.569  0.00  0.00     0.204 A 
ATOM     19  N   UNL d   1     -46.005  14.168  23.130  0.00  0.00    -0.121 NA
ATOM     20  N   UNL d   1     -46.764  14.420  23.284  0.00  0.00    -0.121 NA
BRANCH  18  21
ATOM     21  C   UNL d   1     -45.315  13.235  22.314  0.00  0.00     0.043 A 
ATOM     22  C   UNL d   1     -44.845  13.617  21.761  0.00  0.00     0.006 A 
ATOM     23  C   UNL d   1     -44.156  13.293  21.502  0.00  0.00     0.024 A 
ATOM     24  C   UNL d   1     -43.922  12.542  21.814  0.00  0.00     0.094 A 
ATOM     25  C   UNL d   1     -44.395  12.161  22.368  0.00  0.00     0.024 A 
ATOM     26  C   UNL d   1     -45.093  12.515  22.615  0.00  0.00     0.006 A 
BRANCH  24  27
ATOM     27  O   UNL d   1     -43.222  12.175  21.575  0.00  0.00    -0.328 OA
ATOM     28  C   UNL d   1     -42.534  12.607  21.497  0.00  0.00     0.181 C 
ENDBRANCH  24  27
ENDBRANCH  18  21
ENDBRANCH   1  16
TORSDOF 3
ENDMDL
MODEL 3
REMARK VINA RESULT:      -8.3      1.518      2.368
REMARK  3 active torsions:
REMARK  status: ('A' for Active; 'I' for Inactive)
REMARK    1  A    between atoms: C_2  and  C_1 
REMARK    2  A    between atoms: C_13  and  C_8 
REMARK    3  A    between atoms: O_23  and  C_20 
ROOT
ATOM      1  C   UNL d   1     -47.563  14.024  22.786  0.00  0.00     0.106 A 
ATOM      2  C   UNL d   1     -47.611  14.845  22.571  0.00  0.00     0.304 A 
ATOM      3  C   UNL d   1     -48.252  13.604  22.948  0.00  0.00     0.011 A 
ATOM      4  C   UNL d   1     -48.969  13.973  22.904  0.00  0.00     0.023 A 
ATOM      5  O   UNL d   1     -48.346  15.217  22.527  0.00  0.00    -0.273 OA
ATOM      6  C   UNL d   1     -49.017  14.794  22.689  0.00  0.00     0.103 A 
ATOM      7  C   UNL d   1     -49.658  13.553  23.066  0.00  0.00     0.002 A 
ATOM      8  O   UNL d   1     -46.900  15.270  22.406  0.00  0.00    -0.259 OA
ATOM      9  C   UNL d   1     -49.752  15.166  22.645  0.00  0.00     0.025 A 
ATOM     10  C   UNL d   1     -50.397  13.921  23.024  0.00  0.00     0.000 A 
ATOM     11  C   UNL d   1     -50.445  14.742  22.809  0.00  0.00     0.002 A 
ATOM     12  C   UNL d   1     -49.588  12.754  23.273  0.00  0.00     0.000 A 
ATOM     13  C   UNL d   1     -51.064  13.501  23.184  0.00  0.00     0.000 A 
ATOM     14  C   UNL d   1     -50.282  12.330  23.437  0.00  0.00     0.000 A 
ATOM     15  C   UNL d   1     -51.017  12.701  23.393  0.00  0.00     0.000 A 
ENDROOT
BRANCH   1  16
ATOM     16  C   UNL d   1     -46.824  13.656  22.829  0.00  0.00     0.210 A 
ATOM     17  O   UNL d   1     -46.766  12.858  23.004  0.00  0.00    -0.268 OA
ATOM     18  C   UNL d   1     -45.975  12.651  23.008  0.00  0.00     0.204 A 
ATOM     19  N   UNL d   1     -45.560  13.324  22.835  0.00  0.00    -0.121 NA
ATOM     20  N   UNL d   1     -46.079  13.941  22.724  0.00  0.00    -0.121 NA
BRANCH  18  21
ATOM     21  C   UNL d   1     -45.570  11.939  23.146  0.00  0.00     0.043 A 
ATOM     22  C   UNL d   1     -44.804  11.845  22.869  0.00  0.00     0.006 A 
ATOM     23  C   UNL d   1     -44.395  11.163  22.993  0.00  0.00     0.024 A 
ATOM     24  C   UNL d   1     -44.774  10.538  23.419  0.00  0.00     0.094 A 
ATOM     25  C   UNL d   1     -45.542  10.635  23.695  0.00  0.00     0.024 A 
ATOM     26  C   UNL d   1     -45.936  11.342  23.555  0.00  0.00     0.006 A 
BRANCH  24  27
ATOM     27  O   UNL d   1     -44.389   9.823  23.567  0.00  0.00    -0.328 OA
ATOM     28  C   UNL d   1     -43.575   9.780  23.554  0.00  0.00     0.181 C 
ENDBRANCH  24  27
ENDBRANCH  18  21
ENDBRANCH   1  16
TORSDOF 3
ENDMDL
MODEL 4
REMARK VINA RESULT:      -7.0      2.244      3.814
REMARK  3 active torsions:
REMARK  status: ('A' for Active; 'I' for Inactive)
REMARK    1  A    between atoms: C_2  and  C_1 
REMARK    2  A    between atoms: C_13  and  C_8 
REMARK    3  A    between atoms: O_23  and  C_20 
ROOT
ATOM      1  C   UNL d   1     -44.294  12.648  22.071  0.00  0.00     0.106 A 
ATOM      2  C   UNL d   1     -44.255  11.925  22.515  0.00  0.00     0.304 A 
ATOM      3  C   UNL d   1     -44.959  13.130  22.133  0.00  0.00     0.011 A 
ATOM      4  C   UNL d   1     -45.570  12.913  22.615  0.00  0.00     0.023 A 
ATOM      5  O   UNL d   1     -44.882  11.708  23.006  0.00  0.00    -0.273 OA
ATOM      6  C   UNL d   1     -45.530  12.190  23.059  0.00  0.00     0.103 A 
ATOM      7  C   UNL d   1     -46.234  13.395  22.677  0.00  0.00     0.002 A 
ATOM      8  O   UNL d   1     -43.570  11.436  22.447  0.00  0.00    -0.259 OA
ATOM      9  C   UNL d   1     -46.158  11.974  23.550  0.00  0.00     0.025 A 
ATOM     10  C   UNL d   1     -46.865  13.183  23.167  0.00  0.00     0.000 A 
ATOM     11  C   UNL d   1     -46.826  12.459  23.611  0.00  0.00     0.002 A 
ATOM     12  C   UNL d   1     -46.252  14.095  22.235  0.00  0.00     0.000 A 
ATOM     13  C   UNL d   1     -47.510  13.660  23.220  0.00  0.00     0.000 A 
ATOM     14  C   UNL d   1     -46.921  14.580  22.297  0.00  0.00     0.000 A 
ATOM     15  C   UNL d   1     -47.548  14.365  22.787  0.00  0.00     0.000 A 
ENDROOT
BRANCH   1  16
ATOM     16  C   UNL d   1     -43.663  12.861  21.581  0.00  0.00     0.210 A 
ATOM     17  O   UNL d   1     -43.138  13.446  21.808  0.00  0.00    -0.268 OA
ATOM     18  C   UNL d   1     -42.578  13.536  21.219  0.00  0.00     0.204 A 
ATOM     19  N   UNL d   1     -42.768  13.004  20.639  0.00  0.00    -0.121 NA
ATOM     20  N   UNL d   1     -43.433  12.589  20.859  0.00  0.00    -0.121 NA
BRANCH  18  21
ATOM     21  C   UNL d   1     -41.916  14.029  21.127  0.00  0.00     0.043 A 
ATOM     22  C   UNL d   1     -42.020  14.834  21.011  0.00  0.00     0.006 A 
ATOM     23  C   UNL d   1     -41.392  15.329  20.919  0.00  0.00     0.024 A 
ATOM     24  C   UNL d   1     -40.613  14.999  20.945  0.00  0.00     0.094 A 
ATOM     25  C   UNL d   1     -40.512  14.192  21.062  0.00  0.00     0.024 A 
ATOM     26  C   UNL d   1     -41.171  13.710  21.152  0.00  0.00     0.006 A 
BRANCH  24  27
ATOM     27  O   UNL d   1     -39.942  15.471  20.856  0.00  0.00    -0.328 OA
ATOM     28  C   UNL d   1     -39.625  15.865  21.495  0.00  0.00     0.181 C 
ENDBRANCH  24  27
ENDBRANCH  18  21
ENDBRANCH   1  16
TORSDOF 3
ENDMDL
MODEL 5
REMARK VINA RESULT:      -6.8      8.118      9.559
REMARK  3 active torsions:
REMARK  status: ('A' for Active; 'I' for Inactive)
REMARK    1  A    between atoms: C_2  and  C_1 
REMARK    2  A    between atoms: C_13  and  C_8 
REMARK    3  A    between atoms: O_23  and  C_20 
ROOT
ATOM      1  C   UNL d   1     -40.311  14.938  18.659  0.00  0.00     0.106 A 
ATOM      2  C   UNL d   1     -40.803  15.545  18.324  0.00  0.00     0.304 A 
ATOM      3  C   UNL d   1     -39.745  14.567  18.191  0.00  0.00     0.011 A 
ATOM      4  C   UNL d   1     -39.659  14.780  17.417  0.00  0.00     0.023 A 
ATOM      5  O   UNL d   1     -40.711  15.759  17.532  0.00  0.00    -0.273 OA
ATOM      6  C   UNL d   1     -40.151  15.387  17.081  0.00  0.00     0.103 A 
ATOM      7  C   UNL d   1     -39.093  14.408  16.948  0.00  0.00     0.002 A 
ATOM      8  O   UNL d   1     -41.381  15.922  18.810  0.00  0.00    -0.259 OA
ATOM      9  C   UNL d   1     -40.060  15.600  16.290  0.00  0.00     0.025 A 
ATOM     10  C   UNL d   1     -38.998  14.619  16.155  0.00  0.00     0.000 A 
ATOM     11  C   UNL d   1     -39.490  15.226  15.819  0.00  0.00     0.002 A 
ATOM     12  C   UNL d   1     -38.625  13.820  17.295  0.00  0.00     0.000 A 
ATOM     13  C   UNL d   1     -38.442  14.250  15.706  0.00  0.00     0.000 A 
ATOM     14  C   UNL d   1     -38.055  13.446  16.824  0.00  0.00     0.000 A 
ATOM     15  C   UNL d   1     -37.963  13.659  16.032  0.00  0.00     0.000 A 
ENDROOT
BRANCH   1  16
ATOM     16  C   UNL d   1     -40.406  14.728  19.453  0.00  0.00     0.210 A 
ATOM     17  O   UNL d   1     -39.768  14.735  19.965  0.00  0.00    -0.268 OA
ATOM     18  C   UNL d   1     -40.026  14.504  20.706  0.00  0.00     0.204 A 
ATOM     19  N   UNL d   1     -40.820  14.359  20.637  0.00  0.00    -0.121 NA
ATOM     20  N   UNL d   1     -41.055  14.495  19.869  0.00  0.00    -0.121 NA
BRANCH  18  21
ATOM     21  C   UNL d   1     -39.650  14.404  21.440  0.00  0.00     0.043 A 
ATOM     22  C   UNL d   1     -39.420  15.061  21.874  0.00  0.00     0.006 A 
ATOM     23  C   UNL d   1     -39.055  14.984  22.586  0.00  0.00     0.024 A 
ATOM     24  C   UNL d   1     -38.910  14.205  22.883  0.00  0.00     0.094 A 
ATOM     25  C   UNL d   1     -39.142  13.549  22.446  0.00  0.00     0.024 A 
ATOM     26  C   UNL d   1     -39.513  13.656  21.721  0.00  0.00     0.006 A 
BRANCH  24  27
ATOM     27  O   UNL d   1     -38.538  14.084  23.610  0.00  0.00    -0.328 OA
ATOM     28  C   UNL d   1     -37.986  13.490  23.698  0.00  0.00     0.181 C 
ENDBRANCH  24  27
ENDBRANCH  18  21
ENDBRANCH   1  16
TORSDOF 3
ENDMDL
MODEL 6
REMARK VINA RESULT:      -6.0      8.292      9.736
REMARK  3 active torsions:
REMARK  status: ('A' for Active; 'I' for Inactive)
REMARK    1  A    between atoms: C_2  and  C_1 
REMARK    2  A    between atoms: C_13  and  C_8 
REMARK    3  A    between atoms: O_23  and  C_20 
ROOT
ATOM      1  C   UNL d   1     -39.856  14.802  19.576  0.00  0.00     0.106 A 
ATOM      2  C   UNL d   1     -40.360  15.430  19.848  0.00  0.00     0.304 A 
ATOM      3  C   UNL d   1     -39.391  14.390  20.116  0.00  0.00     0.011 A 
ATOM      4  C   UNL d   1     -39.416  14.583  20.899  0.00  0.00     0.023 A 
ATOM      5  O   UNL d   1     -40.381  15.624  20.649  0.00  0.00    -0.273 OA
ATOM      6  C   UNL d   1     -39.920  15.211  21.171  0.00  0.00     0.103 A 
ATOM      7  C   UNL d   1     -38.951  14.171  21.439  0.00  0.00     0.002 A 
ATOM      8  O   UNL d   1     -40.835  15.849  19.288  0.00  0.00    -0.259 OA
ATOM      9  C   UNL d   1     -39.941  15.405  21.973  0.00  0.00     0.025 A 
ATOM     10  C   UNL d   1     -38.968  14.361  22.244  0.00  0.00     0.000 A 
ATOM     11  C   UNL d   1     -39.472  14.989  22.515  0.00  0.00     0.002 A 
ATOM     12  C   UNL d   1     -38.467  13.562  21.153  0.00  0.00     0.000 A 
ATOM     13  C   UNL d   1     -38.510  13.952  22.763  0.00  0.00     0.000 A 
ATOM     14  C   UNL d   1     -37.999  13.147  21.697  0.00  0.00     0.000 A 
ATOM     15  C   UNL d   1     -38.019  13.340  22.498  0.00  0.00     0.000 A 
ENDROOT
BRANCH   1  16
ATOM     16  C   UNL d   1     -39.839  14.612  18.772  0.00  0.00     0.210 A 
ATOM     17  O   UNL d   1     -39.292  14.962  18.273  0.00  0.00    -0.268 OA
ATOM     18  C   UNL d   1     -39.405  14.670  17.518  0.00  0.00     0.204 A 
ATOM     19  N   UNL d   1     -40.020  14.145  17.564  0.00  0.00    -0.121 NA
ATOM     20  N   UNL d   1     -40.287  14.108  18.332  0.00  0.00    -0.121 NA
BRANCH  18  21
ATOM     21  C   UNL d   1     -39.034  14.808  16.788  0.00  0.00     0.043 A 
ATOM     22  C   UNL d   1     -38.671  15.529  16.643  0.00  0.00     0.006 A 
ATOM     23  C   UNL d   1     -38.306  15.681  15.942  0.00  0.00     0.024 A 
ATOM     24  C   UNL d   1     -38.303  15.076  15.351  0.00  0.00     0.094 A 
ATOM     25  C   UNL d   1     -38.667  14.355  15.499  0.00  0.00     0.024 A 
ATOM     26  C   UNL d   1     -39.032  14.226  16.223  0.00  0.00     0.006 A 
BRANCH  24  27
ATOM     27  O   UNL d   1     -37.940  15.192  14.619  0.00  0.00    -0.328 OA
ATOM     28  C   UNL d   1     -37.954  14.606  14.052  0.00  0.00     0.181 C 
ENDBRANCH  24  27
ENDBRANCH  18  21
ENDBRANCH   1  16
TORSDOF 3
ENDMDL
