MODEL 1
REMARK VINA RESULT:      -2.1      0.000      0.000
REMARK  2 active torsions:
REMARK  status: ('A' for Active; 'I' for Inactive)
REMARK    1  A    between atoms: C_6  and  C_1 
REMARK    2  A    between atoms: C_8  and  N_3 
REMARK       I    between atoms: N_7  and  C_6 
ROOT
ATOM      1  C   UNL d   1      32.821  18.684 -23.520  0.00  0.00     0.124 A 
ATOM      2  C   UNL d   1      32.136  18.372 -23.892  0.00  0.00     0.181 A 
ATOM      3  N   UNL d   1      32.137  17.542 -23.763  0.00  0.00    -0.276 N 
ATOM      4  C   UNL d   1      32.807  17.346 -23.323  0.00  0.00     0.152 A 
ATOM      5  S   UNL d   1      33.241  18.046 -23.164  0.00  0.00    -0.051 SA
ATOM      6  S   UNL d   1      33.017  16.594 -23.078  0.00  0.00    -0.052 SA
ATOM      7  N   UNL d   1      31.619  18.876 -24.286  0.00  0.00    -0.128 N 
ENDROOT
BRANCH   1   8
ATOM      8  C   UNL d   1      32.988  19.488 -23.541  0.00  0.00     0.274 C 
ATOM      9  N   UNL d   1      33.029  19.912 -22.838  0.00  0.00    -0.267 N 
ATOM     10  C   UNL d   1      32.903  19.535 -22.099  0.00  0.00     0.110 A 
ATOM     11  C   UNL d   1      33.199  20.733 -22.849  0.00  0.00     0.110 A 
ATOM     12  C   UNL d   1      32.948  19.975 -21.391  0.00  0.00     0.142 A 
ATOM     13  O   UNL d   1      33.116  20.782 -21.420  0.00  0.00    -0.300 OA
ATOM     14  C   UNL d   1      33.241  21.158 -22.146  0.00  0.00     0.142 A 
ATOM     15  O   UNL d   1      33.112  19.865 -24.256  0.00  0.00    -0.266 OA
ENDBRANCH   1   8
BRANCH   3  16
ATOM     16  C   UNL d   1      31.552  17.015 -24.041  0.00  0.00     0.067 A 
ATOM     17  C   UNL d   1      30.937  16.787 -23.551  0.00  0.00     0.018 A 
ATOM     18  C   UNL d   1      30.354  16.258 -23.840  0.00  0.00     0.002 A 
ATOM     19  C   UNL d   1      30.402  15.974 -24.602  0.00  0.00     0.000 A 
ATOM     20  C   UNL d   1      31.028  16.208 -25.095  0.00  0.00     0.002 A 
ATOM     21  C   UNL d   1      29.827  15.453 -24.883  0.00  0.00     0.000 C 
ATOM     22  C   UNL d   1      31.604  16.727 -24.819  0.00  0.00     0.018 A 
ENDBRANCH   3  16
TORSDOF 2
ENDMDL
MODEL 2
REMARK VINA RESULT:      -1.0      2.681      4.556
REMARK  2 active torsions:
REMARK  status: ('A' for Active; 'I' for Inactive)
REMARK    1  A    between atoms: C_6  and  C_1 
REMARK    2  A    between atoms: C_8  and  N_3 
REMARK       I    between atoms: N_7  and  C_6 
ROOT
ATOM      1  C   UNL d   1      30.065  15.947 -24.157  0.00  0.00     0.124 A 
ATOM      2  C   UNL d   1      30.380  16.686 -24.400  0.00  0.00     0.181 A 
ATOM      3  N   UNL d   1      31.176  16.718 -24.136  0.00  0.00    -0.276 N 
ATOM      4  C   UNL d   1      31.349  16.016 -23.739  0.00  0.00     0.152 A 
ATOM      5  S   UNL d   1      30.667  15.527 -23.744  0.00  0.00    -0.051 SA
ATOM      6  S   UNL d   1      32.066  15.823 -23.395  0.00  0.00    -0.052 SA
ATOM      7  N   UNL d   1      29.908  17.214 -24.819  0.00  0.00    -0.128 N 
ENDROOT
BRANCH   1   8
ATOM      8  C   UNL d   1      29.289  15.738 -24.329  0.00  0.00     0.274 C 
ATOM      9  N   UNL d   1      28.734  15.704 -23.723  0.00  0.00    -0.267 N 
ATOM     10  C   UNL d   1      28.950  15.881 -22.931  0.00  0.00     0.110 A 
ATOM     11  C   UNL d   1      27.941  15.491 -23.888  0.00  0.00     0.110 A 
ATOM     12  C   UNL d   1      28.379  15.843 -22.323  0.00  0.00     0.142 A 
ATOM     13  O   UNL d   1      27.602  15.632 -22.503  0.00  0.00    -0.300 OA
ATOM     14  C   UNL d   1      27.386  15.457 -23.282  0.00  0.00     0.142 A 
ATOM     15  O   UNL d   1      29.069  15.564 -25.097  0.00  0.00    -0.266 OA
ENDBRANCH   1   8
BRANCH   3  16
ATOM     16  C   UNL d   1      31.696  17.360 -24.262  0.00  0.00     0.067 A 
ATOM     17  C   UNL d   1      31.760  17.953 -23.701  0.00  0.00     0.018 A 
ATOM     18  C   UNL d   1      32.284  18.594 -23.836  0.00  0.00     0.002 A 
ATOM     19  C   UNL d   1      32.725  18.622 -24.522  0.00  0.00     0.000 A 
ATOM     20  C   UNL d   1      32.656  18.018 -25.087  0.00  0.00     0.002 A 
ATOM     21  C   UNL d   1      33.240  19.254 -24.651  0.00  0.00     0.000 C 
ATOM     22  C   UNL d   1      32.143  17.387 -24.961  0.00  0.00     0.018 A 
ENDBRANCH   3  16
TORSDOF 2
ENDMDL
MODEL 3
REMARK VINA RESULT:      -1.0      1.466      2.017
REMARK  2 active torsions:
REMARK  status: ('A' for Active; 'I' for Inactive)
REMARK    1  A    between atoms: C_6  and  C_1 
REMARK    2  A    between atoms: C_8  and  N_3 
REMARK       I    between atoms: N_7  and  C_6 
ROOT
ATOM      1  C   UNL d   1      33.060  19.716 -22.747  0.00  0.00     0.124 A 
ATOM      2  C   UNL d   1      32.803  18.921 -22.828  0.00  0.00     0.181 A 
ATOM      3  N   UNL d   1      32.827  18.732 -23.645  0.00  0.00    -0.276 N 
ATOM      4  C   UNL d   1      33.092  19.394 -24.060  0.00  0.00     0.152 A 
ATOM      5  S   UNL d   1      33.241  20.014 -23.514  0.00  0.00    -0.051 SA
ATOM      6  S   UNL d   1      33.195  19.444 -24.870  0.00  0.00    -0.052 SA
ATOM      7  N   UNL d   1      32.588  18.491 -22.160  0.00  0.00    -0.128 N 
ENDROOT
BRANCH   1   8
ATOM      8  C   UNL d   1      33.102  20.077 -22.010  0.00  0.00     0.274 C 
ATOM      9  N   UNL d   1      33.003  20.892 -21.952  0.00  0.00    -0.267 N 
ATOM     10  C   UNL d   1      32.860  21.359 -22.634  0.00  0.00     0.110 A 
ATOM     11  C   UNL d   1      33.045  21.269 -21.204  0.00  0.00     0.110 A 
ATOM     12  C   UNL d   1      32.762  22.184 -22.563  0.00  0.00     0.142 A 
ATOM     13  O   UNL d   1      32.805  22.540 -21.821  0.00  0.00    -0.300 OA
ATOM     14  C   UNL d   1      32.946  22.084 -21.145  0.00  0.00     0.142 A 
ATOM     15  O   UNL d   1      33.241  19.631 -21.339  0.00  0.00    -0.266 OA
ENDBRANCH   1   8
BRANCH   3  16
ATOM     16  C   UNL d   1      32.615  17.992 -23.971  0.00  0.00     0.067 A 
ATOM     17  C   UNL d   1      33.193  17.446 -24.163  0.00  0.00     0.018 A 
ATOM     18  C   UNL d   1      32.970  16.706 -24.489  0.00  0.00     0.002 A 
ATOM     19  C   UNL d   1      32.182  16.536 -24.613  0.00  0.00     0.000 A 
ATOM     20  C   UNL d   1      31.599  17.094 -24.416  0.00  0.00     0.002 A 
ATOM     21  C   UNL d   1      31.966  15.807 -24.934  0.00  0.00     0.000 C 
ATOM     22  C   UNL d   1      31.811  17.822 -24.095  0.00  0.00     0.018 A 
ENDBRANCH   3  16
TORSDOF 2
ENDMDL
MODEL 4
REMARK VINA RESULT:      -0.9      1.330      4.438
REMARK  2 active torsions:
REMARK  status: ('A' for Active; 'I' for Inactive)
REMARK    1  A    between atoms: C_6  and  C_1 
REMARK    2  A    between atoms: C_8  and  N_3 
REMARK       I    between atoms: N_7  and  C_6 
ROOT
ATOM      1  C   UNL d   1      32.881  19.031 -23.306  0.00  0.00     0.124 A 
ATOM      2  C   UNL d   1      32.731  19.842 -23.149  0.00  0.00     0.181 A 
ATOM      3  N   UNL d   1      32.852  19.965 -22.327  0.00  0.00    -0.276 N 
ATOM      4  C   UNL d   1      33.072  19.248 -21.984  0.00  0.00     0.152 A 
ATOM      5  S   UNL d   1      33.094  18.658 -22.580  0.00  0.00    -0.051 SA
ATOM      6  S   UNL d   1      33.241  19.126 -21.193  0.00  0.00    -0.052 SA
ATOM      7  N   UNL d   1      32.511  20.343 -23.763  0.00  0.00    -0.128 N 
ENDROOT
BRANCH   1   8
ATOM      8  C   UNL d   1      32.812  18.724 -24.064  0.00  0.00     0.274 C 
ATOM      9  N   UNL d   1      32.330  18.071 -24.195  0.00  0.00    -0.267 N 
ATOM     10  C   UNL d   1      31.908  17.713 -23.564  0.00  0.00     0.110 A 
ATOM     11  C   UNL d   1      32.253  17.750 -24.966  0.00  0.00     0.110 A 
ATOM     12  C   UNL d   1      31.421  17.051 -23.707  0.00  0.00     0.142 A 
ATOM     13  O   UNL d   1      31.357  16.748 -24.471  0.00  0.00    -0.300 OA
ATOM     14  C   UNL d   1      31.771  17.096 -25.096  0.00  0.00     0.142 A 
ATOM     15  O   UNL d   1      33.220  19.064 -24.686  0.00  0.00    -0.266 OA
ENDBRANCH   1   8
BRANCH   3  16
ATOM     16  C   UNL d   1      32.762  20.698 -21.936  0.00  0.00     0.067 A 
ATOM     17  C   UNL d   1      33.226  21.337 -22.147  0.00  0.00     0.018 A 
ATOM     18  C   UNL d   1      33.127  22.069 -21.748  0.00  0.00     0.002 A 
ATOM     19  C   UNL d   1      32.573  22.138 -21.155  0.00  0.00     0.000 A 
ATOM     20  C   UNL d   1      32.104  21.485 -20.944  0.00  0.00     0.002 A 
ATOM     21  C   UNL d   1      32.479  22.859 -20.764  0.00  0.00     0.000 C 
ATOM     22  C   UNL d   1      32.195  20.765 -21.331  0.00  0.00     0.018 A 
ENDBRANCH   3  16
TORSDOF 2
ENDMDL
MODEL 5
REMARK VINA RESULT:      -0.9      2.410      3.473
REMARK  2 active torsions:
REMARK  status: ('A' for Active; 'I' for Inactive)
REMARK    1  A    between atoms: C_6  and  C_1 
REMARK    2  A    between atoms: C_8  and  N_3 
REMARK       I    between atoms: N_7  and  C_6 
ROOT
ATOM      1  C   UNL d   1      30.618  16.787 -24.299  0.00  0.00     0.124 A 
ATOM      2  C   UNL d   1      30.030  16.324 -23.919  0.00  0.00     0.181 A 
ATOM      3  N   UNL d   1      29.283  16.637 -24.141  0.00  0.00    -0.276 N 
ATOM      4  C   UNL d   1      29.406  17.277 -24.646  0.00  0.00     0.152 A 
ATOM      5  S   UNL d   1      30.231  17.382 -24.754  0.00  0.00    -0.051 SA
ATOM      6  S   UNL d   1      28.823  17.738 -24.988  0.00  0.00    -0.052 SA
ATOM      7  N   UNL d   1      30.252  15.697 -23.435  0.00  0.00    -0.128 N 
ENDROOT
BRANCH   1   8
ATOM      8  C   UNL d   1      31.417  16.626 -24.199  0.00  0.00     0.274 C 
ATOM      9  N   UNL d   1      31.920  17.220 -23.933  0.00  0.00    -0.267 N 
ATOM     10  C   UNL d   1      31.627  17.989 -23.764  0.00  0.00     0.110 A 
ATOM     11  C   UNL d   1      32.737  17.067 -23.827  0.00  0.00     0.110 A 
ATOM     12  C   UNL d   1      32.146  18.584 -23.495  0.00  0.00     0.142 A 
ATOM     13  O   UNL d   1      32.947  18.417 -23.396  0.00  0.00    -0.300 OA
ATOM     14  C   UNL d   1      33.240  17.661 -23.562  0.00  0.00     0.142 A 
ATOM     15  O   UNL d   1      31.713  15.881 -24.361  0.00  0.00    -0.266 OA
ENDBRANCH   1   8
BRANCH   3  16
ATOM     16  C   UNL d   1      28.546  16.339 -23.884  0.00  0.00     0.067 A 
ATOM     17  C   UNL d   1      28.173  15.745 -24.306  0.00  0.00     0.018 A 
ATOM     18  C   UNL d   1      27.433  15.453 -24.041  0.00  0.00     0.002 A 
ATOM     19  C   UNL d   1      27.090  15.760 -23.368  0.00  0.00     0.000 A 
ATOM     20  C   UNL d   1      27.473  16.363 -22.944  0.00  0.00     0.002 A 
ATOM     21  C   UNL d   1      26.362  15.470 -23.110  0.00  0.00     0.000 C 
ATOM     22  C   UNL d   1      28.199  16.655 -23.198  0.00  0.00     0.018 A 
ENDBRANCH   3  16
TORSDOF 2
ENDMDL
MODEL 6
REMARK VINA RESULT:       0.1      1.877      2.809
REMARK  2 active torsions:
REMARK  status: ('A' for Active; 'I' for Inactive)
REMARK    1  A    between atoms: C_6  and  C_1 
REMARK    2  A    between atoms: C_8  and  N_3 
REMARK       I    between atoms: N_7  and  C_6 
ROOT
ATOM      1  C   UNL d   1      33.032  21.099 -22.354  0.00  0.00     0.124 A 
ATOM      2  C   UNL d   1      32.933  20.665 -23.065  0.00  0.00     0.181 A 
ATOM      3  N   UNL d   1      33.002  19.851 -22.875  0.00  0.00    -0.276 N 
ATOM      4  C   UNL d   1      33.140  19.782 -22.064  0.00  0.00     0.152 A 
ATOM      5  S   UNL d   1      33.162  20.550 -21.727  0.00  0.00    -0.051 SA
ATOM      6  S   UNL d   1      33.241  19.083 -21.652  0.00  0.00    -0.052 SA
ATOM      7  N   UNL d   1      32.797  21.065 -23.772  0.00  0.00    -0.128 N 
ENDROOT
BRANCH   1   8
ATOM      8  C   UNL d   1      32.996  21.919 -22.346  0.00  0.00     0.274 C 
ATOM      9  N   UNL d   1      32.758  22.309 -21.662  0.00  0.00    -0.267 N 
ATOM     10  C   UNL d   1      32.552  21.879 -20.972  0.00  0.00     0.110 A 
ATOM     11  C   UNL d   1      32.718  23.146 -21.645  0.00  0.00     0.110 A 
ATOM     12  C   UNL d   1      32.312  22.284 -20.283  0.00  0.00     0.142 A 
ATOM     13  O   UNL d   1      32.278  23.108 -20.282  0.00  0.00    -0.300 OA
ATOM     14  C   UNL d   1      32.480  23.535 -20.961  0.00  0.00     0.142 A 
ATOM     15  O   UNL d   1      33.196  22.348 -23.014  0.00  0.00    -0.266 OA
ENDBRANCH   1   8
BRANCH   3  16
ATOM     16  C   UNL d   1      32.939  19.224 -23.424  0.00  0.00     0.067 A 
ATOM     17  C   UNL d   1      32.584  18.520 -23.206  0.00  0.00     0.018 A 
ATOM     18  C   UNL d   1      32.525  17.897 -23.765  0.00  0.00     0.002 A 
ATOM     19  C   UNL d   1      32.820  17.996 -24.518  0.00  0.00     0.000 A 
ATOM     20  C   UNL d   1      33.180  18.713 -24.734  0.00  0.00     0.002 A 
ATOM     21  C   UNL d   1      32.761  17.381 -25.065  0.00  0.00     0.000 C 
ATOM     22  C   UNL d   1      33.241  19.328 -24.191  0.00  0.00     0.018 A 
ENDBRANCH   3  16
TORSDOF 2
ENDMDL
