MODEL 1
REMARK VINA RESULT:      35.0      0.000      0.000
REMARK  5 active torsions:
REMARK  status: ('A' for Active; 'I' for Inactive)
REMARK    1  A    between atoms: C_3  and  C_1 
REMARK    2  A    between atoms: N_4  and  C_3 
REMARK    3  A    between atoms: C_6  and  C_3 
REMARK    4  A    between atoms: C_21  and  N_9 
REMARK    5  A    between atoms: C_25  and  C_21 
ROOT
ATOM      1  C   UNL d   1      46.174 -18.546  43.599  0.00  0.00     0.073 C 
ENDROOT
BRANCH   1   2
ATOM      2  C   UNL d   1      46.105 -17.784  43.933  0.00  0.00     0.057 A 
ATOM      3  C   UNL d   1      45.527 -17.250  43.684  0.00  0.00     0.214 A 
ATOM      4  C   UNL d   1      45.466 -16.504  44.017  0.00  0.00     0.120 A 
ATOM      5  O   UNL d   1      45.006 -17.472  43.092  0.00  0.00    -0.285 OA
ATOM      6  N   UNL d   1      44.898 -15.990  43.766  0.00  0.00    -0.241 NA
ATOM      7  C   UNL d   1      45.991 -16.281  44.614  0.00  0.00     0.021 A 
ATOM      8  C   UNL d   1      44.835 -15.241  44.099  0.00  0.00     0.099 A 
ATOM      9  C   UNL d   1      45.361 -15.018  44.696  0.00  0.00     0.021 A 
ATOM     10  C   UNL d   1      45.944 -15.546  44.953  0.00  0.00     0.003 A 
ATOM     11  C   UNL d   1      46.573 -16.806  44.871  0.00  0.00     0.002 A 
ATOM     12  C   UNL d   1      46.630 -17.561  44.530  0.00  0.00     0.005 A 
ENDBRANCH   1   2
BRANCH   1  13
ATOM     13  N   UNL d   1      46.290 -18.615  42.791  0.00  0.00    -0.301 N 
ATOM     14  C   UNL d   1      46.176 -19.344  42.413  0.00  0.00     0.100 A 
ATOM     15  C   UNL d   1      46.288 -19.427  41.607  0.00  0.00     0.100 A 
ATOM     16  N   UNL d   1      46.525 -18.753  41.156  0.00  0.00    -0.297 N 
ATOM     17  C   UNL d   1      46.641 -18.029  41.516  0.00  0.00     0.100 A 
ATOM     18  C   UNL d   1      46.522 -17.959  42.345  0.00  0.00     0.100 A 
BRANCH  16  19
ATOM     19  C   UNL d   1      46.641 -18.822  40.345  0.00  0.00     0.126 C 
BRANCH  19  20
ATOM     20  C   UNL d   1      46.204 -19.348  39.907  0.00  0.00     0.253 C 
ATOM     21  O   UNL d   1      46.568 -19.985  39.528  0.00  0.00    -0.281 OA
ENDBRANCH  19  20
ENDBRANCH  16  19
ENDBRANCH   1  13
BRANCH   1  22
ATOM     22  C   UNL d   1      46.127 -19.206  44.075  0.00  0.00     0.046 A 
ATOM     23  S   UNL d   1      45.490 -19.720  44.024  0.00  0.00    -0.085 SA
ATOM     24  C   UNL d   1      45.607 -20.305  44.558  0.00  0.00     0.035 A 
ATOM     25  C   UNL d   1      46.315 -20.172  44.953  0.00  0.00     0.007 A 
ATOM     26  C   UNL d   1      46.644 -19.489  44.657  0.00  0.00     0.009 A 
ENDBRANCH   1  22
TORSDOF 5
ENDMDL
