MODEL 1
REMARK VINA RESULT:      64.1      0.000      0.000
REMARK  7 active torsions:
REMARK  status: ('A' for Active; 'I' for Inactive)
REMARK    1  A    between atoms: C_11  and  C_1 
REMARK    2  A    between atoms: C_12  and  C_3 
REMARK    3  A    between atoms: C_10  and  C_5 
REMARK    4  A    between atoms: O_21  and  C_11 
REMARK    5  A    between atoms: O_22  and  C_12 
REMARK    6  A    between atoms: O_23  and  C_14 
REMARK    7  A    between atoms: O_24  and  C_17 
ROOT
ATOM      1  C   UNL d   1     -58.681 -99.058 -44.114  0.00  0.00     0.075 A 
ATOM      2  C   UNL d   1     -57.045 -99.003 -43.964  0.00  0.00     0.121 A 
ATOM      3  C   UNL d   1     -58.326 -99.084 -43.366  0.00  0.00     0.099 A 
ATOM      4  C   UNL d   1     -57.391 -98.977 -44.715  0.00  0.00     0.058 A 
ATOM      5  C   UNL d   1     -58.216 -99.005 -44.785  0.00  0.00     0.014 A 
ATOM      6  S   UNL d   1     -57.510 -99.056 -43.294  0.00  0.00    -0.062 SA
ATOM      7  N   UNL d   1     -56.228 -98.966 -44.068  0.00  0.00    -0.195 NA
ATOM      8  C   UNL d   1     -56.068 -98.918 -44.871  0.00  0.00     0.311 A 
ATOM      9  S   UNL d   1     -56.788 -98.924 -45.275  0.00  0.00    -0.024 SA
ATOM     10  O   UNL d   1     -55.322 -98.870 -45.222  0.00  0.00    -0.258 OA
ENDROOT
BRANCH   5  11
ATOM     11  C   UNL d   1     -58.559 -98.980 -45.532  0.00  0.00     0.003 A 
ATOM     12  C   UNL d   1     -58.099 -99.086 -46.198  0.00  0.00     0.026 A 
ATOM     13  C   UNL d   1     -58.448 -99.059 -46.946  0.00  0.00     0.116 A 
ATOM     14  C   UNL d   1     -59.260 -98.926 -47.017  0.00  0.00     0.116 A 
ATOM     15  C   UNL d   1     -59.721 -98.819 -46.340  0.00  0.00     0.026 A 
ATOM     16  C   UNL d   1     -59.374 -98.846 -45.601  0.00  0.00     0.002 A 
BRANCH  13  17
ATOM     17  O   UNL d   1     -57.985 -99.166 -47.620  0.00  0.00    -0.326 OA
ATOM     18  C   UNL d   1     -58.168 -98.757 -48.315  0.00  0.00     0.181 C 
ENDBRANCH  13  17
BRANCH  14  19
ATOM     19  O   UNL d   1     -59.610 -98.899 -47.766  0.00  0.00    -0.326 OA
ATOM     20  C   UNL d   1     -59.948 -99.579 -48.087  0.00  0.00     0.181 C 
ENDBRANCH  14  19
ENDBRANCH   5  11
BRANCH   1  21
ATOM     21  C   UNL d   1     -59.500 -99.087 -44.183  0.00  0.00     0.296 C 
ATOM     22  O   UNL d   1     -59.863 -98.879 -44.895  0.00  0.00    -0.259 OA
BRANCH  21  23
ATOM     23  O   UNL d   1     -59.961 -99.322 -43.540  0.00  0.00    -0.296 OA
ATOM     24  C   UNL d   1     -59.952 -98.878 -42.849  0.00  0.00     0.185 C 
ENDBRANCH  21  23
ENDBRANCH   1  21
BRANCH   3  25
ATOM     25  C   UNL d   1     -58.791 -99.137 -42.695  0.00  0.00     0.302 C 
ATOM     26  O   UNL d   1     -58.568 -98.758 -41.998  0.00  0.00    -0.259 OA
BRANCH  25  27
ATOM     27  O   UNL d   1     -59.492 -99.573 -42.713  0.00  0.00    -0.295 OA
ATOM     28  C   UNL d   1     -59.895 -99.730 -42.009  0.00  0.00     0.185 C 
ENDBRANCH  25  27
ENDBRANCH   3  25
TORSDOF 7
ENDMDL
