MODEL 1
REMARK VINA RESULT:      20.2      0.000      0.000
REMARK  2 active torsions:
REMARK  status: ('A' for Active; 'I' for Inactive)
REMARK    1  A    between atoms: C_6  and  C_1 
REMARK    2  A    between atoms: O_12  and  C_9 
ROOT
ATOM      1  C   UNL d   1      14.277  12.594  -2.350  0.00  0.00     0.162 A 
ATOM      2  N   UNL d   1      14.294  13.368  -1.998  0.00  0.00    -0.225 NA
ATOM      3  N   UNL d   1      14.700  12.092  -1.851  0.00  0.00    -0.225 NA
ATOM      4  C   UNL d   1      14.715  13.319  -1.313  0.00  0.00     0.101 A 
ATOM      5  C   UNL d   1      14.972  12.510  -1.220  0.00  0.00     0.101 A 
ATOM      6  C   UNL d   1      14.943  13.839  -0.713  0.00  0.00     0.021 A 
ATOM      7  C   UNL d   1      15.419  12.293  -0.562  0.00  0.00     0.021 A 
ATOM      8  C   UNL d   1      15.605  12.850  -0.016  0.00  0.00     0.002 A 
ATOM      9  C   UNL d   1      15.356  13.632  -0.106  0.00  0.00     0.002 A 
ENDROOT
BRANCH   1  10
ATOM     10  C   UNL d   1      13.905  12.394  -3.059  0.00  0.00     0.036 A 
ATOM     11  C   UNL d   1      13.190  11.982  -3.047  0.00  0.00     0.005 A 
ATOM     12  C   UNL d   1      12.818  11.781  -3.756  0.00  0.00     0.024 A 
ATOM     13  C   UNL d   1      13.160  11.993  -4.475  0.00  0.00     0.094 A 
ATOM     14  C   UNL d   1      13.877  12.407  -4.490  0.00  0.00     0.024 A 
ATOM     15  C   UNL d   1      14.250  12.607  -3.781  0.00  0.00     0.005 A 
BRANCH  13  16
ATOM     16  O   UNL d   1      12.787  11.793  -5.184  0.00  0.00    -0.328 OA
ATOM     17  C   UNL d   1      12.774  11.792  -6.009  0.00  0.00     0.181 C 
ENDBRANCH  13  16
ENDBRANCH   1  10
TORSDOF 2
ENDMDL
