MODEL 1
REMARK VINA RESULT:      67.1      0.000      0.000
REMARK  5 active torsions:
REMARK  status: ('A' for Active; 'I' for Inactive)
REMARK    1  A    between atoms: C_6  and  C_1 
REMARK    2  A    between atoms: C_11  and  N_3 
REMARK    3  A    between atoms: C_16  and  C_11 
REMARK    4  A    between atoms: C_13  and  O_15 
REMARK    5  A    between atoms: O_15  and  C_16 
ROOT
ATOM      1  C   UNL d   1     -51.705  25.265  33.899  0.00  0.00     0.171 A 
ATOM      2  N   UNL d   1     -51.199  25.552  33.310  0.00  0.00    -0.225 NA
ATOM      3  N   UNL d   1     -51.583  25.717  34.587  0.00  0.00    -0.286 N 
ATOM      4  C   UNL d   1     -51.002  26.283  34.423  0.00  0.00     0.083 A 
ATOM      5  C   UNL d   1     -50.764  26.182  33.633  0.00  0.00     0.099 A 
ATOM      6  C   UNL d   1     -50.650  26.885  34.883  0.00  0.00     0.019 A 
ATOM      7  C   UNL d   1     -50.180  26.677  33.308  0.00  0.00     0.021 A 
ATOM      8  C   UNL d   1     -50.071  27.374  34.557  0.00  0.00     0.002 A 
ATOM      9  C   UNL d   1     -49.835  27.270  33.767  0.00  0.00     0.002 A 
ENDROOT
BRANCH   3  10
ATOM     10  C   UNL d   1     -52.053  25.493  35.228  0.00  0.00     0.108 C 
BRANCH  10  11
ATOM     11  C   UNL d   1     -52.008  25.914  35.936  0.00  0.00     0.142 C 
BRANCH  11  12
ATOM     12  O   UNL d   1     -52.593  25.815  36.510  0.00  0.00    -0.304 OA
BRANCH  12  13
ATOM     13  C   UNL d   1     -52.384  25.787  37.308  0.00  0.00     0.100 A 
ATOM     14  C   UNL d   1     -52.725  25.211  37.793  0.00  0.00     0.025 A 
ATOM     15  C   UNL d   1     -52.519  25.179  38.593  0.00  0.00     0.002 A 
ATOM     16  C   UNL d   1     -52.854  24.608  39.085  0.00  0.00     0.000 C 
ATOM     17  C   UNL d   1     -51.973  25.724  38.900  0.00  0.00     0.000 A 
ATOM     18  C   UNL d   1     -51.638  26.295  38.408  0.00  0.00     0.002 A 
ATOM     19  C   UNL d   1     -51.847  26.324  37.610  0.00  0.00     0.025 A 
ENDBRANCH  12  13
ENDBRANCH  11  12
ENDBRANCH  10  11
ENDBRANCH   3  10
BRANCH   1  20
ATOM     20  C   UNL d   1     -52.237  24.639  33.819  0.00  0.00     0.134 A 
ATOM     21  O   UNL d   1     -52.184  23.921  33.804  0.00  0.00    -0.302 OA
ATOM     22  C   UNL d   1     -52.771  23.515  33.724  0.00  0.00     0.123 A 
ATOM     23  C   UNL d   1     -53.423  23.827  33.656  0.00  0.00     0.029 A 
ATOM     24  C   UNL d   1     -53.474  24.543  33.671  0.00  0.00     0.030 A 
ENDBRANCH   1  20
TORSDOF 5
ENDMDL
MODEL 2
REMARK VINA RESULT:      69.4      3.130      4.252
REMARK  5 active torsions:
REMARK  status: ('A' for Active; 'I' for Inactive)
REMARK    1  A    between atoms: C_6  and  C_1 
REMARK    2  A    between atoms: C_11  and  N_3 
REMARK    3  A    between atoms: C_16  and  C_11 
REMARK    4  A    between atoms: C_13  and  O_15 
REMARK    5  A    between atoms: O_15  and  C_16 
ROOT
ATOM      1  C   UNL d   1     -50.395  25.455  33.452  0.00  0.00     0.171 A 
ATOM      2  N   UNL d   1     -51.184  25.206  33.419  0.00  0.00    -0.225 NA
ATOM      3  N   UNL d   1     -50.385  26.287  33.436  0.00  0.00    -0.286 N 
ATOM      4  C   UNL d   1     -51.168  26.553  33.393  0.00  0.00     0.083 A 
ATOM      5  C   UNL d   1     -51.663  25.885  33.382  0.00  0.00     0.099 A 
ATOM      6  C   UNL d   1     -51.507  27.315  33.361  0.00  0.00     0.019 A 
ATOM      7  C   UNL d   1     -52.488  25.980  33.340  0.00  0.00     0.021 A 
ATOM      8  C   UNL d   1     -52.326  27.405  33.320  0.00  0.00     0.002 A 
ATOM      9  C   UNL d   1     -52.818  26.735  33.309  0.00  0.00     0.002 A 
ENDROOT
BRANCH   3  10
ATOM     10  C   UNL d   1     -49.629  26.617  33.466  0.00  0.00     0.108 C 
BRANCH  10  11
ATOM     11  C   UNL d   1     -49.515  27.348  33.833  0.00  0.00     0.142 C 
BRANCH  11  12
ATOM     12  O   UNL d   1     -48.934  27.429  34.413  0.00  0.00    -0.304 OA
BRANCH  12  13
ATOM     13  C   UNL d   1     -48.664  28.180  34.621  0.00  0.00     0.100 A 
ATOM     14  C   UNL d   1     -48.070  28.252  35.190  0.00  0.00     0.025 A 
ATOM     15  C   UNL d   1     -47.795  29.002  35.402  0.00  0.00     0.002 A 
ATOM     16  C   UNL d   1     -47.202  29.082  35.970  0.00  0.00     0.000 C 
ATOM     17  C   UNL d   1     -48.119  29.676  35.040  0.00  0.00     0.000 A 
ATOM     18  C   UNL d   1     -48.712  29.595  34.472  0.00  0.00     0.002 A 
ATOM     19  C   UNL d   1     -48.982  28.844  34.264  0.00  0.00     0.025 A 
ENDBRANCH  12  13
ENDBRANCH  11  12
ENDBRANCH  10  11
ENDBRANCH   3  10
BRANCH   1  20
ATOM     20  C   UNL d   1     -49.733  24.963  33.494  0.00  0.00     0.134 A 
ATOM     21  O   UNL d   1     -49.622  24.267  33.645  0.00  0.00    -0.302 OA
ATOM     22  C   UNL d   1     -48.957  23.996  33.635  0.00  0.00     0.123 A 
ATOM     23  C   UNL d   1     -48.392  24.421  33.473  0.00  0.00     0.029 A 
ATOM     24  C   UNL d   1     -48.505  25.115  33.323  0.00  0.00     0.030 A 
ENDBRANCH   1  20
TORSDOF 5
ENDMDL
