MODEL 1
REMARK VINA RESULT:      19.5      0.000      0.000
REMARK  4 active torsions:
REMARK  status: ('A' for Active; 'I' for Inactive)
REMARK    1  A    between atoms: C_6  and  C_1 
REMARK    2  A    between atoms: N_7  and  C_2 
REMARK    3  A    between atoms: C_8  and  C_5 
REMARK    4  A    between atoms: O_10  and  C_6 
ROOT
ATOM      1  C   UNL d   1     -52.117  24.867  33.527  0.00  0.00     0.186 A 
ATOM      2  C   UNL d   1     -51.325  24.586  33.427  0.00  0.00     0.193 A 
ATOM      3  N   UNL d   1     -52.108  25.676  33.496  0.00  0.00    -0.213 NA
ATOM      4  O   UNL d   1     -50.842  25.275  33.334  0.00  0.00    -0.271 OA
ATOM      5  C   UNL d   1     -51.372  25.928  33.384  0.00  0.00     0.184 A 
ENDROOT
BRANCH   5   6
ATOM      6  C   UNL d   1     -51.378  26.676  33.357  0.00  0.00     0.041 A 
ATOM      7  C   UNL d   1     -50.540  26.661  33.361  0.00  0.00     0.004 A 
ATOM      8  C   UNL d   1     -50.109  27.368  33.338  0.00  0.00     0.000 A 
ATOM      9  C   UNL d   1     -50.515  28.086  33.310  0.00  0.00     0.000 A 
ATOM     10  C   UNL d   1     -51.353  28.100  33.306  0.00  0.00     0.000 A 
ATOM     11  C   UNL d   1     -51.760  27.397  33.330  0.00  0.00     0.004 A 
ENDBRANCH   5   6
BRANCH   1  12
ATOM     12  C   UNL d   1     -52.574  24.332  33.610  0.00  0.00     0.317 C 
ATOM     13  O   UNL d   1     -52.660  23.507  33.309  0.00  0.00    -0.257 OA
BRANCH  12  14
ATOM     14  O   UNL d   1     -53.184  24.296  34.019  0.00  0.00    -0.294 OA
ATOM     15  C   UNL d   1     -53.936  23.916  33.852  0.00  0.00     0.185 C 
ENDBRANCH  12  14
ENDBRANCH   1  12
BRANCH   2  16
ATOM     16  N   UNL d   1     -51.294  23.931  33.447  0.00  0.00    -0.281 N 
ATOM     17  C   UNL d   1     -50.502  23.912  33.307  0.00  0.00     0.101 C 
ATOM     18  C   UNL d   1     -51.699  23.254  33.546  0.00  0.00     0.101 C 
ENDBRANCH   2  16
TORSDOF 4
ENDMDL
