MODEL 1
REMARK VINA RESULT:      12.0      0.000      0.000
REMARK  4 active torsions:
REMARK  status: ('A' for Active; 'I' for Inactive)
REMARK    1  A    between atoms: C_5  and  C_1 
REMARK    2  A    between atoms: O_8  and  C_5 
REMARK    3  A    between atoms: C_11  and  O_8 
REMARK    4  A    between atoms: C_12  and  C_11 
ROOT
ATOM      1  C   UNL d   1      46.340 -18.587  43.551  0.00  0.00     0.127 A 
ATOM      2  C   UNL d   1      46.220 -19.371  43.636  0.00  0.00     0.305 A 
ATOM      3  C   UNL d   1      46.482 -18.249  42.812  0.00  0.00     0.013 A 
ATOM      4  O   UNL d   1      46.231 -19.883  42.989  0.00  0.00    -0.273 OA
ATOM      5  C   UNL d   1      46.494 -18.761  42.164  0.00  0.00     0.023 A 
ATOM      6  C   UNL d   1      46.373 -19.545  42.250  0.00  0.00     0.103 A 
ATOM      7  O   UNL d   1      46.078 -19.708  44.376  0.00  0.00    -0.259 OA
ATOM      8  C   UNL d   1      46.635 -18.424  41.425  0.00  0.00     0.002 A 
ATOM      9  C   UNL d   1      46.385 -20.057  41.603  0.00  0.00     0.025 A 
ATOM     10  C   UNL d   1      46.527 -19.720  40.863  0.00  0.00     0.002 A 
ATOM     11  C   UNL d   1      46.647 -18.936  40.778  0.00  0.00     0.000 A 
ENDROOT
BRANCH   1  12
ATOM     12  C   UNL d   1      46.329 -18.075  44.198  0.00  0.00     0.305 C 
ATOM     13  O   UNL d   1      46.581 -18.321  44.955  0.00  0.00    -0.259 OA
BRANCH  12  14
ATOM     14  O   UNL d   1      46.067 -17.320  44.095  0.00  0.00    -0.271 OA
BRANCH  14  15
ATOM     15  C   UNL d   1      45.759 -16.896  44.709  0.00  0.00     0.126 C 
BRANCH  15  16
ATOM     16  C   UNL d   1      45.645 -16.099  44.652  0.00  0.00     0.025 A 
ATOM     17  C   UNL d   1      44.939 -15.765  44.943  0.00  0.00     0.002 A 
ATOM     18  C   UNL d   1      44.837 -14.934  44.876  0.00  0.00     0.000 A 
ATOM     19  C   UNL d   1      45.395 -14.455  44.542  0.00  0.00     0.000 A 
ATOM     20  C   UNL d   1      46.101 -14.790  44.251  0.00  0.00     0.000 A 
ATOM     21  C   UNL d   1      46.214 -15.587  44.308  0.00  0.00     0.002 A 
ENDBRANCH  15  16
ENDBRANCH  14  15
ENDBRANCH  12  14
ENDBRANCH   1  12
TORSDOF 4
ENDMDL
