MODEL 1
REMARK VINA RESULT:      17.9      0.000      0.000
REMARK  2 active torsions:
REMARK  status: ('A' for Active; 'I' for Inactive)
REMARK    1  A    between atoms: C_2  and  C_1 
REMARK       I    between atoms: N_7  and  C_2 
REMARK    2  A    between atoms: C_9  and  N_7 
ROOT
ATOM      1  C   UNL d   1      45.892 -12.876  44.686  0.00  0.00     0.280 C 
ATOM      2  N   UNL d   1      46.281 -13.559  44.932  0.00  0.00    -0.208 NA
ATOM      3  O   UNL d   1      46.158 -12.139  44.950  0.00  0.00    -0.265 OA
ENDROOT
BRANCH   1   4
ATOM      4  C   UNL d   1      45.242 -12.929  44.181  0.00  0.00     0.065 A 
ATOM      5  C   UNL d   1      45.214 -12.658  43.401  0.00  0.00     0.011 A 
ATOM      6  C   UNL d   1      44.465 -12.825  43.112  0.00  0.00     0.030 A 
ATOM      7  C   UNL d   1      45.768 -12.286  42.926  0.00  0.00     0.001 A 
ATOM      8  C   UNL d   1      44.264 -12.617  42.335  0.00  0.00     0.006 A 
ATOM      9  S   UNL d   1      44.031 -13.196  43.707  0.00  0.00    -0.086 SA
ATOM     10  C   UNL d   1      44.808 -12.251  41.866  0.00  0.00     0.001 A 
ATOM     11  C   UNL d   1      45.566 -12.080  42.152  0.00  0.00     0.000 A 
ATOM     12  C   UNL d   1      44.523 -13.257  44.369  0.00  0.00     0.040 A 
ENDBRANCH   1   4
BRANCH   2  13
ATOM     13  C   UNL d   1      46.016 -14.304  44.668  0.00  0.00     0.085 A 
ATOM     14  C   UNL d   1      46.462 -14.729  44.124  0.00  0.00     0.019 A 
ATOM     15  C   UNL d   1      46.197 -15.470  43.862  0.00  0.00     0.002 A 
ATOM     16  C   UNL d   1      45.487 -15.781  44.144  0.00  0.00     0.000 A 
ATOM     17  C   UNL d   1      45.041 -15.344  44.693  0.00  0.00     0.002 A 
ATOM     18  C   UNL d   1      45.233 -16.523  43.873  0.00  0.00     0.000 C 
ATOM     19  C   UNL d   1      45.305 -14.607  44.954  0.00  0.00     0.019 A 
ENDBRANCH   2  13
TORSDOF 2
ENDMDL
