MODEL 1
REMARK VINA RESULT:      76.9      0.000      0.000
REMARK  5 active torsions:
REMARK  status: ('A' for Active; 'I' for Inactive)
REMARK    1  A    between atoms: C_12  and  N_3 
REMARK    2  A    between atoms: C_10  and  N_7 
REMARK    3  A    between atoms: C_11  and  C_10 
REMARK    4  A    between atoms: C_15  and  C_11 
REMARK    5  A    between atoms: C_16  and  C_12 
ROOT
ATOM      1  C   UNL d   1      60.202  48.433  51.038  0.00  0.00     0.191 A 
ATOM      2  C   UNL d   1      60.918  48.482  50.614  0.00  0.00     0.196 A 
ATOM      3  N   UNL d   1      59.898  49.203  51.101  0.00  0.00    -0.191 N 
ATOM      4  N   UNL d   1      59.936  47.706  51.302  0.00  0.00    -0.204 NA
ATOM      5  N   UNL d   1      61.040  49.281  50.424  0.00  0.00    -0.122 NA
ATOM      6  N   UNL d   1      60.418  49.708  50.722  0.00  0.00    -0.058 NA
ATOM      7  N   UNL d   1      61.083  47.067  50.729  0.00  0.00    -0.251 N 
ATOM      8  C   UNL d   1      61.348  47.802  50.465  0.00  0.00     0.289 A 
ATOM      9  C   UNL d   1      60.367  47.018  51.154  0.00  0.00     0.187 A 
ATOM     10  O   UNL d   1      62.064  47.851  50.041  0.00  0.00    -0.265 OA
ENDROOT
BRANCH   7  11
ATOM     11  C   UNL d   1      61.515  46.372  50.582  0.00  0.00     0.127 C 
BRANCH  11  12
ATOM     12  C   UNL d   1      61.552  46.052  49.813  0.00  0.00     0.213 C 
ATOM     13  O   UNL d   1      61.564  46.557  49.159  0.00  0.00    -0.285 OA
BRANCH  12  14
ATOM     14  C   UNL d   1      61.576  45.238  49.714  0.00  0.00     0.041 A 
ATOM     15  C   UNL d   1      61.727  44.915  48.969  0.00  0.00     0.003 A 
ATOM     16  C   UNL d   1      61.752  44.107  48.866  0.00  0.00     0.000 A 
ATOM     17  C   UNL d   1      61.624  43.608  49.515  0.00  0.00     0.000 A 
ATOM     18  C   UNL d   1      61.473  43.931  50.260  0.00  0.00     0.000 A 
ATOM     19  C   UNL d   1      61.449  44.738  50.362  0.00  0.00     0.003 A 
ENDBRANCH  12  14
ENDBRANCH  11  12
ENDBRANCH   7  11
BRANCH   3  20
ATOM     20  C   UNL d   1      59.186  49.426  51.482  0.00  0.00     0.104 C 
BRANCH  20  21
ATOM     21  C   UNL d   1      58.489  49.521  51.035  0.00  0.00     0.019 A 
ATOM     22  C   UNL d   1      58.525  49.593  50.214  0.00  0.00     0.002 A 
ATOM     23  C   UNL d   1      57.835  49.684  49.797  0.00  0.00     0.000 A 
ATOM     24  C   UNL d   1      57.109  49.708  50.166  0.00  0.00     0.000 A 
ATOM     25  C   UNL d   1      57.074  49.634  51.010  0.00  0.00     0.000 A 
ATOM     26  C   UNL d   1      57.769  49.542  51.433  0.00  0.00     0.002 A 
ENDBRANCH  20  21
ENDBRANCH   3  20
TORSDOF 5
ENDMDL
MODEL 2
REMARK VINA RESULT:      78.7      1.067      4.815
REMARK  5 active torsions:
REMARK  status: ('A' for Active; 'I' for Inactive)
REMARK    1  A    between atoms: C_12  and  N_3 
REMARK    2  A    between atoms: C_10  and  N_7 
REMARK    3  A    between atoms: C_11  and  C_10 
REMARK    4  A    between atoms: C_15  and  C_11 
REMARK    5  A    between atoms: C_16  and  C_12 
ROOT
ATOM      1  C   UNL d   1      61.389  47.339  50.342  0.00  0.00     0.191 A 
ATOM      2  C   UNL d   1      61.616  47.997  49.883  0.00  0.00     0.196 A 
ATOM      3  N   UNL d   1      61.878  46.703  50.123  0.00  0.00    -0.191 N 
ATOM      4  N   UNL d   1      60.780  47.413  50.882  0.00  0.00    -0.204 NA
ATOM      5  N   UNL d   1      62.240  47.753  49.391  0.00  0.00    -0.122 NA
ATOM      6  N   UNL d   1      62.390  46.971  49.545  0.00  0.00    -0.058 NA
ATOM      7  N   UNL d   1      60.613  48.789  50.522  0.00  0.00    -0.251 N 
ATOM      8  C   UNL d   1      61.228  48.710  49.977  0.00  0.00     0.289 A 
ATOM      9  C   UNL d   1      60.386  48.131  50.981  0.00  0.00     0.187 A 
ATOM     10  O   UNL d   1      61.455  49.368  49.518  0.00  0.00    -0.265 OA
ENDROOT
BRANCH   7  11
ATOM     11  C   UNL d   1      60.214  49.511  50.624  0.00  0.00     0.127 C 
BRANCH  11  12
ATOM     12  C   UNL d   1      59.675  49.611  51.251  0.00  0.00     0.213 C 
ATOM     13  O   UNL d   1      59.955  49.700  52.023  0.00  0.00    -0.285 OA
BRANCH  12  14
ATOM     14  C   UNL d   1      58.869  49.621  51.094  0.00  0.00     0.041 A 
ATOM     15  C   UNL d   1      58.599  49.665  50.315  0.00  0.00     0.003 A 
ATOM     16  C   UNL d   1      57.801  49.675  50.154  0.00  0.00     0.000 A 
ATOM     17  C   UNL d   1      57.257  49.641  50.778  0.00  0.00     0.000 A 
ATOM     18  C   UNL d   1      57.527  49.597  51.558  0.00  0.00     0.000 A 
ATOM     19  C   UNL d   1      58.325  49.587  51.717  0.00  0.00     0.003 A 
ENDBRANCH  12  14
ENDBRANCH  11  12
ENDBRANCH   7  11
BRANCH   3  20
ATOM     20  C   UNL d   1      61.853  45.928  50.438  0.00  0.00     0.104 C 
BRANCH  20  21
ATOM     21  C   UNL d   1      61.646  45.288  49.946  0.00  0.00     0.019 A 
ATOM     22  C   UNL d   1      62.119  45.086  49.301  0.00  0.00     0.002 A 
ATOM     23  C   UNL d   1      61.901  44.459  48.833  0.00  0.00     0.000 A 
ATOM     24  C   UNL d   1      61.228  44.025  48.983  0.00  0.00     0.000 A 
ATOM     25  C   UNL d   1      60.742  44.234  49.646  0.00  0.00     0.000 A 
ATOM     26  C   UNL d   1      60.961  44.866  50.120  0.00  0.00     0.002 A 
ENDBRANCH  20  21
ENDBRANCH   3  20
TORSDOF 5
ENDMDL
