MODEL 1
REMARK VINA RESULT:      -2.8      0.000      0.000
REMARK  5 active torsions:
REMARK  status: ('A' for Active; 'I' for Inactive)
REMARK    1  A    between atoms: C_2  and  C_1 
REMARK    2  A    between atoms: C_7  and  C_2 
REMARK    3  A    between atoms: C_9  and  N_3 
REMARK    4  A    between atoms: N_5  and  C_7 
REMARK    5  A    between atoms: O_24  and  C_20 
ROOT
ATOM      1  N   UNL d   1      32.924  21.109 -21.329  0.00  0.00    -0.301 N 
ATOM      2  N   UNL d   1      33.136  19.804 -22.330  0.00  0.00    -0.297 N 
ATOM      3  C   UNL d   1      32.943  21.213 -22.146  0.00  0.00     0.100 A 
ATOM      4  C   UNL d   1      33.010  20.352 -21.012  0.00  0.00     0.100 A 
ATOM      5  C   UNL d   1      33.050  20.559 -22.652  0.00  0.00     0.100 A 
ATOM      6  C   UNL d   1      33.115  19.706 -21.517  0.00  0.00     0.100 A 
ENDROOT
BRANCH   2   7
ATOM      7  C   UNL d   1      33.241  19.160 -22.831  0.00  0.00     0.123 C 
BRANCH   7   8
ATOM      8  C   UNL d   1      32.590  18.750 -23.126  0.00  0.00     0.216 C 
ATOM      9  O   UNL d   1      31.841  19.096 -23.108  0.00  0.00    -0.285 OA
BRANCH   8  10
ATOM     10  C   UNL d   1      32.685  17.988 -23.442  0.00  0.00     0.080 A 
ATOM     11  C   UNL d   1      32.448  17.827 -24.203  0.00  0.00     0.202 A 
ATOM     12  C   UNL d   1      32.542  17.076 -24.516  0.00  0.00     0.084 A 
ATOM     13  O   UNL d   1      32.112  18.426 -24.660  0.00  0.00    -0.286 OA
ATOM     14  C   UNL d   1      32.881  16.469 -24.058  0.00  0.00     0.199 A 
ATOM     15  C   UNL d   1      33.122  16.636 -23.281  0.00  0.00     0.042 A 
ATOM     16  O   UNL d   1      32.974  15.719 -24.373  0.00  0.00    -0.286 OA
ATOM     17  C   UNL d   1      33.026  17.392 -22.971  0.00  0.00     0.010 A 
ENDBRANCH   8  10
ENDBRANCH   7   8
ENDBRANCH   2   7
BRANCH   1  18
ATOM     18  C   UNL d   1      32.819  21.754 -20.834  0.00  0.00     0.064 A 
ATOM     19  C   UNL d   1      33.238  21.801 -20.134  0.00  0.00     0.020 A 
ATOM     20  C   UNL d   1      33.131  22.455 -19.633  0.00  0.00     0.026 A 
ATOM     21  C   UNL d   1      32.603  23.052 -19.843  0.00  0.00     0.094 A 
ATOM     22  C   UNL d   1      32.179  22.997 -20.558  0.00  0.00     0.026 A 
ATOM     23  C   UNL d   1      32.289  22.349 -21.048  0.00  0.00     0.020 A 
BRANCH  21  24
ATOM     24  O   UNL d   1      32.498  23.702 -19.342  0.00  0.00    -0.328 OA
ATOM     25  C   UNL d   1      32.857  23.702 -18.600  0.00  0.00     0.181 C 
ENDBRANCH  21  24
ENDBRANCH   1  18
TORSDOF 5
ENDMDL
MODEL 2
REMARK VINA RESULT:      -2.3      1.000      5.763
REMARK  5 active torsions:
REMARK  status: ('A' for Active; 'I' for Inactive)
REMARK    1  A    between atoms: C_2  and  C_1 
REMARK    2  A    between atoms: C_7  and  C_2 
REMARK    3  A    between atoms: C_9  and  N_3 
REMARK    4  A    between atoms: N_5  and  C_7 
REMARK    5  A    between atoms: O_24  and  C_20 
ROOT
ATOM      1  N   UNL d   1      32.751  18.874 -22.979  0.00  0.00    -0.301 N 
ATOM      2  N   UNL d   1      33.071  20.241 -22.097  0.00  0.00    -0.297 N 
ATOM      3  C   UNL d   1      33.079  18.813 -22.226  0.00  0.00     0.100 A 
ATOM      4  C   UNL d   1      32.583  19.619 -23.292  0.00  0.00     0.100 A 
ATOM      5  C   UNL d   1      33.241  19.499 -21.780  0.00  0.00     0.100 A 
ATOM      6  C   UNL d   1      32.745  20.296 -22.848  0.00  0.00     0.100 A 
ENDROOT
BRANCH   2   7
ATOM      7  C   UNL d   1      33.231  20.917 -21.656  0.00  0.00     0.123 C 
BRANCH   7   8
ATOM      8  C   UNL d   1      32.626  21.440 -21.459  0.00  0.00     0.216 C 
ATOM      9  O   UNL d   1      31.909  21.415 -21.866  0.00  0.00    -0.285 OA
BRANCH   8  10
ATOM     10  C   UNL d   1      32.736  21.993 -20.849  0.00  0.00     0.080 A 
ATOM     11  C   UNL d   1      32.528  22.771 -20.960  0.00  0.00     0.202 A 
ATOM     12  C   UNL d   1      32.636  23.319 -20.360  0.00  0.00     0.084 A 
ATOM     13  O   UNL d   1      32.207  23.009 -21.681  0.00  0.00    -0.286 OA
ATOM     14  C   UNL d   1      32.960  23.083 -19.630  0.00  0.00     0.199 A 
ATOM     15  C   UNL d   1      33.171  22.288 -19.519  0.00  0.00     0.042 A 
ATOM     16  O   UNL d   1      33.067  23.631 -19.031  0.00  0.00    -0.286 OA
ATOM     17  C   UNL d   1      33.061  21.741 -20.125  0.00  0.00     0.010 A 
ENDBRANCH   8  10
ENDBRANCH   7   8
ENDBRANCH   2   7
BRANCH   1  18
ATOM     18  C   UNL d   1      32.593  18.198 -23.416  0.00  0.00     0.064 A 
ATOM     19  C   UNL d   1      33.186  17.653 -23.550  0.00  0.00     0.020 A 
ATOM     20  C   UNL d   1      33.025  16.969 -23.992  0.00  0.00     0.026 A 
ATOM     21  C   UNL d   1      32.267  16.842 -24.293  0.00  0.00     0.094 A 
ATOM     22  C   UNL d   1      31.667  17.403 -24.152  0.00  0.00     0.026 A 
ATOM     23  C   UNL d   1      31.834  18.076 -23.714  0.00  0.00     0.020 A 
BRANCH  21  24
ATOM     24  O   UNL d   1      32.109  16.160 -24.733  0.00  0.00    -0.328 OA
ATOM     25  C   UNL d   1      31.388  15.772 -24.634  0.00  0.00     0.181 C 
ENDBRANCH  21  24
ENDBRANCH   1  18
TORSDOF 5
ENDMDL
MODEL 3
REMARK VINA RESULT:      -0.6      2.320      5.887
REMARK  5 active torsions:
REMARK  status: ('A' for Active; 'I' for Inactive)
REMARK    1  A    between atoms: C_2  and  C_1 
REMARK    2  A    between atoms: C_7  and  C_2 
REMARK    3  A    between atoms: C_9  and  N_3 
REMARK    4  A    between atoms: N_5  and  C_7 
REMARK    5  A    between atoms: O_24  and  C_20 
ROOT
ATOM      1  N   UNL d   1      31.154  17.459 -24.129  0.00  0.00    -0.301 N 
ATOM      2  N   UNL d   1      32.437  18.423 -23.716  0.00  0.00    -0.297 N 
ATOM      3  C   UNL d   1      31.341  18.116 -24.588  0.00  0.00     0.100 A 
ATOM      4  C   UNL d   1      31.607  17.283 -23.463  0.00  0.00     0.100 A 
ATOM      5  C   UNL d   1      31.986  18.603 -24.383  0.00  0.00     0.100 A 
ATOM      6  C   UNL d   1      32.246  17.767 -23.263  0.00  0.00     0.100 A 
ENDROOT
BRANCH   2   7
ATOM      7  C   UNL d   1      33.073  18.905 -23.515  0.00  0.00     0.123 C 
BRANCH   7   8
ATOM      8  C   UNL d   1      33.148  19.199 -22.749  0.00  0.00     0.216 C 
ATOM      9  O   UNL d   1      33.203  18.680 -22.110  0.00  0.00    -0.285 OA
BRANCH   8  10
ATOM     10  C   UNL d   1      33.167  20.020 -22.618  0.00  0.00     0.080 A 
ATOM     11  C   UNL d   1      33.150  20.314 -21.861  0.00  0.00     0.202 A 
ATOM     12  C   UNL d   1      33.169  21.122 -21.730  0.00  0.00     0.084 A 
ATOM     13  O   UNL d   1      33.112  19.794 -21.222  0.00  0.00    -0.286 OA
ATOM     14  C   UNL d   1      33.206  21.651 -22.372  0.00  0.00     0.199 A 
ATOM     15  C   UNL d   1      33.224  21.348 -23.145  0.00  0.00     0.042 A 
ATOM     16  O   UNL d   1      33.225  22.459 -22.240  0.00  0.00    -0.286 OA
ATOM     17  C   UNL d   1      33.205  20.535 -23.272  0.00  0.00     0.010 A 
ENDBRANCH   8  10
ENDBRANCH   7   8
ENDBRANCH   2   7
BRANCH   1  18
ATOM     18  C   UNL d   1      30.518  16.981 -24.333  0.00  0.00     0.064 A 
ATOM     19  C   UNL d   1      29.769  17.302 -24.386  0.00  0.00     0.020 A 
ATOM     20  C   UNL d   1      29.127  16.818 -24.593  0.00  0.00     0.026 A 
ATOM     21  C   UNL d   1      29.248  16.016 -24.743  0.00  0.00     0.094 A 
ATOM     22  C   UNL d   1      30.015  15.695 -24.687  0.00  0.00     0.026 A 
ATOM     23  C   UNL d   1      30.644  16.180 -24.482  0.00  0.00     0.020 A 
BRANCH  21  24
ATOM     24  O   UNL d   1      28.606  15.536 -24.949  0.00  0.00    -0.328 OA
ATOM     25  C   UNL d   1      27.911  15.581 -24.509  0.00  0.00     0.181 C 
ENDBRANCH  21  24
ENDBRANCH   1  18
TORSDOF 5
ENDMDL
