MODEL 1
REMARK VINA RESULT:      41.6      0.000      0.000
REMARK  1 active torsions:
REMARK  status: ('A' for Active; 'I' for Inactive)
REMARK    1  A    between atoms: N_14  and  C_8 
ROOT
ATOM      1  C   UNL d   1      58.255  49.551  50.383  0.00  0.00     0.056 A 
ATOM      2  C   UNL d   1      60.466  49.646  51.500  0.00  0.00     0.074 A 
ATOM      3  C   UNL d   1      58.208  49.530  49.559  0.00  0.00    -0.012 A 
ATOM      4  C   UNL d   1      58.989  49.583  50.753  0.00  0.00    -0.016 A 
ATOM      5  C   UNL d   1      60.419  49.624  50.672  0.00  0.00    -0.014 A 
ATOM      6  C   UNL d   1      59.686  49.593  50.301  0.00  0.00    -0.007 A 
ATOM      7  C   UNL d   1      58.897  49.540  49.111  0.00  0.00    -0.004 A 
ATOM      8  C   UNL d   1      61.266  49.675  51.705  0.00  0.00     0.089 A 
ATOM      9  C   UNL d   1      59.770  49.636  51.952  0.00  0.00    -0.017 A 
ATOM     10  C   UNL d   1      59.639  49.571  49.478  0.00  0.00    -0.001 A 
ATOM     11  C   UNL d   1      59.036  49.604  51.582  0.00  0.00    -0.008 A 
ATOM     12  C   UNL d   1      57.567  49.541  50.835  0.00  0.00    -0.015 A 
ATOM     13  C   UNL d   1      61.191  49.640  50.369  0.00  0.00    -0.002 A 
ATOM     14  C   UNL d   1      57.475  49.498  49.192  0.00  0.00     0.038 A 
ATOM     15  C   UNL d   1      61.707  49.672  51.016  0.00  0.00     0.017 A 
ATOM     16  C   UNL d   1      56.828  49.510  50.464  0.00  0.00     0.038 A 
ATOM     17  C   UNL d   1      56.782  49.488  49.641  0.00  0.00     0.195 A 
ATOM     18  C   UNL d   1      58.301  49.573  51.210  0.00  0.00     0.013 C 
ATOM     19  C   UNL d   1      60.512  49.667  52.323  0.00  0.00     0.015 C 
ATOM     20  O   UNL d   1      56.049  49.457  49.273  0.00  0.00    -0.287 OA
ENDROOT
BRANCH   8  21
ATOM     21  N   UNL d   1      61.560  49.703  52.476  0.00  0.00    -0.131 NA
ATOM     22  N   UNL d   1      62.365  49.620  52.657  0.00  0.00    -0.023 N 
ENDBRANCH   8  21
TORSDOF 1
ENDMDL
