MODEL 1
REMARK VINA RESULT:      49.2      0.000      0.000
REMARK  1 active torsions:
REMARK  status: ('A' for Active; 'I' for Inactive)
REMARK    1  A    between atoms: C_7  and  N_1 
ROOT
ATOM      1  N   UNL d   1     -54.717-101.453 -42.101  0.00  0.00    -0.242 N 
ATOM      2  C   UNL d   1     -54.717-100.659 -42.177  0.00  0.00     0.267 A 
ATOM      3  C   UNL d   1     -54.715-101.992 -42.756  0.00  0.00     0.267 A 
ATOM      4  C   UNL d   1     -54.715-100.347 -42.949  0.00  0.00     0.057 A 
ATOM      5  C   UNL d   1     -54.714-101.640 -43.496  0.00  0.00     0.057 A 
ATOM      6  C   UNL d   1     -54.714-100.821 -43.575  0.00  0.00     0.009 A 
ATOM      7  O   UNL d   1     -54.716-102.810 -42.678  0.00  0.00    -0.267 OA
ATOM      8  O   UNL d   1     -54.718-100.158 -41.522  0.00  0.00    -0.267 OA
ATOM      9  C   UNL d   1     -54.713-100.503 -44.347  0.00  0.00     0.000 A 
ATOM     10  C   UNL d   1     -54.713-102.140 -44.153  0.00  0.00     0.005 A 
ATOM     11  C   UNL d   1     -54.715 -99.515 -43.028  0.00  0.00     0.005 A 
ATOM     12  C   UNL d   1     -54.712-101.828 -44.899  0.00  0.00     0.000 A 
ATOM     13  C   UNL d   1     -54.714 -99.171 -43.768  0.00  0.00     0.000 A 
ATOM     14  C   UNL d   1     -54.712-101.008 -44.977  0.00  0.00     0.000 A 
ATOM     15  C   UNL d   1     -54.713 -99.703 -44.436  0.00  0.00     0.000 A 
ENDROOT
BRANCH   1  16
ATOM     16  C   UNL d   1     -54.718-101.764 -41.330  0.00  0.00     0.070 A 
ATOM     17  C   UNL d   1     -54.712-102.588 -41.195  0.00  0.00     0.021 A 
ATOM     18  C   UNL d   1     -54.713-102.877 -40.444  0.00  0.00     0.043 A 
ATOM     19  C   UNL d   1     -54.720-102.354 -39.753  0.00  0.00     0.196 A 
ATOM     20  C   UNL d   1     -54.726-101.535 -39.874  0.00  0.00     0.043 A 
ATOM     21  O   UNL d   1     -54.722-102.616 -38.931  0.00  0.00    -0.287 OA
ATOM     22  C   UNL d   1     -54.725-101.246 -40.669  0.00  0.00     0.021 A 
ENDBRANCH   1  16
TORSDOF 1
ENDMDL
MODEL 2
REMARK VINA RESULT:      50.4      0.479      1.866
REMARK  1 active torsions:
REMARK  status: ('A' for Active; 'I' for Inactive)
REMARK    1  A    between atoms: C_7  and  N_1 
ROOT
ATOM      1  N   UNL d   1     -54.712-101.272 -42.586  0.00  0.00    -0.242 N 
ATOM      2  C   UNL d   1     -54.712-101.752 -43.224  0.00  0.00     0.267 A 
ATOM      3  C   UNL d   1     -54.712-100.425 -42.632  0.00  0.00     0.267 A 
ATOM      4  C   UNL d   1     -54.712-101.393 -43.976  0.00  0.00     0.057 A 
ATOM      5  C   UNL d   1     -54.712-100.117 -43.391  0.00  0.00     0.057 A 
ATOM      6  C   UNL d   1     -54.712-100.612 -44.049  0.00  0.00     0.009 A 
ATOM      7  O   UNL d   1     -54.712 -99.930 -41.976  0.00  0.00    -0.267 OA
ATOM      8  O   UNL d   1     -54.712-102.574 -43.150  0.00  0.00    -0.267 OA
ATOM      9  C   UNL d   1     -54.712-100.257 -44.805  0.00  0.00     0.000 A 
ATOM     10  C   UNL d   1     -54.712 -99.294 -43.466  0.00  0.00     0.005 A 
ATOM     11  C   UNL d   1     -54.712-101.897 -44.642  0.00  0.00     0.005 A 
ATOM     12  C   UNL d   1     -54.711 -98.955 -44.200  0.00  0.00     0.000 A 
ATOM     13  C   UNL d   1     -54.712-101.584 -45.396  0.00  0.00     0.000 A 
ATOM     14  C   UNL d   1     -54.711 -99.451 -44.857  0.00  0.00     0.000 A 
ATOM     15  C   UNL d   1     -54.712-100.732 -45.455  0.00  0.00     0.000 A 
ENDROOT
BRANCH   1  16
ATOM     16  C   UNL d   1     -54.712-101.631 -41.836  0.00  0.00     0.070 A 
ATOM     17  C   UNL d   1     -54.712-101.174 -41.138  0.00  0.00     0.021 A 
ATOM     18  C   UNL d   1     -54.712-101.532 -40.418  0.00  0.00     0.043 A 
ATOM     19  C   UNL d   1     -54.713-102.395 -40.336  0.00  0.00     0.196 A 
ATOM     20  C   UNL d   1     -54.713-102.859 -41.022  0.00  0.00     0.043 A 
ATOM     21  O   UNL d   1     -54.713-102.824 -39.588  0.00  0.00    -0.287 OA
ATOM     22  C   UNL d   1     -54.713-102.468 -41.772  0.00  0.00     0.021 A 
ENDBRANCH   1  16
TORSDOF 1
ENDMDL
