MODEL 1
REMARK VINA RESULT:     122.4      0.000      0.000
REMARK  5 active torsions:
REMARK  status: ('A' for Active; 'I' for Inactive)
REMARK    1  A    between atoms: C_7  and  C_1 
REMARK    2  A    between atoms: C_8  and  C_2 
REMARK    3  A    between atoms: O_22  and  C_8 
REMARK    4  A    between atoms: C_24  and  C_14 
REMARK    5  A    between atoms: C_27  and  O_22 
ROOT
ATOM      1  C   UNL d   1      60.989  47.567  51.112  0.00  0.00     0.067 A 
ATOM      2  C   UNL d   1      61.143  47.866  50.359  0.00  0.00     0.166 A 
ATOM      3  C   UNL d   1      61.068  46.754  51.257  0.00  0.00     0.200 A 
ATOM      4  C   UNL d   1      61.300  46.246  50.652  0.00  0.00     0.062 A 
ATOM      5  O   UNL d   1      61.376  47.352  49.750  0.00  0.00    -0.301 OA
ATOM      6  C   UNL d   1      61.454  46.545  49.898  0.00  0.00     0.106 A 
ATOM      7  C   UNL d   1      61.378  45.441  50.799  0.00  0.00     0.008 A 
ATOM      8  C   UNL d   1      61.685  46.039  49.292  0.00  0.00     0.067 A 
ATOM      9  C   UNL d   1      61.763  45.232  49.440  0.00  0.00     0.198 A 
ATOM     10  C   UNL d   1      61.609  44.933  50.194  0.00  0.00     0.039 A 
ATOM     11  O   UNL d   1      60.915  46.456  52.010  0.00  0.00    -0.286 OA
ATOM     12  O   UNL d   1      61.997  44.713  48.830  0.00  0.00    -0.286 OA
ENDROOT
BRANCH   1  13
ATOM     13  C   UNL d   1      60.757  48.075  51.717  0.00  0.00     0.007 A 
ATOM     14  C   UNL d   1      59.955  48.170  51.895  0.00  0.00     0.027 A 
ATOM     15  C   UNL d   1      59.725  48.678  52.500  0.00  0.00     0.123 A 
ATOM     16  O   UNL d   1      58.923  48.769  52.673  0.00  0.00    -0.301 OA
ATOM     17  C   UNL d   1      60.293  49.093  52.930  0.00  0.00     0.123 A 
ATOM     18  C   UNL d   1      58.691  49.288  53.292  0.00  0.00     0.149 A 
ATOM     19  C   UNL d   1      59.254  49.707  53.727  0.00  0.00     0.149 A 
ATOM     20  O   UNL d   1      60.059  49.611  53.547  0.00  0.00    -0.301 OA
ATOM     21  C   UNL d   1      61.096  48.999  52.753  0.00  0.00     0.027 A 
ATOM     22  C   UNL d   1      61.326  48.491  52.148  0.00  0.00     0.002 A 
ENDBRANCH   1  13
BRANCH   2  23
ATOM     23  C   UNL d   1      61.064  48.677  50.212  0.00  0.00     0.323 C 
ATOM     24  O   UNL d   1      61.683  49.190  50.394  0.00  0.00    -0.257 OA
BRANCH  23  25
ATOM     25  O   UNL d   1      60.367  48.970  49.884  0.00  0.00    -0.270 OA
BRANCH  25  26
ATOM     26  C   UNL d   1      60.391  49.634  49.398  0.00  0.00     0.126 C 
ATOM     27  C   UNL d   1      60.986  49.705  48.832  0.00  0.00     0.029 C 
ENDBRANCH  25  26
ENDBRANCH  23  25
ENDBRANCH   2  23
BRANCH  10  28
ATOM     28  C   UNL d   1      61.688  44.123  50.340  0.00  0.00     0.003 C 
ATOM     29  C   UNL d   1      61.453  43.804  51.063  0.00  0.00     0.000 C 
ENDBRANCH  10  28
TORSDOF 5
ENDMDL
MODEL 2
REMARK VINA RESULT:     123.7      1.352      4.981
REMARK  5 active torsions:
REMARK  status: ('A' for Active; 'I' for Inactive)
REMARK    1  A    between atoms: C_7  and  C_1 
REMARK    2  A    between atoms: C_8  and  C_2 
REMARK    3  A    between atoms: O_22  and  C_8 
REMARK    4  A    between atoms: C_24  and  C_14 
REMARK    5  A    between atoms: C_27  and  O_22 
ROOT
ATOM      1  C   UNL d   1      61.179  45.944  50.454  0.00  0.00     0.067 A 
ATOM      2  C   UNL d   1      60.615  45.887  51.053  0.00  0.00     0.166 A 
ATOM      3  C   UNL d   1      61.428  46.691  50.192  0.00  0.00     0.200 A 
ATOM      4  C   UNL d   1      61.115  47.374  50.529  0.00  0.00     0.062 A 
ATOM      5  O   UNL d   1      60.300  46.577  51.391  0.00  0.00    -0.301 OA
ATOM      6  C   UNL d   1      60.551  47.317  51.128  0.00  0.00     0.106 A 
ATOM      7  C   UNL d   1      61.364  48.112  50.267  0.00  0.00     0.008 A 
ATOM      8  C   UNL d   1      60.236  47.999  51.466  0.00  0.00     0.067 A 
ATOM      9  C   UNL d   1      60.487  48.738  51.203  0.00  0.00     0.198 A 
ATOM     10  C   UNL d   1      61.051  48.795  50.603  0.00  0.00     0.039 A 
ATOM     11  O   UNL d   1      61.992  46.748  49.593  0.00  0.00    -0.286 OA
ATOM     12  O   UNL d   1      60.172  49.433  51.541  0.00  0.00    -0.286 OA
ENDROOT
BRANCH   1  13
ATOM     13  C   UNL d   1      61.493  45.261  50.117  0.00  0.00     0.007 A 
ATOM     14  C   UNL d   1      61.871  44.701  50.593  0.00  0.00     0.027 A 
ATOM     15  C   UNL d   1      62.185  44.019  50.256  0.00  0.00     0.123 A 
ATOM     16  O   UNL d   1      62.562  43.462  50.736  0.00  0.00    -0.301 OA
ATOM     17  C   UNL d   1      62.122  43.893  49.444  0.00  0.00     0.123 A 
ATOM     18  C   UNL d   1      62.880  42.767  50.388  0.00  0.00     0.149 A 
ATOM     19  C   UNL d   1      62.821  42.634  49.575  0.00  0.00     0.149 A 
ATOM     20  O   UNL d   1      62.440  43.198  49.099  0.00  0.00    -0.301 OA
ATOM     21  C   UNL d   1      61.743  44.453  48.967  0.00  0.00     0.027 A 
ATOM     22  C   UNL d   1      61.430  45.135  49.305  0.00  0.00     0.002 A 
ENDBRANCH   1  13
BRANCH   2  23
ATOM     23  C   UNL d   1      60.365  45.144  51.316  0.00  0.00     0.323 C 
ATOM     24  O   UNL d   1      60.734  44.790  51.964  0.00  0.00    -0.257 OA
BRANCH  23  25
ATOM     25  O   UNL d   1      59.748  44.757  50.931  0.00  0.00    -0.270 OA
BRANCH  25  26
ATOM     26  C   UNL d   1      59.068  44.553  51.348  0.00  0.00     0.126 C 
ATOM     27  C   UNL d   1      58.342  44.529  50.961  0.00  0.00     0.029 C 
ENDBRANCH  25  26
ENDBRANCH  23  25
ENDBRANCH   2  23
BRANCH  10  28
ATOM     28  C   UNL d   1      61.300  49.539  50.341  0.00  0.00     0.003 C 
ATOM     29  C   UNL d   1      61.335  49.708  49.535  0.00  0.00     0.000 C 
ENDBRANCH  10  28
TORSDOF 5
ENDMDL
