MODEL 1
REMARK VINA RESULT:      -8.7      0.000      0.000
REMARK  4 active torsions:
REMARK  status: ('A' for Active; 'I' for Inactive)
REMARK    1  A    between atoms: C_3  and  C_1 
REMARK    2  A    between atoms: C_4  and  C_3 
REMARK    3  A    between atoms: C_7  and  C_4 
REMARK    4  A    between atoms: C_14  and  C_7 
ROOT
ATOM      1  C   UNL d   1      52.179  33.006  52.977  0.00  0.00     0.042 C 
ENDROOT
BRANCH   1   2
ATOM      2  C   UNL d   1      52.950  32.700  53.032  0.00  0.00     0.199 C 
ATOM      3  O   UNL d   1      53.623  33.210  52.875  0.00  0.00    -0.286 OA
BRANCH   2   4
ATOM      4  C   UNL d   1      53.053  31.931  53.232  0.00  0.00     0.078 A 
ATOM      5  C   UNL d   1      53.490  31.720  53.900  0.00  0.00     0.199 A 
ATOM      6  C   UNL d   1      53.588  30.928  54.094  0.00  0.00     0.042 A 
ATOM      7  O   UNL d   1      53.841  32.306  54.393  0.00  0.00    -0.286 OA
ATOM      8  C   UNL d   1      53.250  30.342  53.621  0.00  0.00     0.003 A 
ATOM      9  C   UNL d   1      52.813  30.553  52.953  0.00  0.00     0.000 A 
ATOM     10  C   UNL d   1      53.348  29.549  53.815  0.00  0.00     0.000 C 
ATOM     11  C   UNL d   1      52.715  31.350  52.759  0.00  0.00     0.006 A 
ENDBRANCH   2   4
ENDBRANCH   1   2
BRANCH   1  12
ATOM     12  C   UNL d   1      52.050  33.760  52.663  0.00  0.00     0.003 C 
BRANCH  12  13
ATOM     13  C   UNL d   1      51.285  34.055  52.607  0.00  0.00     0.002 A 
ATOM     14  C   UNL d   1      50.891  34.042  51.881  0.00  0.00     0.027 A 
ATOM     15  C   UNL d   1      50.126  34.337  51.826  0.00  0.00     0.123 A 
ATOM     16  O   UNL d   1      49.727  34.325  51.097  0.00  0.00    -0.301 OA
ATOM     17  C   UNL d   1      49.752  34.647  52.493  0.00  0.00     0.123 A 
ATOM     18  C   UNL d   1      48.957  34.621  51.038  0.00  0.00     0.149 A 
ATOM     19  C   UNL d   1      48.583  34.931  51.705  0.00  0.00     0.149 A 
ATOM     20  O   UNL d   1      48.978  34.944  52.431  0.00  0.00    -0.301 OA
ATOM     21  C   UNL d   1      50.142  34.661  53.215  0.00  0.00     0.027 A 
ATOM     22  C   UNL d   1      50.911  34.365  53.274  0.00  0.00     0.002 A 
ENDBRANCH  12  13
ENDBRANCH   1  12
TORSDOF 4
ENDMDL
MODEL 2
REMARK VINA RESULT:      -8.6      1.966      2.921
REMARK  4 active torsions:
REMARK  status: ('A' for Active; 'I' for Inactive)
REMARK    1  A    between atoms: C_3  and  C_1 
REMARK    2  A    between atoms: C_4  and  C_3 
REMARK    3  A    between atoms: C_7  and  C_4 
REMARK    4  A    between atoms: C_14  and  C_7 
ROOT
ATOM      1  C   UNL d   1      52.762  31.723  53.204  0.00  0.00     0.042 C 
ENDROOT
BRANCH   1   2
ATOM      2  C   UNL d   1      52.866  30.964  52.881  0.00  0.00     0.199 C 
ATOM      3  O   UNL d   1      52.808  30.849  52.032  0.00  0.00    -0.286 OA
BRANCH   2   4
ATOM      4  C   UNL d   1      53.018  30.348  53.371  0.00  0.00     0.078 A 
ATOM      5  C   UNL d   1      52.422  29.822  53.592  0.00  0.00     0.199 A 
ATOM      6  C   UNL d   1      52.590  29.195  54.094  0.00  0.00     0.042 A 
ATOM      7  O   UNL d   1      51.633  29.916  53.308  0.00  0.00    -0.286 OA
ATOM      8  C   UNL d   1      53.358  29.090  54.380  0.00  0.00     0.003 A 
ATOM      9  C   UNL d   1      53.954  29.616  54.160  0.00  0.00     0.000 A 
ATOM     10  C   UNL d   1      53.526  28.463  54.883  0.00  0.00     0.000 C 
ATOM     11  C   UNL d   1      53.783  30.247  53.654  0.00  0.00     0.006 A 
ENDBRANCH   2   4
ENDBRANCH   1   2
BRANCH   1  12
ATOM     12  C   UNL d   1      52.821  32.393  52.721  0.00  0.00     0.003 C 
BRANCH  12  13
ATOM     13  C   UNL d   1      52.679  33.138  53.037  0.00  0.00     0.002 A 
ATOM     14  C   UNL d   1      53.188  33.445  53.611  0.00  0.00     0.027 A 
ATOM     15  C   UNL d   1      53.045  34.190  53.926  0.00  0.00     0.123 A 
ATOM     16  O   UNL d   1      53.555  34.502  54.505  0.00  0.00    -0.301 OA
ATOM     17  C   UNL d   1      52.397  34.632  53.671  0.00  0.00     0.123 A 
ATOM     18  C   UNL d   1      53.415  35.252  54.824  0.00  0.00     0.149 A 
ATOM     19  C   UNL d   1      52.766  35.693  54.568  0.00  0.00     0.149 A 
ATOM     20  O   UNL d   1      52.259  35.385  53.994  0.00  0.00    -0.301 OA
ATOM     21  C   UNL d   1      51.891  34.329  53.100  0.00  0.00     0.027 A 
ATOM     22  C   UNL d   1      52.031  33.580  52.781  0.00  0.00     0.002 A 
ENDBRANCH  12  13
ENDBRANCH   1  12
TORSDOF 4
ENDMDL
MODEL 3
REMARK VINA RESULT:      -8.2      1.230      1.773
REMARK  4 active torsions:
REMARK  status: ('A' for Active; 'I' for Inactive)
REMARK    1  A    between atoms: C_3  and  C_1 
REMARK    2  A    between atoms: C_4  and  C_3 
REMARK    3  A    between atoms: C_7  and  C_4 
REMARK    4  A    between atoms: C_14  and  C_7 
ROOT
ATOM      1  C   UNL d   1      51.985  33.595  53.111  0.00  0.00     0.042 C 
ENDROOT
BRANCH   1   2
ATOM      2  C   UNL d   1      52.678  33.135  53.095  0.00  0.00     0.199 C 
ATOM      3  O   UNL d   1      52.816  32.593  52.444  0.00  0.00    -0.286 OA
BRANCH   2   4
ATOM      4  C   UNL d   1      53.208  33.207  53.693  0.00  0.00     0.078 A 
ATOM      5  C   UNL d   1      53.477  32.544  54.103  0.00  0.00     0.199 A 
ATOM      6  C   UNL d   1      54.020  32.630  54.713  0.00  0.00     0.042 A 
ATOM      7  O   UNL d   1      53.205  31.771  53.908  0.00  0.00    -0.286 OA
ATOM      8  C   UNL d   1      54.297  33.381  54.916  0.00  0.00     0.003 A 
ATOM      9  C   UNL d   1      54.028  34.044  54.505  0.00  0.00     0.000 A 
ATOM     10  C   UNL d   1      54.841  33.467  55.526  0.00  0.00     0.000 C 
ATOM     11  C   UNL d   1      53.481  33.955  53.892  0.00  0.00     0.006 A 
ENDBRANCH   2   4
ENDBRANCH   1   2
BRANCH   1  12
ATOM     12  C   UNL d   1      51.548  33.713  52.418  0.00  0.00     0.003 C 
BRANCH  12  13
ATOM     13  C   UNL d   1      50.822  34.097  52.453  0.00  0.00     0.002 A 
ATOM     14  C   UNL d   1      50.337  34.121  51.785  0.00  0.00     0.027 A 
ATOM     15  C   UNL d   1      49.612  34.505  51.819  0.00  0.00     0.123 A 
ATOM     16  O   UNL d   1      49.121  34.530  51.148  0.00  0.00    -0.301 OA
ATOM     17  C   UNL d   1      49.367  34.867  52.519  0.00  0.00     0.123 A 
ATOM     18  C   UNL d   1      48.391  34.915  51.181  0.00  0.00     0.149 A 
ATOM     19  C   UNL d   1      48.146  35.278  51.880  0.00  0.00     0.149 A 
ATOM     20  O   UNL d   1      48.632  35.254  52.548  0.00  0.00    -0.301 OA
ATOM     21  C   UNL d   1      49.848  34.845  53.184  0.00  0.00     0.027 A 
ATOM     22  C   UNL d   1      50.578  34.459  53.153  0.00  0.00     0.002 A 
ENDBRANCH  12  13
ENDBRANCH   1  12
TORSDOF 4
ENDMDL
MODEL 4
REMARK VINA RESULT:      -8.0      1.214      5.009
REMARK  4 active torsions:
REMARK  status: ('A' for Active; 'I' for Inactive)
REMARK    1  A    between atoms: C_3  and  C_1 
REMARK    2  A    between atoms: C_4  and  C_3 
REMARK    3  A    between atoms: C_7  and  C_4 
REMARK    4  A    between atoms: C_14  and  C_7 
ROOT
ATOM      1  C   UNL d   1      52.428  32.483  53.023  0.00  0.00     0.042 C 
ENDROOT
BRANCH   1   2
ATOM      2  C   UNL d   1      52.397  33.314  53.014  0.00  0.00     0.199 C 
ATOM      3  O   UNL d   1      53.118  33.770  53.118  0.00  0.00    -0.286 OA
BRANCH   2   4
ATOM      4  C   UNL d   1      51.690  33.678  52.908  0.00  0.00     0.078 A 
ATOM      5  C   UNL d   1      51.512  34.061  52.200  0.00  0.00     0.199 A 
ATOM      6  C   UNL d   1      50.785  34.430  52.102  0.00  0.00     0.042 A 
ATOM      7  O   UNL d   1      52.066  34.083  51.565  0.00  0.00    -0.286 OA
ATOM      8  C   UNL d   1      50.231  34.417  52.715  0.00  0.00     0.003 A 
ATOM      9  C   UNL d   1      50.409  34.034  53.423  0.00  0.00     0.000 A 
ATOM     10  C   UNL d   1      49.503  34.786  52.618  0.00  0.00     0.000 C 
ATOM     11  C   UNL d   1      51.142  33.663  53.519  0.00  0.00     0.006 A 
ENDBRANCH   2   4
ENDBRANCH   1   2
BRANCH   1  12
ATOM     12  C   UNL d   1      53.131  32.094  53.221  0.00  0.00     0.003 C 
BRANCH  12  13
ATOM     13  C   UNL d   1      53.126  31.285  53.359  0.00  0.00     0.002 A 
ATOM     14  C   UNL d   1      53.293  30.995  54.115  0.00  0.00     0.027 A 
ATOM     15  C   UNL d   1      53.287  30.185  54.253  0.00  0.00     0.123 A 
ATOM     16  O   UNL d   1      53.454  29.891  55.013  0.00  0.00    -0.301 OA
ATOM     17  C   UNL d   1      53.117  29.661  53.639  0.00  0.00     0.123 A 
ATOM     18  C   UNL d   1      53.450  29.077  55.154  0.00  0.00     0.149 A 
ATOM     19  C   UNL d   1      53.279  28.552  54.540  0.00  0.00     0.149 A 
ATOM     20  O   UNL d   1      53.113  28.843  53.785  0.00  0.00    -0.301 OA
ATOM     21  C   UNL d   1      52.951  29.947  52.888  0.00  0.00     0.027 A 
ATOM     22  C   UNL d   1      52.956  30.760  52.745  0.00  0.00     0.002 A 
ENDBRANCH  12  13
ENDBRANCH   1  12
TORSDOF 4
ENDMDL
MODEL 5
REMARK VINA RESULT:      -7.9      2.793      4.908
REMARK  4 active torsions:
REMARK  status: ('A' for Active; 'I' for Inactive)
REMARK    1  A    between atoms: C_3  and  C_1 
REMARK    2  A    between atoms: C_4  and  C_3 
REMARK    3  A    between atoms: C_7  and  C_4 
REMARK    4  A    between atoms: C_14  and  C_7 
ROOT
ATOM      1  C   UNL d   1      53.642  32.589  53.717  0.00  0.00     0.042 C 
ENDROOT
BRANCH   1   2
ATOM      2  C   UNL d   1      54.049  33.314  53.709  0.00  0.00     0.199 C 
ATOM      3  O   UNL d   1      54.859  33.346  53.424  0.00  0.00    -0.286 OA
BRANCH   2   4
ATOM      4  C   UNL d   1      53.676  33.974  53.969  0.00  0.00     0.078 A 
ATOM      5  C   UNL d   1      53.839  34.288  54.715  0.00  0.00     0.199 A 
ATOM      6  C   UNL d   1      53.451  34.965  54.970  0.00  0.00     0.042 A 
ATOM      7  O   UNL d   1      54.401  33.925  55.227  0.00  0.00    -0.286 OA
ATOM      8  C   UNL d   1      52.897  35.333  54.480  0.00  0.00     0.003 A 
ATOM      9  C   UNL d   1      52.734  35.019  53.735  0.00  0.00     0.000 A 
ATOM     10  C   UNL d   1      52.508  36.010  54.735  0.00  0.00     0.000 C 
ATOM     11  C   UNL d   1      53.126  34.337  53.479  0.00  0.00     0.006 A 
ENDBRANCH   2   4
ENDBRANCH   1   2
BRANCH   1  12
ATOM     12  C   UNL d   1      53.903  31.959  53.248  0.00  0.00     0.003 C 
BRANCH  12  13
ATOM     13  C   UNL d   1      53.561  31.217  53.332  0.00  0.00     0.002 A 
ATOM     14  C   UNL d   1      53.787  30.728  53.959  0.00  0.00     0.027 A 
ATOM     15  C   UNL d   1      53.445  29.987  54.043  0.00  0.00     0.123 A 
ATOM     16  O   UNL d   1      53.671  29.493  54.674  0.00  0.00    -0.301 OA
ATOM     17  C   UNL d   1      52.876  29.728  53.504  0.00  0.00     0.123 A 
ATOM     18  C   UNL d   1      53.328  28.746  54.761  0.00  0.00     0.149 A 
ATOM     19  C   UNL d   1      52.760  28.487  54.221  0.00  0.00     0.149 A 
ATOM     20  O   UNL d   1      52.534  28.976  53.595  0.00  0.00    -0.301 OA
ATOM     21  C   UNL d   1      52.650  30.212  52.880  0.00  0.00     0.027 A 
ATOM     22  C   UNL d   1      52.992  30.959  52.793  0.00  0.00     0.002 A 
ENDBRANCH  12  13
ENDBRANCH   1  12
TORSDOF 4
ENDMDL
MODEL 6
REMARK VINA RESULT:      -7.6      1.832      2.711
REMARK  4 active torsions:
REMARK  status: ('A' for Active; 'I' for Inactive)
REMARK    1  A    between atoms: C_3  and  C_1 
REMARK    2  A    between atoms: C_4  and  C_3 
REMARK    3  A    between atoms: C_7  and  C_4 
REMARK    4  A    between atoms: C_14  and  C_7 
ROOT
ATOM      1  C   UNL d   1      50.618  34.420  52.680  0.00  0.00     0.042 C 
ENDROOT
BRANCH   1   2
ATOM      2  C   UNL d   1      51.372  34.116  52.506  0.00  0.00     0.199 C 
ATOM      3  O   UNL d   1      51.537  33.806  51.722  0.00  0.00    -0.286 OA
BRANCH   2   4
ATOM      4  C   UNL d   1      51.935  34.118  53.077  0.00  0.00     0.078 A 
ATOM      5  C   UNL d   1      52.187  33.415  53.427  0.00  0.00     0.199 A 
ATOM      6  C   UNL d   1      52.765  33.429  54.011  0.00  0.00     0.042 A 
ATOM      7  O   UNL d   1      51.861  32.672  53.197  0.00  0.00    -0.286 OA
ATOM      8  C   UNL d   1      53.094  34.149  54.247  0.00  0.00     0.003 A 
ATOM      9  C   UNL d   1      52.842  34.852  53.897  0.00  0.00     0.000 A 
ATOM     10  C   UNL d   1      53.672  34.163  54.831  0.00  0.00     0.000 C 
ATOM     11  C   UNL d   1      52.261  34.835  53.310  0.00  0.00     0.006 A 
ENDBRANCH   2   4
ENDBRANCH   1   2
BRANCH   1  12
ATOM     12  C   UNL d   1      50.028  34.428  52.100  0.00  0.00     0.003 C 
BRANCH  12  13
ATOM     13  C   UNL d   1      49.323  34.826  52.239  0.00  0.00     0.002 A 
ATOM     14  C   UNL d   1      48.720  34.804  51.674  0.00  0.00     0.027 A 
ATOM     15  C   UNL d   1      48.015  35.202  51.813  0.00  0.00     0.123 A 
ATOM     16  O   UNL d   1      47.406  35.181  51.246  0.00  0.00    -0.301 OA
ATOM     17  C   UNL d   1      47.907  35.623  52.514  0.00  0.00     0.123 A 
ATOM     18  C   UNL d   1      46.696  35.581  51.384  0.00  0.00     0.149 A 
ATOM     19  C   UNL d   1      46.588  36.002  52.085  0.00  0.00     0.149 A 
ATOM     20  O   UNL d   1      47.192  36.024  52.649  0.00  0.00    -0.301 OA
ATOM     21  C   UNL d   1      48.505  35.646  53.076  0.00  0.00     0.027 A 
ATOM     22  C   UNL d   1      49.215  35.247  52.940  0.00  0.00     0.002 A 
ENDBRANCH  12  13
ENDBRANCH   1  12
TORSDOF 4
ENDMDL
MODEL 7
REMARK VINA RESULT:      -7.3      1.503      5.217
REMARK  4 active torsions:
REMARK  status: ('A' for Active; 'I' for Inactive)
REMARK    1  A    between atoms: C_3  and  C_1 
REMARK    2  A    between atoms: C_4  and  C_3 
REMARK    3  A    between atoms: C_7  and  C_4 
REMARK    4  A    between atoms: C_14  and  C_7 
ROOT
ATOM      1  C   UNL d   1      50.439  34.533  52.756  0.00  0.00     0.042 C 
ENDROOT
BRANCH   1   2
ATOM      2  C   UNL d   1      49.773  34.517  52.257  0.00  0.00     0.199 C 
ATOM      3  O   UNL d   1      49.765  33.998  51.572  0.00  0.00    -0.286 OA
BRANCH   2   4
ATOM      4  C   UNL d   1      49.147  34.989  52.425  0.00  0.00     0.078 A 
ATOM      5  C   UNL d   1      48.575  35.156  51.854  0.00  0.00     0.199 A 
ATOM      6  C   UNL d   1      47.939  35.640  52.038  0.00  0.00     0.042 A 
ATOM      7  O   UNL d   1      48.631  34.835  51.076  0.00  0.00    -0.286 OA
ATOM      8  C   UNL d   1      47.870  35.962  52.796  0.00  0.00     0.003 A 
ATOM      9  C   UNL d   1      48.442  35.795  53.366  0.00  0.00     0.000 A 
ATOM     10  C   UNL d   1      47.233  36.447  52.980  0.00  0.00     0.000 C 
ATOM     11  C   UNL d   1      49.082  35.307  53.179  0.00  0.00     0.006 A 
ENDBRANCH   2   4
ENDBRANCH   1   2
BRANCH   1  12
ATOM     12  C   UNL d   1      51.138  34.153  52.530  0.00  0.00     0.003 C 
BRANCH  12  13
ATOM     13  C   UNL d   1      51.788  34.161  53.032  0.00  0.00     0.002 A 
ATOM     14  C   UNL d   1      52.093  33.450  53.322  0.00  0.00     0.027 A 
ATOM     15  C   UNL d   1      52.743  33.458  53.824  0.00  0.00     0.123 A 
ATOM     16  O   UNL d   1      53.051  32.743  54.117  0.00  0.00    -0.301 OA
ATOM     17  C   UNL d   1      53.092  34.173  54.039  0.00  0.00     0.123 A 
ATOM     18  C   UNL d   1      53.705  32.748  54.623  0.00  0.00     0.149 A 
ATOM     19  C   UNL d   1      54.055  33.464  54.837  0.00  0.00     0.149 A 
ATOM     20  O   UNL d   1      53.750  34.175  54.547  0.00  0.00    -0.301 OA
ATOM     21  C   UNL d   1      52.791  34.881  53.752  0.00  0.00     0.027 A 
ATOM     22  C   UNL d   1      52.138  34.877  53.247  0.00  0.00     0.002 A 
ENDBRANCH  12  13
ENDBRANCH   1  12
TORSDOF 4
ENDMDL
