MODEL 1
REMARK VINA RESULT:      -6.2      0.000      0.000
REMARK  5 active torsions:
REMARK  status: ('A' for Active; 'I' for Inactive)
REMARK    1  A    between atoms: N_2  and  C_1 
REMARK    2  A    between atoms: C_10  and  C_5 
REMARK       I    between atoms: N_6  and  C_7 
REMARK    3  A    between atoms: C_8  and  N_6 
REMARK    4  A    between atoms: C_7  and  C_11 
REMARK    5  A    between atoms: C_11  and  C_10 
ROOT
ATOM      1  N   UNL d   1     -41.971-122.563 -50.812  0.00  0.00    -0.208 NA
ATOM      2  C   UNL d   1     -41.516-122.972 -51.366  0.00  0.00     0.279 C 
ATOM      3  O   UNL d   1     -41.123-123.650 -51.154  0.00  0.00    -0.265 OA
ENDROOT
BRANCH   2   4
ATOM      4  C   UNL d   1     -41.464-122.689 -52.139  0.00  0.00     0.063 C 
BRANCH   4   5
ATOM      5  C   UNL d   1     -41.287-123.194 -52.754  0.00  0.00     0.011 C 
BRANCH   5   6
ATOM      6  C   UNL d   1     -41.436-122.966 -53.549  0.00  0.00     0.031 A 
ATOM      7  S   UNL d   1     -41.818-122.311 -53.867  0.00  0.00    -0.064 SA
ATOM      8  C   UNL d   1     -41.789-122.393 -54.677  0.00  0.00     0.156 A 
ATOM      9  C   UNL d   1     -41.402-123.074 -54.872  0.00  0.00     0.031 A 
ATOM     10  C   UNL d   1     -41.180-123.435 -54.161  0.00  0.00     0.009 A 
BRANCH   8  11
ATOM     11  N   UNL d   1     -42.113-121.849 -55.204  0.00  0.00    -0.107 N 
ATOM     12  O   UNL d   1     -42.929-121.741 -55.262  0.00  0.00    -0.531 OA
ATOM     13  O   UNL d   1     -41.610-121.410 -55.679  0.00  0.00    -0.531 OA
ENDBRANCH   8  11
ENDBRANCH   5   6
ENDBRANCH   4   5
ENDBRANCH   2   4
BRANCH   1  14
ATOM     14  C   UNL d   1     -42.024-122.847 -50.039  0.00  0.00     0.085 A 
ATOM     15  C   UNL d   1     -42.713-122.717 -49.600  0.00  0.00     0.018 A 
ATOM     16  C   UNL d   1     -42.764-122.995 -48.844  0.00  0.00     0.002 A 
ATOM     17  C   UNL d   1     -43.348-122.298 -49.947  0.00  0.00     0.002 C 
ATOM     18  C   UNL d   1     -42.128-123.408 -48.510  0.00  0.00     0.000 A 
ATOM     19  C   UNL d   1     -41.433-123.540 -48.953  0.00  0.00     0.002 A 
ATOM     20  C   UNL d   1     -42.198-123.685 -47.736  0.00  0.00     0.000 C 
ATOM     21  C   UNL d   1     -41.401-123.254 -49.708  0.00  0.00     0.019 A 
ENDBRANCH   1  14
TORSDOF 5
ENDMDL
MODEL 2
REMARK VINA RESULT:      -5.5      1.849      5.282
REMARK  5 active torsions:
REMARK  status: ('A' for Active; 'I' for Inactive)
REMARK    1  A    between atoms: N_2  and  C_1 
REMARK    2  A    between atoms: C_10  and  C_5 
REMARK       I    between atoms: N_6  and  C_7 
REMARK    3  A    between atoms: C_8  and  N_6 
REMARK    4  A    between atoms: C_7  and  C_11 
REMARK    5  A    between atoms: C_11  and  C_10 
ROOT
ATOM      1  N   UNL d   1     -41.543-122.846 -52.956  0.00  0.00    -0.208 NA
ATOM      2  C   UNL d   1     -41.530-122.296 -52.340  0.00  0.00     0.279 C 
ATOM      3  O   UNL d   1     -41.689-121.513 -52.486  0.00  0.00    -0.265 OA
ENDROOT
BRANCH   2   4
ATOM      4  C   UNL d   1     -41.353-122.547 -51.575  0.00  0.00     0.063 C 
BRANCH   4   5
ATOM      5  C   UNL d   1     -41.862-122.385 -50.958  0.00  0.00     0.011 C 
BRANCH   5   6
ATOM      6  C   UNL d   1     -41.744-122.736 -50.204  0.00  0.00     0.031 A 
ATOM      7  S   UNL d   1     -42.159-122.667 -49.498  0.00  0.00    -0.064 SA
ATOM      8  C   UNL d   1     -41.780-123.141 -48.955  0.00  0.00     0.156 A 
ATOM      9  C   UNL d   1     -41.145-123.502 -49.299  0.00  0.00     0.031 A 
ATOM     10  C   UNL d   1     -41.123-123.247 -50.086  0.00  0.00     0.009 A 
BRANCH   8  11
ATOM     11  N   UNL d   1     -42.024-123.228 -48.173  0.00  0.00    -0.107 N 
ATOM     12  O   UNL d   1     -41.665-123.776 -47.671  0.00  0.00    -0.531 OA
ATOM     13  O   UNL d   1     -42.634-122.759 -47.894  0.00  0.00    -0.531 OA
ENDBRANCH   8  11
ENDBRANCH   5   6
ENDBRANCH   4   5
ENDBRANCH   2   4
BRANCH   1  14
ATOM     14  C   UNL d   1     -41.720-122.596 -53.722  0.00  0.00     0.085 A 
ATOM     15  C   UNL d   1     -41.531-123.079 -54.366  0.00  0.00     0.018 A 
ATOM     16  C   UNL d   1     -41.704-122.834 -55.115  0.00  0.00     0.002 A 
ATOM     17  C   UNL d   1     -41.162-123.817 -54.231  0.00  0.00     0.002 C 
ATOM     18  C   UNL d   1     -42.070-122.100 -55.237  0.00  0.00     0.000 A 
ATOM     19  C   UNL d   1     -42.260-121.612 -54.587  0.00  0.00     0.002 A 
ATOM     20  C   UNL d   1     -42.240-121.865 -56.009  0.00  0.00     0.000 C 
ATOM     21  C   UNL d   1     -42.079-121.874 -53.845  0.00  0.00     0.019 A 
ENDBRANCH   1  14
TORSDOF 5
ENDMDL
