MODEL 1
REMARK VINA RESULT:      -8.7      0.000      0.000
REMARK  5 active torsions:
REMARK  status: ('A' for Active; 'I' for Inactive)
REMARK    1  A    between atoms: C_9  and  C_5 
REMARK    2  A    between atoms: N_14  and  C_6 
REMARK    3  A    between atoms: N_11  and  C_9 
REMARK    4  A    between atoms: C_15  and  N_11 
REMARK    5  A    between atoms: C_16  and  C_15 
ROOT
ATOM      1  N   UNL d   1      52.435  33.409  53.064  0.00  0.00    -0.258 N 
ATOM      2  N   UNL d   1      53.473  33.714  53.918  0.00  0.00    -0.209 NA
ATOM      3  C   UNL d   1      52.808  33.939  53.520  0.00  0.00     0.152 A 
ATOM      4  C   UNL d   1      52.693  32.636  52.977  0.00  0.00     0.270 A 
ATOM      5  C   UNL d   1      53.388  32.401  53.394  0.00  0.00     0.111 A 
ATOM      6  C   UNL d   1      53.750  32.964  53.852  0.00  0.00     0.170 A 
ATOM      7  C   UNL d   1      52.520  34.722  53.589  0.00  0.00     0.035 A 
ATOM      8  C   UNL d   1      51.725  33.649  52.639  0.00  0.00     0.084 A 
ATOM      9  O   UNL d   1      52.317  32.079  52.510  0.00  0.00    -0.266 OA
ATOM     10  C   UNL d   1      51.464  34.394  52.714  0.00  0.00     0.019 A 
ATOM     11  C   UNL d   1      51.835  34.953  53.179  0.00  0.00     0.005 A 
ATOM     12  C   UNL d   1      52.907  35.276  54.063  0.00  0.00     0.003 C 
ENDROOT
BRANCH   5  13
ATOM     13  C   UNL d   1      53.686  31.616  53.331  0.00  0.00     0.107 C 
BRANCH  13  14
ATOM     14  N   UNL d   1      53.393  31.007  53.815  0.00  0.00    -0.242 NA
BRANCH  14  15
ATOM     15  C   UNL d   1      53.468  30.221  53.565  0.00  0.00     0.099 C 
BRANCH  15  16
ATOM     16  C   UNL d   1      53.435  29.615  54.106  0.00  0.00     0.019 A 
ATOM     17  C   UNL d   1      52.974  29.681  54.781  0.00  0.00     0.002 A 
ATOM     18  C   UNL d   1      52.933  29.081  55.330  0.00  0.00     0.000 A 
ATOM     19  C   UNL d   1      53.371  28.388  55.200  0.00  0.00     0.000 A 
ATOM     20  C   UNL d   1      53.843  28.321  54.510  0.00  0.00     0.000 A 
ATOM     21  C   UNL d   1      53.873  28.922  53.976  0.00  0.00     0.002 A 
ENDBRANCH  15  16
ENDBRANCH  14  15
ENDBRANCH  13  14
ENDBRANCH   5  13
BRANCH   6  22
ATOM     22  N   UNL d   1      54.444  32.729  54.268  0.00  0.00    -0.223 NA
ATOM     23  C   UNL d   1      54.826  33.277  54.758  0.00  0.00     0.121 C 
ENDBRANCH   6  22
TORSDOF 5
ENDMDL
MODEL 2
REMARK VINA RESULT:      -8.3      1.638      4.758
REMARK  5 active torsions:
REMARK  status: ('A' for Active; 'I' for Inactive)
REMARK    1  A    between atoms: C_9  and  C_5 
REMARK    2  A    between atoms: N_14  and  C_6 
REMARK    3  A    between atoms: N_11  and  C_9 
REMARK    4  A    between atoms: C_15  and  N_11 
REMARK    5  A    between atoms: C_16  and  C_15 
ROOT
ATOM      1  N   UNL d   1      52.954  32.762  53.430  0.00  0.00    -0.258 N 
ATOM      2  N   UNL d   1      53.163  33.926  54.140  0.00  0.00    -0.209 NA
ATOM      3  C   UNL d   1      53.323  33.144  54.018  0.00  0.00     0.152 A 
ATOM      4  C   UNL d   1      52.412  33.126  52.934  0.00  0.00     0.270 A 
ATOM      5  C   UNL d   1      52.244  33.943  53.062  0.00  0.00     0.111 A 
ATOM      6  C   UNL d   1      52.636  34.308  53.671  0.00  0.00     0.170 A 
ATOM      7  C   UNL d   1      53.872  32.745  54.508  0.00  0.00     0.035 A 
ATOM      8  C   UNL d   1      53.126  31.928  53.299  0.00  0.00     0.084 A 
ATOM      9  O   UNL d   1      52.025  32.744  52.323  0.00  0.00    -0.266 OA
ATOM     10  C   UNL d   1      53.648  31.564  53.772  0.00  0.00     0.019 A 
ATOM     11  C   UNL d   1      54.037  31.940  54.383  0.00  0.00     0.005 A 
ATOM     12  C   UNL d   1      54.258  33.139  55.122  0.00  0.00     0.003 C 
ENDROOT
BRANCH   5  13
ATOM     13  C   UNL d   1      51.694  34.353  52.574  0.00  0.00     0.107 C 
BRANCH  13  14
ATOM     14  N   UNL d   1      50.878  34.324  52.732  0.00  0.00    -0.242 NA
BRANCH  14  15
ATOM     15  C   UNL d   1      50.343  34.384  52.103  0.00  0.00     0.099 C 
BRANCH  15  16
ATOM     16  C   UNL d   1      49.615  34.728  52.217  0.00  0.00     0.019 A 
ATOM     17  C   UNL d   1      49.417  35.057  52.942  0.00  0.00     0.002 A 
ATOM     18  C   UNL d   1      48.692  35.405  53.068  0.00  0.00     0.000 A 
ATOM     19  C   UNL d   1      48.142  35.425  52.446  0.00  0.00     0.000 A 
ATOM     20  C   UNL d   1      48.345  35.089  51.706  0.00  0.00     0.000 A 
ATOM     21  C   UNL d   1      49.066  34.748  51.595  0.00  0.00     0.002 A 
ENDBRANCH  15  16
ENDBRANCH  14  15
ENDBRANCH  13  14
ENDBRANCH   5  13
BRANCH   6  22
ATOM     22  N   UNL d   1      52.469  35.124  53.798  0.00  0.00    -0.223 NA
ATOM     23  C   UNL d   1      52.934  35.554  54.331  0.00  0.00     0.121 C 
ENDBRANCH   6  22
TORSDOF 5
ENDMDL
MODEL 3
REMARK VINA RESULT:      -7.9      0.987      4.479
REMARK  5 active torsions:
REMARK  status: ('A' for Active; 'I' for Inactive)
REMARK    1  A    between atoms: C_9  and  C_5 
REMARK    2  A    between atoms: N_14  and  C_6 
REMARK    3  A    between atoms: N_11  and  C_9 
REMARK    4  A    between atoms: C_15  and  N_11 
REMARK    5  A    between atoms: C_16  and  C_15 
ROOT
ATOM      1  N   UNL d   1      52.975  30.681  53.307  0.00  0.00    -0.258 N 
ATOM      2  N   UNL d   1      53.485  31.302  54.427  0.00  0.00    -0.209 NA
ATOM      3  C   UNL d   1      53.302  30.625  54.027  0.00  0.00     0.152 A 
ATOM      4  C   UNL d   1      52.814  31.398  52.945  0.00  0.00     0.270 A 
ATOM      5  C   UNL d   1      53.006  32.105  53.363  0.00  0.00     0.111 A 
ATOM      6  C   UNL d   1      53.338  32.018  54.097  0.00  0.00     0.170 A 
ATOM      7  C   UNL d   1      53.455  29.878  54.370  0.00  0.00     0.035 A 
ATOM      8  C   UNL d   1      52.779  29.958  52.880  0.00  0.00     0.084 A 
ATOM      9  O   UNL d   1      52.477  31.468  52.203  0.00  0.00    -0.266 OA
ATOM     10  C   UNL d   1      52.930  29.257  53.218  0.00  0.00     0.019 A 
ATOM     11  C   UNL d   1      53.266  29.181  53.959  0.00  0.00     0.005 A 
ATOM     12  C   UNL d   1      53.795  29.817  55.120  0.00  0.00     0.003 C 
ENDROOT
BRANCH   5  13
ATOM     13  C   UNL d   1      52.855  32.862  53.026  0.00  0.00     0.107 C 
BRANCH  13  14
ATOM     14  N   UNL d   1      52.077  33.130  52.907  0.00  0.00    -0.242 NA
BRANCH  14  15
ATOM     15  C   UNL d   1      51.953  33.910  52.658  0.00  0.00     0.099 C 
BRANCH  15  16
ATOM     16  C   UNL d   1      51.199  34.178  52.515  0.00  0.00     0.019 A 
ATOM     17  C   UNL d   1      50.723  34.434  53.131  0.00  0.00     0.002 A 
ATOM     18  C   UNL d   1      49.966  34.705  53.002  0.00  0.00     0.000 A 
ATOM     19  C   UNL d   1      49.673  34.721  52.225  0.00  0.00     0.000 A 
ATOM     20  C   UNL d   1      50.160  34.459  51.595  0.00  0.00     0.000 A 
ATOM     21  C   UNL d   1      50.906  34.194  51.738  0.00  0.00     0.002 A 
ENDBRANCH  15  16
ENDBRANCH  14  15
ENDBRANCH  13  14
ENDBRANCH   5  13
BRANCH   6  22
ATOM     22  N   UNL d   1      53.530  32.725  54.515  0.00  0.00    -0.223 NA
ATOM     23  C   UNL d   1      54.146  32.713  55.069  0.00  0.00     0.121 C 
ENDBRANCH   6  22
TORSDOF 5
ENDMDL
MODEL 4
REMARK VINA RESULT:      -6.2      1.611      2.732
REMARK  5 active torsions:
REMARK  status: ('A' for Active; 'I' for Inactive)
REMARK    1  A    between atoms: C_9  and  C_5 
REMARK    2  A    between atoms: N_14  and  C_6 
REMARK    3  A    between atoms: N_11  and  C_9 
REMARK    4  A    between atoms: C_15  and  N_11 
REMARK    5  A    between atoms: C_16  and  C_15 
ROOT
ATOM      1  N   UNL d   1      50.265  34.342  52.187  0.00  0.00    -0.258 N 
ATOM      2  N   UNL d   1      50.582  34.787  53.454  0.00  0.00    -0.209 NA
ATOM      3  C   UNL d   1      50.065  34.754  52.834  0.00  0.00     0.152 A 
ATOM      4  C   UNL d   1      50.978  33.944  52.116  0.00  0.00     0.270 A 
ATOM      5  C   UNL d   1      51.518  33.978  52.764  0.00  0.00     0.111 A 
ATOM      6  C   UNL d   1      51.287  34.406  53.412  0.00  0.00     0.170 A 
ATOM      7  C   UNL d   1      49.329  35.151  52.877  0.00  0.00     0.035 A 
ATOM      8  C   UNL d   1      49.714  34.307  51.526  0.00  0.00     0.084 A 
ATOM      9  O   UNL d   1      51.196  33.515  51.454  0.00  0.00    -0.266 OA
ATOM     10  C   UNL d   1      49.021  34.688  51.582  0.00  0.00     0.019 A 
ATOM     11  C   UNL d   1      48.798  35.118  52.239  0.00  0.00     0.005 A 
ATOM     12  C   UNL d   1      49.118  35.581  53.549  0.00  0.00     0.003 C 
ENDROOT
BRANCH   5  13
ATOM     13  C   UNL d   1      52.260  33.582  52.730  0.00  0.00     0.107 C 
BRANCH  13  14
ATOM     14  N   UNL d   1      52.325  32.777  52.929  0.00  0.00    -0.242 NA
BRANCH  14  15
ATOM     15  C   UNL d   1      53.053  32.395  52.833  0.00  0.00     0.099 C 
BRANCH  15  16
ATOM     16  C   UNL d   1      53.157  31.637  53.108  0.00  0.00     0.019 A 
ATOM     17  C   UNL d   1      52.758  31.009  52.765  0.00  0.00     0.002 A 
ATOM     18  C   UNL d   1      52.853  30.246  53.031  0.00  0.00     0.000 A 
ATOM     19  C   UNL d   1      53.369  30.104  53.667  0.00  0.00     0.000 A 
ATOM     20  C   UNL d   1      53.777  30.747  54.018  0.00  0.00     0.000 A 
ATOM     21  C   UNL d   1      53.673  31.496  53.744  0.00  0.00     0.002 A 
ENDBRANCH  15  16
ENDBRANCH  14  15
ENDBRANCH  13  14
ENDBRANCH   5  13
BRANCH   6  22
ATOM     22  N   UNL d   1      51.826  34.440  54.059  0.00  0.00    -0.223 NA
ATOM     23  C   UNL d   1      52.105  35.177  54.314  0.00  0.00     0.121 C 
ENDBRANCH   6  22
TORSDOF 5
ENDMDL
