MODEL 1
REMARK VINA RESULT:      -8.6      0.000      0.000
REMARK  4 active torsions:
REMARK  status: ('A' for Active; 'I' for Inactive)
REMARK    1  A    between atoms: C_7  and  N_1 
REMARK    2  A    between atoms: C_8  and  C_7 
REMARK       I    between atoms: N_9  and  C_8 
REMARK    3  A    between atoms: C_13  and  N_9 
REMARK    4  A    between atoms: O_19  and  C_14 
ROOT
ATOM      1  C   UNL d   1      53.189  33.007  52.759  0.00  0.00     0.148 C 
ENDROOT
BRANCH   1   2
ATOM      2  N   UNL d   1      52.732  33.635  53.044  0.00  0.00    -0.235 N 
ATOM      3  C   UNL d   1      51.953  33.734  52.774  0.00  0.00     0.273 A 
ATOM      4  C   UNL d   1      51.501  34.355  53.056  0.00  0.00     0.086 A 
ATOM      5  O   UNL d   1      51.637  33.205  52.219  0.00  0.00    -0.266 OA
ATOM      6  C   UNL d   1      50.719  34.454  52.784  0.00  0.00     0.012 C 
ATOM      7  S   UNL d   1      51.805  34.884  53.605  0.00  0.00    -0.077 SA
ATOM      8  C   UNL d   1      52.576  34.789  53.876  0.00  0.00     0.086 A 
ATOM      9  C   UNL d   1      53.045  34.167  53.600  0.00  0.00     0.273 A 
ATOM     10  C   UNL d   1      52.889  35.317  54.428  0.00  0.00     0.012 C 
ATOM     11  O   UNL d   1      53.818  34.069  53.870  0.00  0.00    -0.266 OA
ENDBRANCH   1   2
BRANCH   1  12
ATOM     12  C   UNL d   1      53.175  32.280  53.149  0.00  0.00     0.297 C 
ATOM     13  N   UNL d   1      53.213  31.567  52.714  0.00  0.00    -0.207 NA
ATOM     14  O   UNL d   1      53.124  32.262  53.974  0.00  0.00    -0.264 OA
BRANCH  13  15
ATOM     15  C   UNL d   1      53.199  30.849  53.118  0.00  0.00     0.085 A 
ATOM     16  C   UNL d   1      52.527  30.374  53.060  0.00  0.00     0.021 A 
ATOM     17  C   UNL d   1      52.492  29.655  53.454  0.00  0.00     0.026 A 
ATOM     18  C   UNL d   1      53.144  29.409  53.913  0.00  0.00     0.094 A 
ATOM     19  C   UNL d   1      53.808  29.895  53.959  0.00  0.00     0.026 A 
ATOM     20  C   UNL d   1      53.834  30.606  53.566  0.00  0.00     0.021 A 
BRANCH  18  21
ATOM     21  O   UNL d   1      53.113  28.688  54.310  0.00  0.00    -0.328 OA
ATOM     22  C   UNL d   1      53.376  28.645  55.087  0.00  0.00     0.181 C 
ENDBRANCH  18  21
ENDBRANCH  13  15
ENDBRANCH   1  12
TORSDOF 4
ENDMDL
MODEL 2
REMARK VINA RESULT:      -7.9      1.635      4.554
REMARK  4 active torsions:
REMARK  status: ('A' for Active; 'I' for Inactive)
REMARK    1  A    between atoms: C_7  and  N_1 
REMARK    2  A    between atoms: C_8  and  C_7 
REMARK       I    between atoms: N_9  and  C_8 
REMARK    3  A    between atoms: C_13  and  N_9 
REMARK    4  A    between atoms: O_19  and  C_14 
ROOT
ATOM      1  C   UNL d   1      52.791  33.296  52.705  0.00  0.00     0.148 C 
ENDROOT
BRANCH   1   2
ATOM      2  N   UNL d   1      53.126  32.758  53.237  0.00  0.00    -0.235 N 
ATOM      3  C   UNL d   1      53.510  33.037  53.919  0.00  0.00     0.273 A 
ATOM      4  C   UNL d   1      53.841  32.505  54.445  0.00  0.00     0.086 A 
ATOM      5  O   UNL d   1      53.557  33.852  54.063  0.00  0.00    -0.266 OA
ATOM      6  C   UNL d   1      54.227  32.786  55.129  0.00  0.00     0.012 C 
ATOM      7  S   UNL d   1      53.800  31.696  54.310  0.00  0.00    -0.077 SA
ATOM      8  C   UNL d   1      53.420  31.416  53.636  0.00  0.00     0.086 A 
ATOM      9  C   UNL d   1      53.081  31.940  53.095  0.00  0.00     0.273 A 
ATOM     10  C   UNL d   1      53.375  30.603  53.494  0.00  0.00     0.012 C 
ATOM     11  O   UNL d   1      52.700  31.662  52.419  0.00  0.00    -0.266 OA
ENDBRANCH   1   2
BRANCH   1  12
ATOM     12  C   UNL d   1      52.002  33.518  52.790  0.00  0.00     0.297 C 
ATOM     13  N   UNL d   1      51.707  34.192  52.392  0.00  0.00    -0.207 NA
ATOM     14  O   UNL d   1      51.502  33.070  53.273  0.00  0.00    -0.264 OA
BRANCH  13  15
ATOM     15  C   UNL d   1      50.917  34.402  52.487  0.00  0.00     0.085 A 
ATOM     16  C   UNL d   1      50.390  34.253  51.869  0.00  0.00     0.021 A 
ATOM     17  C   UNL d   1      49.597  34.455  51.943  0.00  0.00     0.026 A 
ATOM     18  C   UNL d   1      49.330  34.812  52.649  0.00  0.00     0.094 A 
ATOM     19  C   UNL d   1      49.870  34.953  53.255  0.00  0.00     0.026 A 
ATOM     20  C   UNL d   1      50.653  34.751  53.174  0.00  0.00     0.021 A 
BRANCH  18  21
ATOM     21  O   UNL d   1      48.536  35.016  52.727  0.00  0.00    -0.328 OA
ATOM     22  C   UNL d   1      48.338  35.767  52.993  0.00  0.00     0.181 C 
ENDBRANCH  18  21
ENDBRANCH  13  15
ENDBRANCH   1  12
TORSDOF 4
ENDMDL
