MODEL 1
REMARK VINA RESULT:      51.8      0.000      0.000
REMARK  3 active torsions:
REMARK  status: ('A' for Active; 'I' for Inactive)
REMARK    1  A    between atoms: C_2  and  S_1 
REMARK    2  A    between atoms: N_3  and  S_1 
REMARK    3  A    between atoms: C_10  and  N_3 
ROOT
ATOM      1  S   UNL d   1     -50.143  27.518  33.471  0.00  0.00     0.285 S 
ATOM      2  O   UNL d   1     -50.796  28.039  33.373  0.00  0.00    -0.198 OA
ATOM      3  O   UNL d   1     -49.512  26.993  33.566  0.00  0.00    -0.198 OA
ENDROOT
BRANCH   1   4
ATOM      4  C   UNL d   1     -50.659  26.861  33.436  0.00  0.00     0.107 A 
ATOM      5  C   UNL d   1     -50.354  26.093  33.410  0.00  0.00     0.040 A 
ATOM      6  C   UNL d   1     -50.872  25.469  33.376  0.00  0.00     0.123 A 
ATOM      7  O   UNL d   1     -50.588  24.699  33.350  0.00  0.00    -0.301 OA
ATOM      8  C   UNL d   1     -51.699  25.608  33.368  0.00  0.00     0.123 A 
ATOM      9  C   UNL d   1     -51.128  24.068  33.316  0.00  0.00     0.149 A 
ATOM     10  C   UNL d   1     -51.904  24.198  33.308  0.00  0.00     0.149 A 
ATOM     11  O   UNL d   1     -52.213  24.972  33.334  0.00  0.00    -0.301 OA
ATOM     12  C   UNL d   1     -51.979  26.366  33.394  0.00  0.00     0.028 A 
ATOM     13  C   UNL d   1     -51.435  26.992  33.428  0.00  0.00     0.015 A 
ENDBRANCH   1   4
BRANCH   1  14
ATOM     14  N   UNL d   1     -49.613  28.158  33.508  0.00  0.00    -0.158 NA
BRANCH  14  15
ATOM     15  C   UNL d   1     -49.146  28.254  34.200  0.00  0.00     0.094 A 
ATOM     16  C   UNL d   1     -48.811  28.999  34.353  0.00  0.00     0.020 A 
ATOM     17  C   UNL d   1     -48.347  29.095  35.040  0.00  0.00     0.002 A 
ATOM     18  C   UNL d   1     -48.001  29.842  35.211  0.00  0.00     0.000 C 
ATOM     19  C   UNL d   1     -48.227  28.460  35.552  0.00  0.00     0.000 A 
ATOM     20  C   UNL d   1     -48.576  27.737  35.366  0.00  0.00     0.002 A 
ATOM     21  C   UNL d   1     -49.025  27.639  34.703  0.00  0.00     0.020 A 
ENDBRANCH  14  15
ENDBRANCH   1  14
TORSDOF 3
ENDMDL
