MODEL 1
REMARK VINA RESULT:     141.8      0.000      0.000
REMARK  6 active torsions:
REMARK  status: ('A' for Active; 'I' for Inactive)
REMARK       I    between atoms: C_4  and  N_1 
REMARK    1  A    between atoms: C_8  and  C_3 
REMARK    2  A    between atoms: C_16  and  C_4 
REMARK    3  A    between atoms: C_13  and  C_5 
REMARK    4  A    between atoms: N_6  and  C_9 
REMARK    5  A    between atoms: O_24  and  C_11 
REMARK    6  A    between atoms: O_25  and  C_17 
ROOT
ATOM      1  N   UNL d   1      61.164  47.354  50.547  0.00  0.00    -0.195 N 
ATOM      2  N   UNL d   1      61.721  46.763  50.337  0.00  0.00    -0.163 NA
ATOM      3  C   UNL d   1      60.420  46.984  50.573  0.00  0.00     0.088 A 
ATOM      4  C   UNL d   1      61.330  48.182  50.704  0.00  0.00     0.280 C 
ATOM      5  C   UNL d   1      61.302  46.048  50.240  0.00  0.00     0.103 A 
ATOM      6  C   UNL d   1      60.519  46.187  50.384  0.00  0.00     0.040 A 
ATOM      7  O   UNL d   1      62.091  48.468  50.657  0.00  0.00    -0.265 OA
ENDROOT
BRANCH   3   8
ATOM      8  C   UNL d   1      59.730  47.404  50.765  0.00  0.00     0.020 A 
ATOM      9  C   UNL d   1      59.114  46.894  50.603  0.00  0.00     0.028 A 
ATOM     10  C   UNL d   1      58.340  47.129  50.729  0.00  0.00     0.116 A 
ATOM     11  C   UNL d   1      58.177  47.884  51.022  0.00  0.00     0.116 A 
ATOM     12  C   UNL d   1      58.831  48.396  51.182  0.00  0.00     0.026 A 
ATOM     13  C   UNL d   1      59.604  48.161  51.056  0.00  0.00     0.004 A 
BRANCH  10  14
ATOM     14  O   UNL d   1      57.709  46.601  50.561  0.00  0.00    -0.326 OA
ATOM     15  C   UNL d   1      57.720  45.803  50.848  0.00  0.00     0.181 C 
ENDBRANCH  10  14
BRANCH  11  16
ATOM     16  O   UNL d   1      57.384  48.132  51.154  0.00  0.00    -0.326 OA
ATOM     17  C   UNL d   1      57.077  48.742  50.729  0.00  0.00     0.181 C 
ENDBRANCH  11  16
ENDBRANCH   3   8
BRANCH   4  18
ATOM     18  C   UNL d   1      60.684  48.700  50.911  0.00  0.00     0.058 A 
ATOM     19  C   UNL d   1      60.293  49.133  50.329  0.00  0.00     0.005 A 
ATOM     20  C   UNL d   1      59.667  49.638  50.516  0.00  0.00     0.000 A 
ATOM     21  C   UNL d   1      59.431  49.708  51.303  0.00  0.00     0.000 A 
ATOM     22  C   UNL d   1      59.821  49.275  51.884  0.00  0.00     0.000 A 
ATOM     23  C   UNL d   1      60.452  48.766  51.696  0.00  0.00     0.005 A 
ENDBRANCH   4  18
BRANCH   5  24
ATOM     24  C   UNL d   1      61.582  45.303  50.037  0.00  0.00     0.019 A 
ATOM     25  C   UNL d   1      61.456  44.687  50.584  0.00  0.00     0.003 A 
ATOM     26  C   UNL d   1      61.719  43.935  50.418  0.00  0.00     0.024 A 
ATOM     27  C   UNL d   1      62.116  43.781  49.699  0.00  0.00     0.127 A 
ATOM     28  C   UNL d   1      62.242  44.397  49.152  0.00  0.00     0.024 A 
ATOM     29  C   UNL d   1      61.964  45.165  49.339  0.00  0.00     0.003 A 
BRANCH  27  30
ATOM     30  N   UNL d   1      62.388  42.996  49.531  0.00  0.00    -0.114 N 
ATOM     31  O   UNL d   1      62.908  42.610  50.055  0.00  0.00    -0.532 OA
ATOM     32  O   UNL d   1      62.132  42.610  48.836  0.00  0.00    -0.532 OA
ENDBRANCH  27  30
ENDBRANCH   5  24
TORSDOF 6
ENDMDL
