MODEL 1
REMARK VINA RESULT:       6.7      0.000      0.000
REMARK  3 active torsions:
REMARK  status: ('A' for Active; 'I' for Inactive)
REMARK    1  A    between atoms: C_2  and  C_1 
REMARK    2  A    between atoms: C_4  and  C_1 
REMARK    3  A    between atoms: C_3  and  C_2 
ROOT
ATOM      1  C   UNL d   1      46.384 -18.557  44.108  0.00  0.00     0.000 A 
ATOM      2  C   UNL d   1      46.454 -19.018  43.420  0.00  0.00     0.000 A 
ATOM      3  C   UNL d   1      46.569 -19.813  43.482  0.00  0.00     0.000 A 
ATOM      4  C   UNL d   1      46.550 -19.723  44.919  0.00  0.00     0.000 A 
ATOM      5  C   UNL d   1      46.432 -18.909  44.856  0.00  0.00     0.000 A 
ATOM      6  C   UNL d   1      46.407 -18.665  42.691  0.00  0.00     0.000 A 
ATOM      7  C   UNL d   1      46.620 -20.185  44.235  0.00  0.00     0.000 A 
ATOM      8  C   UNL d   1      46.642 -20.293  42.819  0.00  0.00     0.000 A 
ATOM      9  C   UNL d   1      46.476 -19.125  42.011  0.00  0.00     0.000 A 
ATOM     10  C   UNL d   1      46.594 -19.939  42.075  0.00  0.00     0.000 A 
ENDROOT
BRANCH   1  11
ATOM     11  C   UNL d   1      46.267 -17.742  44.044  0.00  0.00     0.006 C 
BRANCH  11  12
ATOM     12  C   UNL d   1      45.919 -17.327  44.649  0.00  0.00     0.070 C 
BRANCH  12  13
ATOM     13  C   UNL d   1      45.737 -16.516  44.558  0.00  0.00     0.211 C 
ATOM     14  O   UNL d   1      46.322 -15.968  44.404  0.00  0.00    -0.644 OA
ATOM     15  O   UNL d   1      44.959 -16.250  44.622  0.00  0.00    -0.644 OA
ENDBRANCH  12  13
ENDBRANCH  11  12
ENDBRANCH   1  11
TORSDOF 3
ENDMDL
MODEL 2
REMARK VINA RESULT:       6.8      3.271      5.539
REMARK  3 active torsions:
REMARK  status: ('A' for Active; 'I' for Inactive)
REMARK    1  A    between atoms: C_2  and  C_1 
REMARK    2  A    between atoms: C_4  and  C_1 
REMARK    3  A    between atoms: C_3  and  C_2 
ROOT
ATOM      1  C   UNL d   1      45.540 -13.938  44.449  0.00  0.00     0.000 A 
ATOM      2  C   UNL d   1      45.261 -13.379  43.900  0.00  0.00     0.000 A 
ATOM      3  C   UNL d   1      45.607 -12.652  43.861  0.00  0.00     0.000 A 
ATOM      4  C   UNL d   1      46.522 -13.008  44.914  0.00  0.00     0.000 A 
ATOM      5  C   UNL d   1      46.168 -13.752  44.954  0.00  0.00     0.000 A 
ATOM      6  C   UNL d   1      44.645 -13.569  43.408  0.00  0.00     0.000 A 
ATOM      7  C   UNL d   1      46.247 -12.449  44.368  0.00  0.00     0.000 A 
ATOM      8  C   UNL d   1      45.352 -12.081  43.328  0.00  0.00     0.000 A 
ATOM      9  C   UNL d   1      44.371 -13.012  42.866  0.00  0.00     0.000 A 
ATOM     10  C   UNL d   1      44.725 -12.268  42.825  0.00  0.00     0.000 A 
ENDROOT
BRANCH   1  11
ATOM     11  C   UNL d   1      45.186 -14.683  44.489  0.00  0.00     0.006 C 
BRANCH  11  12
ATOM     12  C   UNL d   1      45.518 -15.273  44.936  0.00  0.00     0.070 C 
BRANCH  12  13
ATOM     13  C   UNL d   1      45.419 -16.075  44.722  0.00  0.00     0.211 C 
ATOM     14  O   UNL d   1      45.983 -16.466  44.281  0.00  0.00    -0.644 OA
ATOM     15  O   UNL d   1      44.745 -16.492  44.952  0.00  0.00    -0.644 OA
ENDBRANCH  12  13
ENDBRANCH  11  12
ENDBRANCH   1  11
TORSDOF 3
ENDMDL
MODEL 3
REMARK VINA RESULT:       8.0      4.348      5.876
REMARK  3 active torsions:
REMARK  status: ('A' for Active; 'I' for Inactive)
REMARK    1  A    between atoms: C_2  and  C_1 
REMARK    2  A    between atoms: C_4  and  C_1 
REMARK    3  A    between atoms: C_3  and  C_2 
ROOT
ATOM      1  C   UNL d   1      45.282 -12.832  43.792  0.00  0.00     0.000 A 
ATOM      2  C   UNL d   1      45.493 -13.587  44.068  0.00  0.00     0.000 A 
ATOM      3  C   UNL d   1      46.060 -13.661  44.636  0.00  0.00     0.000 A 
ATOM      4  C   UNL d   1      46.231 -12.232  44.678  0.00  0.00     0.000 A 
ATOM      5  C   UNL d   1      45.651 -12.156  44.096  0.00  0.00     0.000 A 
ATOM      6  C   UNL d   1      45.126 -14.244  43.764  0.00  0.00     0.000 A 
ATOM      7  C   UNL d   1      46.443 -12.983  44.955  0.00  0.00     0.000 A 
ATOM      8  C   UNL d   1      46.287 -14.395  44.927  0.00  0.00     0.000 A 
ATOM      9  C   UNL d   1      45.338 -14.992  44.040  0.00  0.00     0.000 A 
ATOM     10  C   UNL d   1      45.918 -15.067  44.622  0.00  0.00     0.000 A 
ENDROOT
BRANCH   1  11
ATOM     11  C   UNL d   1      44.701 -12.757  43.210  0.00  0.00     0.006 C 
BRANCH  11  12
ATOM     12  C   UNL d   1      44.649 -12.080  42.765  0.00  0.00     0.070 C 
BRANCH  12  13
ATOM     13  C   UNL d   1      44.702 -12.115  41.931  0.00  0.00     0.211 C 
ATOM     14  O   UNL d   1      44.032 -12.147  41.468  0.00  0.00    -0.644 OA
ATOM     15  O   UNL d   1      45.438 -12.117  41.556  0.00  0.00    -0.644 OA
ENDBRANCH  12  13
ENDBRANCH  11  12
ENDBRANCH   1  11
TORSDOF 3
ENDMDL
MODEL 4
REMARK VINA RESULT:       8.8      1.973      3.034
REMARK  3 active torsions:
REMARK  status: ('A' for Active; 'I' for Inactive)
REMARK    1  A    between atoms: C_2  and  C_1 
REMARK    2  A    between atoms: C_4  and  C_1 
REMARK    3  A    between atoms: C_3  and  C_2 
ROOT
ATOM      1  C   UNL d   1      46.383 -19.267  42.951  0.00  0.00     0.000 A 
ATOM      2  C   UNL d   1      46.305 -18.710  43.564  0.00  0.00     0.000 A 
ATOM      3  C   UNL d   1      46.288 -18.959  44.330  0.00  0.00     0.000 A 
ATOM      4  C   UNL d   1      46.424 -20.329  43.908  0.00  0.00     0.000 A 
ATOM      5  C   UNL d   1      46.442 -20.074  43.124  0.00  0.00     0.000 A 
ATOM      6  C   UNL d   1      46.248 -17.921  43.386  0.00  0.00     0.000 A 
ATOM      7  C   UNL d   1      46.347 -19.777  44.520  0.00  0.00     0.000 A 
ATOM      8  C   UNL d   1      46.212 -18.431  44.955  0.00  0.00     0.000 A 
ATOM      9  C   UNL d   1      46.171 -17.372  43.996  0.00  0.00     0.000 A 
ATOM     10  C   UNL d   1      46.153 -17.626  44.780  0.00  0.00     0.000 A 
ENDROOT
BRANCH   1  11
ATOM     11  C   UNL d   1      46.401 -19.012  42.166  0.00  0.00     0.006 C 
BRANCH  11  12
ATOM     12  C   UNL d   1      46.448 -19.548  41.559  0.00  0.00     0.070 C 
BRANCH  12  13
ATOM     13  C   UNL d   1      46.528 -19.289  40.769  0.00  0.00     0.211 C 
ATOM     14  O   UNL d   1      46.492 -18.496  40.580  0.00  0.00    -0.644 OA
ATOM     15  O   UNL d   1      46.645 -19.832  40.158  0.00  0.00    -0.644 OA
ENDBRANCH  12  13
ENDBRANCH  11  12
ENDBRANCH   1  11
TORSDOF 3
ENDMDL
