MODEL 1
REMARK VINA RESULT:      14.8      0.000      0.000
REMARK  3 active torsions:
REMARK  status: ('A' for Active; 'I' for Inactive)
REMARK    1  A    between atoms: N_5  and  C_1 
REMARK    2  A    between atoms: C_10  and  C_2 
REMARK       I    between atoms: C_8  and  N_5 
REMARK    3  A    between atoms: C_7  and  C_8 
ROOT
ATOM      1  C   UNL d   1      46.343 -18.202  43.710  0.00  0.00     0.119 A 
ATOM      2  C   UNL d   1      46.249 -18.637  43.004  0.00  0.00     0.084 A 
ATOM      3  S   UNL d   1      46.502 -18.736  44.314  0.00  0.00    -0.068 SA
ATOM      4  C   UNL d   1      46.352 -19.438  43.181  0.00  0.00     0.013 A 
ATOM      5  C   UNL d   1      46.509 -19.499  43.997  0.00  0.00     0.031 A 
ATOM      6  C   UNL d   1      46.307 -20.067  42.652  0.00  0.00     0.001 C 
ATOM      7  C   UNL d   1      46.646 -20.199  44.408  0.00  0.00     0.007 C 
ENDROOT
BRANCH   1   8
ATOM      8  N   UNL d   1      46.286 -17.383  43.782  0.00  0.00    -0.201 NA
ATOM      9  C   UNL d   1      45.852 -17.059  44.408  0.00  0.00     0.286 C 
ATOM     10  O   UNL d   1      45.480 -17.535  44.955  0.00  0.00    -0.265 OA
BRANCH   9  11
ATOM     11  C   UNL d   1      45.794 -16.235  44.481  0.00  0.00     0.088 A 
ATOM     12  S   UNL d   1      45.121 -15.803  44.713  0.00  0.00    -0.075 SA
ATOM     13  C   UNL d   1      45.315 -14.993  44.709  0.00  0.00     0.064 A 
ATOM     14 BR   UNL d   1      44.809 -14.355  44.905  0.00  0.00    -0.042 Br
ATOM     15  C   UNL d   1      46.104 -14.938  44.476  0.00  0.00     0.014 A 
ATOM     16  C   UNL d   1      46.396 -15.693  44.337  0.00  0.00     0.012 A 
ENDBRANCH   9  11
ENDBRANCH   1   8
BRANCH   2  17
ATOM     17  C   UNL d   1      46.083 -18.321  42.260  0.00  0.00     0.299 C 
ATOM     18  O   UNL d   1      45.345 -17.959  42.116  0.00  0.00    -0.264 OA
ATOM     19  N   UNL d   1      46.645 -18.359  41.648  0.00  0.00    -0.102 N 
ENDBRANCH   2  17
TORSDOF 3
ENDMDL
MODEL 2
REMARK VINA RESULT:      17.1      1.072      1.670
REMARK  3 active torsions:
REMARK  status: ('A' for Active; 'I' for Inactive)
REMARK    1  A    between atoms: N_5  and  C_1 
REMARK    2  A    between atoms: C_10  and  C_2 
REMARK       I    between atoms: C_8  and  N_5 
REMARK    3  A    between atoms: C_7  and  C_8 
ROOT
ATOM      1  C   UNL d   1      46.292 -18.240  43.320  0.00  0.00     0.119 A 
ATOM      2  C   UNL d   1      46.378 -19.038  43.548  0.00  0.00     0.084 A 
ATOM      3  S   UNL d   1      46.365 -18.204  42.502  0.00  0.00    -0.068 SA
ATOM      4  C   UNL d   1      46.504 -19.487  42.865  0.00  0.00     0.013 A 
ATOM      5  C   UNL d   1      46.495 -18.968  42.215  0.00  0.00     0.031 A 
ATOM      6  C   UNL d   1      46.617 -20.302  42.828  0.00  0.00     0.001 C 
ATOM      7  C   UNL d   1      46.599 -19.183  41.427  0.00  0.00     0.007 C 
ENDROOT
BRANCH   1   8
ATOM      8  N   UNL d   1      46.159 -17.606  43.828  0.00  0.00    -0.201 NA
ATOM      9  C   UNL d   1      45.923 -16.876  43.517  0.00  0.00     0.286 C 
ATOM     10  O   UNL d   1      45.820 -16.773  42.715  0.00  0.00    -0.265 OA
BRANCH   9  11
ATOM     11  C   UNL d   1      45.788 -16.238  44.028  0.00  0.00     0.088 A 
ATOM     12  S   UNL d   1      45.083 -15.800  44.102  0.00  0.00    -0.075 SA
ATOM     13  C   UNL d   1      45.198 -15.212  44.681  0.00  0.00     0.064 A 
ATOM     14 BR   UNL d   1      44.639 -14.645  44.937  0.00  0.00    -0.042 Br
ATOM     15  C   UNL d   1      45.972 -15.296  44.955  0.00  0.00     0.014 A 
ATOM     16  C   UNL d   1      46.331 -15.919  44.558  0.00  0.00     0.012 A 
ENDBRANCH   9  11
ENDBRANCH   1   8
BRANCH   2  17
ATOM     17  C   UNL d   1      46.344 -19.327  44.320  0.00  0.00     0.299 C 
ATOM     18  O   UNL d   1      46.644 -18.868  44.949  0.00  0.00    -0.264 OA
ATOM     19  N   UNL d   1      46.013 -20.073  44.480  0.00  0.00    -0.102 N 
ENDBRANCH   2  17
TORSDOF 3
ENDMDL
