MODEL 1
REMARK VINA RESULT:      71.5      0.000      0.000
REMARK  6 active torsions:
REMARK  status: ('A' for Active; 'I' for Inactive)
REMARK    1  A    between atoms: C_7  and  C_1 
REMARK    2  A    between atoms: C_10  and  C_2 
REMARK    3  A    between atoms: C_8  and  C_7 
REMARK    4  A    between atoms: C_9  and  C_8 
REMARK    5  A    between atoms: C_13  and  C_9 
REMARK    6  A    between atoms: O_20  and  C_16 
ROOT
ATOM      1  C   UNL d   1      14.025  14.421  -2.781  0.00  0.00     0.097 A 
ATOM      2  C   UNL d   1      14.068  13.643  -2.510  0.00  0.00     0.009 A 
ATOM      3  C   UNL d   1      14.298  15.037  -2.315  0.00  0.00     0.282 A 
ATOM      4  C   UNL d   1      14.387  13.491  -1.764  0.00  0.00     0.019 A 
ATOM      5  N   UNL d   1      14.616  14.882  -1.572  0.00  0.00    -0.208 NA
ATOM      6  C   UNL d   1      14.660  14.107  -1.298  0.00  0.00     0.085 A 
ATOM      7  C   UNL d   1      14.430  12.713  -1.493  0.00  0.00     0.013 A 
ATOM      8  O   UNL d   1      14.240  15.820  -2.624  0.00  0.00    -0.265 OA
ATOM      9  C   UNL d   1      14.978  13.952  -0.555  0.00  0.00     0.020 A 
ATOM     10  C   UNL d   1      14.749  12.561  -0.747  0.00  0.00     0.058 A 
ATOM     11  C   UNL d   1      15.022  13.177  -0.281  0.00  0.00     0.013 A 
ATOM     12 CL   UNL d   1      14.803  11.779  -0.451  0.00  0.00    -0.082 Cl
ENDROOT
BRANCH   1  13
ATOM     13  C   UNL d   1      13.702  14.606  -3.542  0.00  0.00     0.200 C 
ATOM     14  O   UNL d   1      12.927  14.410  -3.710  0.00  0.00    -0.286 OA
BRANCH  13  15
ATOM     15  C   UNL d   1      14.176  14.983  -4.104  0.00  0.00     0.042 C 
BRANCH  15  16
ATOM     16  C   UNL d   1      13.847  15.519  -4.626  0.00  0.00     0.005 C 
BRANCH  16  17
ATOM     17  C   UNL d   1      14.315  16.114  -4.942  0.00  0.00     0.022 A 
ATOM     18  C   UNL d   1      14.079  16.497  -5.639  0.00  0.00     0.094 A 
ATOM     19  C   UNL d   1      14.549  17.101  -5.965  0.00  0.00     0.024 A 
ATOM     20  C   UNL d   1      15.243  17.308  -5.587  0.00  0.00     0.002 A 
ATOM     21  C   UNL d   1      15.498  16.927  -4.875  0.00  0.00     0.000 A 
ATOM     22  C   UNL d   1      15.028  16.336  -4.566  0.00  0.00     0.002 A 
BRANCH  18  23
ATOM     23  O   UNL d   1      13.368  16.284  -6.025  0.00  0.00    -0.328 OA
ATOM     24  C   UNL d   1      12.773  16.825  -6.113  0.00  0.00     0.181 C 
ENDBRANCH  18  23
ENDBRANCH  16  17
ENDBRANCH  15  16
ENDBRANCH  13  15
ENDBRANCH   1  13
BRANCH   2  25
ATOM     25  C   UNL d   1      13.791  13.018  -2.983  0.00  0.00     0.000 A 
ATOM     26  C   UNL d   1      13.130  12.600  -2.748  0.00  0.00     0.000 A 
ATOM     27  C   UNL d   1      12.848  11.963  -3.230  0.00  0.00     0.000 A 
ATOM     28  C   UNL d   1      13.243  11.779  -3.921  0.00  0.00     0.000 A 
ATOM     29  C   UNL d   1      13.889  12.192  -4.146  0.00  0.00     0.000 A 
ATOM     30  C   UNL d   1      14.181  12.823  -3.684  0.00  0.00     0.000 A 
ENDBRANCH   2  25
TORSDOF 6
ENDMDL
MODEL 2
REMARK VINA RESULT:      72.2      1.966      4.989
REMARK  6 active torsions:
REMARK  status: ('A' for Active; 'I' for Inactive)
REMARK    1  A    between atoms: C_7  and  C_1 
REMARK    2  A    between atoms: C_10  and  C_2 
REMARK    3  A    between atoms: C_8  and  C_7 
REMARK    4  A    between atoms: C_9  and  C_8 
REMARK    5  A    between atoms: C_13  and  C_9 
REMARK    6  A    between atoms: O_20  and  C_16 
ROOT
ATOM      1  C   UNL d   1      14.101  14.786  -3.056  0.00  0.00     0.097 A 
ATOM      2  C   UNL d   1      14.480  15.515  -3.127  0.00  0.00     0.009 A 
ATOM      3  C   UNL d   1      13.828  14.395  -3.723  0.00  0.00     0.282 A 
ATOM      4  C   UNL d   1      14.584  15.847  -3.875  0.00  0.00     0.019 A 
ATOM      5  N   UNL d   1      13.933  14.728  -4.468  0.00  0.00    -0.208 NA
ATOM      6  C   UNL d   1      14.312  15.456  -4.543  0.00  0.00     0.085 A 
ATOM      7  C   UNL d   1      14.964  16.576  -3.946  0.00  0.00     0.013 A 
ATOM      8  O   UNL d   1      13.445  13.652  -3.614  0.00  0.00    -0.265 OA
ATOM      9  C   UNL d   1      14.417  15.789  -5.287  0.00  0.00     0.020 A 
ATOM     10  C   UNL d   1      15.068  16.908  -4.695  0.00  0.00     0.058 A 
ATOM     11  C   UNL d   1      14.796  16.517  -5.362  0.00  0.00     0.013 A 
ATOM     12 CL   UNL d   1      15.451  17.646  -4.791  0.00  0.00    -0.082 Cl
ENDROOT
BRANCH   1  13
ATOM     13  C   UNL d   1      13.980  14.422  -2.301  0.00  0.00     0.200 C 
ATOM     14  O   UNL d   1      13.446  14.749  -1.776  0.00  0.00    -0.286 OA
BRANCH  13  15
ATOM     15  C   UNL d   1      14.405  13.742  -2.106  0.00  0.00     0.042 C 
BRANCH  15  16
ATOM     16  C   UNL d   1      14.043  13.134  -1.696  0.00  0.00     0.005 C 
BRANCH  16  17
ATOM     17  C   UNL d   1      14.471  12.710  -1.140  0.00  0.00     0.022 A 
ATOM     18  C   UNL d   1      14.075  12.217  -0.604  0.00  0.00     0.094 A 
ATOM     19  C   UNL d   1      14.504  11.784  -0.037  0.00  0.00     0.024 A 
ATOM     20  C   UNL d   1      15.317  11.855  -0.020  0.00  0.00     0.002 A 
ATOM     21  C   UNL d   1      15.736  12.354  -0.560  0.00  0.00     0.000 A 
ATOM     22  C   UNL d   1      15.304  12.773  -1.110  0.00  0.00     0.002 A 
BRANCH  18  23
ATOM     23  O   UNL d   1      13.242  12.145  -0.622  0.00  0.00    -0.328 OA
ATOM     24  C   UNL d   1      12.849  11.782  -0.016  0.00  0.00     0.181 C 
ENDBRANCH  18  23
ENDBRANCH  16  17
ENDBRANCH  15  16
ENDBRANCH  13  15
ENDBRANCH   1  13
BRANCH   2  25
ATOM     25  C   UNL d   1      14.756  15.911  -2.451  0.00  0.00     0.000 A 
ATOM     26  C   UNL d   1      15.515  15.768  -2.183  0.00  0.00     0.000 A 
ATOM     27  C   UNL d   1      15.796  16.172  -1.494  0.00  0.00     0.000 A 
ATOM     28  C   UNL d   1      15.303  16.698  -1.109  0.00  0.00     0.000 A 
ATOM     29  C   UNL d   1      14.561  16.834  -1.375  0.00  0.00     0.000 A 
ATOM     30  C   UNL d   1      14.267  16.445  -2.053  0.00  0.00     0.000 A 
ENDBRANCH   2  25
TORSDOF 6
ENDMDL
MODEL 3
REMARK VINA RESULT:      72.7      1.983      4.600
REMARK  6 active torsions:
REMARK  status: ('A' for Active; 'I' for Inactive)
REMARK    1  A    between atoms: C_7  and  C_1 
REMARK    2  A    between atoms: C_10  and  C_2 
REMARK    3  A    between atoms: C_8  and  C_7 
REMARK    4  A    between atoms: C_9  and  C_8 
REMARK    5  A    between atoms: C_13  and  C_9 
REMARK    6  A    between atoms: O_20  and  C_16 
ROOT
ATOM      1  C   UNL d   1      14.512  15.634  -2.052  0.00  0.00     0.097 A 
ATOM      2  C   UNL d   1      14.426  15.521  -2.865  0.00  0.00     0.009 A 
ATOM      3  C   UNL d   1      14.906  16.293  -1.766  0.00  0.00     0.282 A 
ATOM      4  C   UNL d   1      14.740  16.078  -3.387  0.00  0.00     0.019 A 
ATOM      5  N   UNL d   1      15.218  16.846  -2.288  0.00  0.00    -0.208 NA
ATOM      6  C   UNL d   1      15.134  16.737  -3.100  0.00  0.00     0.085 A 
ATOM      7  C   UNL d   1      14.653  15.965  -4.199  0.00  0.00     0.013 A 
ATOM      8  O   UNL d   1      14.976  16.376  -0.929  0.00  0.00    -0.265 OA
ATOM      9  C   UNL d   1      15.446  17.290  -3.623  0.00  0.00     0.020 A 
ATOM     10  C   UNL d   1      14.967  16.522  -4.722  0.00  0.00     0.058 A 
ATOM     11  C   UNL d   1      15.362  17.181  -4.435  0.00  0.00     0.013 A 
ATOM     12 CL   UNL d   1      14.892  16.428  -5.550  0.00  0.00    -0.082 Cl
ENDROOT
BRANCH   1  13
ATOM     13  C   UNL d   1      14.200  15.079  -1.494  0.00  0.00     0.200 C 
ATOM     14  O   UNL d   1      13.400  15.082  -1.325  0.00  0.00    -0.286 OA
BRANCH  13  15
ATOM     15  C   UNL d   1      14.708  14.541  -1.128  0.00  0.00     0.042 C 
BRANCH  15  16
ATOM     16  C   UNL d   1      14.535  14.253  -0.383  0.00  0.00     0.005 C 
BRANCH  16  17
ATOM     17  C   UNL d   1      14.505  13.443  -0.260  0.00  0.00     0.022 A 
ATOM     18  C   UNL d   1      15.208  13.002  -0.250  0.00  0.00     0.094 A 
ATOM     19  C   UNL d   1      15.184  12.179  -0.125  0.00  0.00     0.024 A 
ATOM     20  C   UNL d   1      14.460  11.818  -0.014  0.00  0.00     0.002 A 
ATOM     21  C   UNL d   1      13.734  12.254  -0.022  0.00  0.00     0.000 A 
ATOM     22  C   UNL d   1      13.771  13.059  -0.145  0.00  0.00     0.002 A 
BRANCH  18  23
ATOM     23  O   UNL d   1      15.948  13.372  -0.363  0.00  0.00    -0.328 OA
ATOM     24  C   UNL d   1      16.627  13.022  -0.098  0.00  0.00     0.181 C 
ENDBRANCH  18  23
ENDBRANCH  16  17
ENDBRANCH  15  16
ENDBRANCH  13  15
ENDBRANCH   1  13
BRANCH   2  25
ATOM     25  C   UNL d   1      14.026  14.853  -3.155  0.00  0.00     0.000 A 
ATOM     26  C   UNL d   1      13.222  14.896  -3.295  0.00  0.00     0.000 A 
ATOM     27  C   UNL d   1      12.815  14.215  -3.591  0.00  0.00     0.000 A 
ATOM     28  C   UNL d   1      13.233  13.528  -3.732  0.00  0.00     0.000 A 
ATOM     29  C   UNL d   1      14.020  13.491  -3.593  0.00  0.00     0.000 A 
ATOM     30  C   UNL d   1      14.438  14.152  -3.301  0.00  0.00     0.000 A 
ENDBRANCH   2  25
TORSDOF 6
ENDMDL
MODEL 4
REMARK VINA RESULT:      73.5      1.674      3.310
REMARK  6 active torsions:
REMARK  status: ('A' for Active; 'I' for Inactive)
REMARK    1  A    between atoms: C_7  and  C_1 
REMARK    2  A    between atoms: C_10  and  C_2 
REMARK    3  A    between atoms: C_8  and  C_7 
REMARK    4  A    between atoms: C_9  and  C_8 
REMARK    5  A    between atoms: C_13  and  C_9 
REMARK    6  A    between atoms: O_20  and  C_16 
ROOT
ATOM      1  C   UNL d   1      14.232  14.179  -2.415  0.00  0.00     0.097 A 
ATOM      2  C   UNL d   1      14.673  14.795  -2.090  0.00  0.00     0.009 A 
ATOM      3  C   UNL d   1      14.220  13.443  -2.052  0.00  0.00     0.282 A 
ATOM      4  C   UNL d   1      15.102  14.666  -1.396  0.00  0.00     0.019 A 
ATOM      5  N   UNL d   1      14.648  13.317  -1.361  0.00  0.00    -0.208 NA
ATOM      6  C   UNL d   1      15.089  13.930  -1.034  0.00  0.00     0.085 A 
ATOM      7  C   UNL d   1      15.543  15.282  -1.071  0.00  0.00     0.013 A 
ATOM      8  O   UNL d   1      13.759  12.836  -2.412  0.00  0.00    -0.265 OA
ATOM      9  C   UNL d   1      15.518  13.804  -0.343  0.00  0.00     0.020 A 
ATOM     10  C   UNL d   1      15.971  15.153  -0.378  0.00  0.00     0.058 A 
ATOM     11  C   UNL d   1      15.959  14.417  -0.015  0.00  0.00     0.013 A 
ATOM     12 CL   UNL d   1      16.426  15.763  -0.030  0.00  0.00    -0.082 Cl
ENDROOT
BRANCH   1  13
ATOM     13  C   UNL d   1      13.783  14.283  -3.125  0.00  0.00     0.200 C 
ATOM     14  O   UNL d   1      13.544  15.033  -3.344  0.00  0.00    -0.286 OA
BRANCH  13  15
ATOM     15  C   UNL d   1      13.594  13.625  -3.587  0.00  0.00     0.042 C 
BRANCH  15  16
ATOM     16  C   UNL d   1      13.214  13.722  -4.304  0.00  0.00     0.005 C 
BRANCH  16  17
ATOM     17  C   UNL d   1      13.202  13.103  -4.841  0.00  0.00     0.022 A 
ATOM     18  C   UNL d   1      13.604  13.175  -5.563  0.00  0.00     0.094 A 
ATOM     19  C   UNL d   1      13.594  12.550  -6.112  0.00  0.00     0.024 A 
ATOM     20  C   UNL d   1      13.184  11.869  -5.927  0.00  0.00     0.002 A 
ATOM     21  C   UNL d   1      12.769  11.779  -5.195  0.00  0.00     0.000 A 
ATOM     22  C   UNL d   1      12.786  12.399  -4.666  0.00  0.00     0.002 A 
BRANCH  18  23
ATOM     23  O   UNL d   1      14.023  13.873  -5.751  0.00  0.00    -0.328 OA
ATOM     24  C   UNL d   1      14.584  13.869  -6.334  0.00  0.00     0.181 C 
ENDBRANCH  18  23
ENDBRANCH  16  17
ENDBRANCH  15  16
ENDBRANCH  13  15
ENDBRANCH   1  13
BRANCH   2  25
ATOM     25  C   UNL d   1      14.686  15.541  -2.457  0.00  0.00     0.000 A 
ATOM     26  C   UNL d   1      15.073  15.629  -3.171  0.00  0.00     0.000 A 
ATOM     27  C   UNL d   1      15.086  16.389  -3.545  0.00  0.00     0.000 A 
ATOM     28  C   UNL d   1      14.711  17.019  -3.185  0.00  0.00     0.000 A 
ATOM     29  C   UNL d   1      14.334  16.927  -2.487  0.00  0.00     0.000 A 
ATOM     30  C   UNL d   1      14.311  16.185  -2.103  0.00  0.00     0.000 A 
ENDBRANCH   2  25
TORSDOF 6
ENDMDL
