MODEL 1
REMARK VINA RESULT:     -10.1      0.000      0.000
REMARK  8 active torsions:
REMARK  status: ('A' for Active; 'I' for Inactive)
REMARK    1  A    between atoms: C_2  and  C_1 
REMARK    2  A    between atoms: C_3  and  C_1 
REMARK    3  A    between atoms: C_5  and  C_1 
REMARK    4  A    between atoms: N_4  and  C_6 
REMARK    5  A    between atoms: C_7  and  N_4 
REMARK    6  A    between atoms: C_8  and  N_4 
REMARK    7  A    between atoms: C_20  and  C_7 
REMARK    8  A    between atoms: C_21  and  C_8 
ROOT
ATOM      1  C   UNL d   1      51.627  33.734  53.038  0.00  0.00     0.044 A 
ATOM      2  C   UNL d   1      52.815  32.693  53.532  0.00  0.00     0.064 A 
ATOM      3  C   UNL d   1      52.237  33.530  52.516  0.00  0.00     0.004 A 
ATOM      4  C   UNL d   1      51.611  33.421  53.799  0.00  0.00     0.004 A 
ATOM      5  C   UNL d   1      52.834  33.008  52.762  0.00  0.00     0.018 A 
ATOM      6  C   UNL d   1      52.208  32.898  54.046  0.00  0.00     0.018 A 
ENDROOT
BRANCH   2   7
ATOM      7  N   UNL d   1      53.404  32.178  53.775  0.00  0.00    -0.304 N 
BRANCH   7   8
ATOM      8  C   UNL d   1      53.743  32.260  54.518  0.00  0.00     0.080 C 
BRANCH   8   9
ATOM      9  C   UNL d   1      54.347  32.795  54.645  0.00  0.00     0.018 A 
ATOM     10  C   UNL d   1      54.389  33.190  55.368  0.00  0.00     0.002 A 
ATOM     11  C   UNL d   1      55.001  33.739  55.513  0.00  0.00     0.000 A 
ATOM     12  C   UNL d   1      55.570  33.887  54.919  0.00  0.00     0.000 A 
ATOM     13  C   UNL d   1      55.528  33.493  54.196  0.00  0.00     0.000 A 
ATOM     14  C   UNL d   1      54.912  32.944  54.061  0.00  0.00     0.002 A 
ENDBRANCH   8   9
ENDBRANCH   7   8
BRANCH   7  15
ATOM     15  C   UNL d   1      53.658  31.578  53.278  0.00  0.00     0.080 C 
BRANCH  15  16
ATOM     16  C   UNL d   1      53.397  30.812  53.391  0.00  0.00     0.018 A 
ATOM     17  C   UNL d   1      53.646  30.376  54.049  0.00  0.00     0.002 A 
ATOM     18  C   UNL d   1      53.382  29.602  54.164  0.00  0.00     0.000 A 
ATOM     19  C   UNL d   1      52.867  29.258  53.621  0.00  0.00     0.000 A 
ATOM     20  C   UNL d   1      52.610  29.686  52.957  0.00  0.00     0.000 A 
ATOM     21  C   UNL d   1      52.884  30.467  52.853  0.00  0.00     0.002 A 
ENDBRANCH  15  16
ENDBRANCH   7  15
ENDBRANCH   2   7
BRANCH   1  22
ATOM     22  C   UNL d   1      51.034  34.253  52.793  0.00  0.00     0.297 C 
ATOM     23  O   UNL d   1      50.441  34.772  52.549  0.00  0.00    -0.281 OA
BRANCH  22  24
ATOM     24  C   UNL d   1      50.544  33.619  52.634  0.00  0.00     0.457 C 
ATOM     25  F   UNL d   1      50.824  33.599  51.858  0.00  0.00    -0.163 F 
ATOM     26  F   UNL d   1      50.265  33.639  53.410  0.00  0.00    -0.163 F 
ATOM     27  F   UNL d   1      50.050  32.978  52.473  0.00  0.00    -0.163 F 
ENDBRANCH  22  24
BRANCH  22  28
ATOM     28  C   UNL d   1      51.533  34.901  52.956  0.00  0.00     0.457 C 
ATOM     29  F   UNL d   1      52.022  35.535  53.116  0.00  0.00    -0.163 F 
ATOM     30  F   UNL d   1      51.848  34.850  52.195  0.00  0.00    -0.163 F 
ATOM     31  F   UNL d   1      51.219  34.952  53.718  0.00  0.00    -0.163 F 
ENDBRANCH  22  28
ENDBRANCH   1  22
TORSDOF 8
ENDMDL
MODEL 2
REMARK VINA RESULT:      -9.9      0.035      2.684
REMARK  8 active torsions:
REMARK  status: ('A' for Active; 'I' for Inactive)
REMARK    1  A    between atoms: C_2  and  C_1 
REMARK    2  A    between atoms: C_3  and  C_1 
REMARK    3  A    between atoms: C_5  and  C_1 
REMARK    4  A    between atoms: N_4  and  C_6 
REMARK    5  A    between atoms: C_7  and  N_4 
REMARK    6  A    between atoms: C_8  and  N_4 
REMARK    7  A    between atoms: C_20  and  C_7 
REMARK    8  A    between atoms: C_21  and  C_8 
ROOT
ATOM      1  C   UNL d   1      51.628  33.736  53.043  0.00  0.00     0.044 A 
ATOM      2  C   UNL d   1      52.820  32.703  53.544  0.00  0.00     0.064 A 
ATOM      3  C   UNL d   1      52.238  33.528  52.521  0.00  0.00     0.004 A 
ATOM      4  C   UNL d   1      51.616  33.430  53.807  0.00  0.00     0.004 A 
ATOM      5  C   UNL d   1      52.837  33.010  52.771  0.00  0.00     0.018 A 
ATOM      6  C   UNL d   1      52.215  32.911  54.057  0.00  0.00     0.018 A 
ENDROOT
BRANCH   2   7
ATOM      7  N   UNL d   1      53.412  32.191  53.790  0.00  0.00    -0.304 N 
BRANCH   7   8
ATOM      8  C   UNL d   1      53.666  31.587  53.297  0.00  0.00     0.080 C 
BRANCH   8   9
ATOM      9  C   UNL d   1      53.408  30.819  53.408  0.00  0.00     0.018 A 
ATOM     10  C   UNL d   1      52.951  30.460  52.822  0.00  0.00     0.002 A 
ATOM     11  C   UNL d   1      52.679  29.677  52.921  0.00  0.00     0.000 A 
ATOM     12  C   UNL d   1      52.874  29.259  53.619  0.00  0.00     0.000 A 
ATOM     13  C   UNL d   1      53.331  29.618  54.204  0.00  0.00     0.000 A 
ATOM     14  C   UNL d   1      53.598  30.403  54.096  0.00  0.00     0.002 A 
ENDBRANCH   8   9
ENDBRANCH   7   8
BRANCH   7  15
ATOM     15  C   UNL d   1      53.751  32.280  54.531  0.00  0.00     0.080 C 
BRANCH  15  16
ATOM     16  C   UNL d   1      54.360  32.814  54.642  0.00  0.00     0.018 A 
ATOM     17  C   UNL d   1      54.923  32.940  54.048  0.00  0.00     0.002 A 
ATOM     18  C   UNL d   1      55.537  33.479  54.161  0.00  0.00     0.000 A 
ATOM     19  C   UNL d   1      55.595  33.897  54.868  0.00  0.00     0.000 A 
ATOM     20  C   UNL d   1      55.035  33.779  55.471  0.00  0.00     0.000 A 
ATOM     21  C   UNL d   1      54.419  33.231  55.345  0.00  0.00     0.002 A 
ENDBRANCH  15  16
ENDBRANCH   7  15
ENDBRANCH   2   7
BRANCH   1  22
ATOM     22  C   UNL d   1      51.033  34.251  52.794  0.00  0.00     0.297 C 
ATOM     23  O   UNL d   1      50.439  34.765  52.546  0.00  0.00    -0.281 OA
BRANCH  22  24
ATOM     24  C   UNL d   1      50.547  33.613  52.637  0.00  0.00     0.457 C 
ATOM     25  F   UNL d   1      50.823  33.594  51.860  0.00  0.00    -0.163 F 
ATOM     26  F   UNL d   1      50.271  33.633  53.415  0.00  0.00    -0.163 F 
ATOM     27  F   UNL d   1      50.056  32.969  52.479  0.00  0.00    -0.163 F 
ENDBRANCH  22  24
BRANCH  22  28
ATOM     28  C   UNL d   1      51.530  34.901  52.954  0.00  0.00     0.457 C 
ATOM     29  F   UNL d   1      52.016  35.538  53.111  0.00  0.00    -0.163 F 
ATOM     30  F   UNL d   1      51.850  34.843  52.196  0.00  0.00    -0.163 F 
ATOM     31  F   UNL d   1      51.209  34.960  53.712  0.00  0.00    -0.163 F 
ENDBRANCH  22  28
ENDBRANCH   1  22
TORSDOF 8
ENDMDL
MODEL 3
REMARK VINA RESULT:      -9.6      2.460      4.241
REMARK  8 active torsions:
REMARK  status: ('A' for Active; 'I' for Inactive)
REMARK    1  A    between atoms: C_2  and  C_1 
REMARK    2  A    between atoms: C_3  and  C_1 
REMARK    3  A    between atoms: C_5  and  C_1 
REMARK    4  A    between atoms: N_4  and  C_6 
REMARK    5  A    between atoms: C_7  and  N_4 
REMARK    6  A    between atoms: C_8  and  N_4 
REMARK    7  A    between atoms: C_20  and  C_7 
REMARK    8  A    between atoms: C_21  and  C_8 
ROOT
ATOM      1  C   UNL d   1      53.016  30.509  53.533  0.00  0.00     0.044 A 
ATOM      2  C   UNL d   1      53.050  32.160  53.645  0.00  0.00     0.064 A 
ATOM      3  C   UNL d   1      53.149  30.965  52.853  0.00  0.00     0.004 A 
ATOM      4  C   UNL d   1      52.901  30.877  54.261  0.00  0.00     0.004 A 
ATOM      5  C   UNL d   1      53.167  31.794  52.908  0.00  0.00     0.018 A 
ATOM      6  C   UNL d   1      52.919  31.706  54.316  0.00  0.00     0.018 A 
ENDROOT
BRANCH   2   7
ATOM      7  N   UNL d   1      53.068  32.978  53.699  0.00  0.00    -0.304 N 
BRANCH   7   8
ATOM      8  C   UNL d   1      52.400  33.389  53.941  0.00  0.00     0.080 C 
BRANCH   8   9
ATOM      9  C   UNL d   1      51.873  33.689  53.393  0.00  0.00     0.018 A 
ATOM     10  C   UNL d   1      51.066  33.551  53.493  0.00  0.00     0.002 A 
ATOM     11  C   UNL d   1      50.515  33.850  52.942  0.00  0.00     0.000 A 
ATOM     12  C   UNL d   1      50.787  34.292  52.287  0.00  0.00     0.000 A 
ATOM     13  C   UNL d   1      51.594  34.431  52.187  0.00  0.00     0.000 A 
ATOM     14  C   UNL d   1      52.138  34.127  52.744  0.00  0.00     0.002 A 
ENDBRANCH   8   9
ENDBRANCH   7   8
BRANCH   7  15
ATOM     15  C   UNL d   1      53.751  33.389  53.512  0.00  0.00     0.080 C 
BRANCH  15  16
ATOM     16  C   UNL d   1      54.290  33.578  54.097  0.00  0.00     0.018 A 
ATOM     17  C   UNL d   1      54.034  33.879  54.825  0.00  0.00     0.002 A 
ATOM     18  C   UNL d   1      54.577  34.069  55.415  0.00  0.00     0.000 A 
ATOM     19  C   UNL d   1      55.383  33.960  55.284  0.00  0.00     0.000 A 
ATOM     20  C   UNL d   1      55.652  33.659  54.557  0.00  0.00     0.000 A 
ATOM     21  C   UNL d   1      55.092  33.470  53.969  0.00  0.00     0.002 A 
ENDBRANCH  15  16
ENDBRANCH   7  15
ENDBRANCH   2   7
BRANCH   1  22
ATOM     22  C   UNL d   1      52.999  29.686  53.478  0.00  0.00     0.297 C 
ATOM     23  O   UNL d   1      52.981  28.863  53.424  0.00  0.00    -0.281 OA
BRANCH  22  24
ATOM     24  C   UNL d   1      52.193  29.712  53.345  0.00  0.00     0.457 C 
ATOM     25  F   UNL d   1      52.057  29.635  54.155  0.00  0.00    -0.163 F 
ATOM     26  F   UNL d   1      52.329  29.789  52.535  0.00  0.00    -0.163 F 
ATOM     27  F   UNL d   1      51.379  29.738  53.211  0.00  0.00    -0.163 F 
ENDBRANCH  22  24
BRANCH  22  28
ATOM     28  C   UNL d   1      53.821  29.660  53.614  0.00  0.00     0.457 C 
ATOM     29  F   UNL d   1      54.626  29.634  53.747  0.00  0.00    -0.163 F 
ATOM     30  F   UNL d   1      53.684  29.528  54.417  0.00  0.00    -0.163 F 
ATOM     31  F   UNL d   1      53.958  29.792  52.811  0.00  0.00    -0.163 F 
ENDBRANCH  22  28
ENDBRANCH   1  22
TORSDOF 8
ENDMDL
MODEL 4
REMARK VINA RESULT:      -9.5      2.458      3.843
REMARK  8 active torsions:
REMARK  status: ('A' for Active; 'I' for Inactive)
REMARK    1  A    between atoms: C_2  and  C_1 
REMARK    2  A    between atoms: C_3  and  C_1 
REMARK    3  A    between atoms: C_5  and  C_1 
REMARK    4  A    between atoms: N_4  and  C_6 
REMARK    5  A    between atoms: C_7  and  N_4 
REMARK    6  A    between atoms: C_8  and  N_4 
REMARK    7  A    between atoms: C_20  and  C_7 
REMARK    8  A    between atoms: C_21  and  C_8 
ROOT
ATOM      1  C   UNL d   1      53.020  30.517  53.533  0.00  0.00     0.044 A 
ATOM      2  C   UNL d   1      53.053  32.167  53.657  0.00  0.00     0.064 A 
ATOM      3  C   UNL d   1      53.150  30.977  52.856  0.00  0.00     0.004 A 
ATOM      4  C   UNL d   1      52.908  30.879  54.264  0.00  0.00     0.004 A 
ATOM      5  C   UNL d   1      53.167  31.806  52.917  0.00  0.00     0.018 A 
ATOM      6  C   UNL d   1      52.925  31.708  54.325  0.00  0.00     0.018 A 
ENDROOT
BRANCH   2   7
ATOM      7  N   UNL d   1      53.070  32.985  53.716  0.00  0.00    -0.304 N 
BRANCH   7   8
ATOM      8  C   UNL d   1      53.755  33.398  53.532  0.00  0.00     0.080 C 
BRANCH   8   9
ATOM      9  C   UNL d   1      54.298  33.587  54.112  0.00  0.00     0.018 A 
ATOM     10  C   UNL d   1      55.102  33.474  53.963  0.00  0.00     0.002 A 
ATOM     11  C   UNL d   1      55.669  33.662  54.546  0.00  0.00     0.000 A 
ATOM     12  C   UNL d   1      55.416  33.967  55.282  0.00  0.00     0.000 A 
ATOM     13  C   UNL d   1      54.613  34.080  55.432  0.00  0.00     0.000 A 
ATOM     14  C   UNL d   1      54.053  33.888  54.842  0.00  0.00     0.002 A 
ENDBRANCH   8   9
ENDBRANCH   7   8
BRANCH   7  15
ATOM     15  C   UNL d   1      52.404  33.394  53.961  0.00  0.00     0.080 C 
BRANCH  15  16
ATOM     16  C   UNL d   1      51.881  33.695  53.410  0.00  0.00     0.018 A 
ATOM     17  C   UNL d   1      52.153  34.162  52.783  0.00  0.00     0.002 A 
ATOM     18  C   UNL d   1      51.625  34.466  52.226  0.00  0.00     0.000 A 
ATOM     19  C   UNL d   1      50.820  34.305  52.291  0.00  0.00     0.000 A 
ATOM     20  C   UNL d   1      50.536  33.837  52.916  0.00  0.00     0.000 A 
ATOM     21  C   UNL d   1      51.080  33.536  53.472  0.00  0.00     0.002 A 
ENDBRANCH  15  16
ENDBRANCH   7  15
ENDBRANCH   2   7
BRANCH   1  22
ATOM     22  C   UNL d   1      53.003  29.695  53.472  0.00  0.00     0.297 C 
ATOM     23  O   UNL d   1      52.986  28.872  53.412  0.00  0.00    -0.281 OA
BRANCH  22  24
ATOM     24  C   UNL d   1      52.196  29.720  53.346  0.00  0.00     0.457 C 
ATOM     25  F   UNL d   1      52.067  29.649  54.157  0.00  0.00    -0.163 F 
ATOM     26  F   UNL d   1      52.326  29.792  52.534  0.00  0.00    -0.163 F 
ATOM     27  F   UNL d   1      51.382  29.746  53.218  0.00  0.00    -0.163 F 
ENDBRANCH  22  24
BRANCH  22  28
ATOM     28  C   UNL d   1      53.827  29.668  53.602  0.00  0.00     0.457 C 
ATOM     29  F   UNL d   1      54.632  29.642  53.728  0.00  0.00    -0.163 F 
ATOM     30  F   UNL d   1      53.957  29.816  52.801  0.00  0.00    -0.163 F 
ATOM     31  F   UNL d   1      53.696  29.520  54.403  0.00  0.00    -0.163 F 
ENDBRANCH  22  28
ENDBRANCH   1  22
TORSDOF 8
ENDMDL
