MODEL 1
REMARK VINA RESULT:      84.2      0.000      0.000
REMARK  3 active torsions:
REMARK  status: ('A' for Active; 'I' for Inactive)
REMARK    1  A    between atoms: C_8  and  S_1 
REMARK    2  A    between atoms: N_10  and  S_1 
REMARK    3  A    between atoms: C_17  and  N_10 
ROOT
ATOM      1  C   UNL d   1      58.955  49.122  50.304  0.00  0.00     0.043 A 
ATOM      2  C   UNL d   1      58.371  49.121  49.723  0.00  0.00     0.196 A 
ATOM      3  C   UNL d   1      57.987  49.512  51.280  0.00  0.00     0.196 A 
ATOM      4  C   UNL d   1      58.763  49.317  51.082  0.00  0.00     0.042 A 
ATOM      5  C   UNL d   1      57.593  49.317  49.919  0.00  0.00     0.042 A 
ATOM      6  C   UNL d   1      57.400  49.512  50.697  0.00  0.00     0.042 A 
ATOM      7  C   UNL d   1      60.313  48.927  50.689  0.00  0.00     0.105 A 
ATOM      8  C   UNL d   1      59.729  48.927  50.108  0.00  0.00     0.016 A 
ATOM      9  C   UNL d   1      59.345  49.318  51.664  0.00  0.00     0.004 A 
ATOM     10  O   UNL d   1      58.563  48.926  48.945  0.00  0.00    -0.287 OA
ATOM     11  O   UNL d   1      57.795  49.708  52.058  0.00  0.00    -0.287 OA
ATOM     12  C   UNL d   1      60.121  49.123  51.467  0.00  0.00     0.013 A 
ATOM     13  C   UNL d   1      57.009  49.316  49.338  0.00  0.00     0.003 A 
ATOM     14  C   UNL d   1      56.625  49.707  50.894  0.00  0.00     0.003 A 
ATOM     15  C   UNL d   1      56.034  49.708  50.310  0.00  0.00     0.000 A 
ATOM     16  C   UNL d   1      56.226  49.512  49.532  0.00  0.00     0.000 A 
ENDROOT
BRANCH   7  17
ATOM     17  S   UNL d   1      61.102  48.728  50.487  0.00  0.00     0.285 S 
ATOM     18  O   UNL d   1      60.960  47.935  50.703  0.00  0.00    -0.198 OA
ATOM     19  O   UNL d   1      61.239  49.522  50.273  0.00  0.00    -0.198 OA
BRANCH  17  20
ATOM     20  N   UNL d   1      61.885  48.530  50.288  0.00  0.00    -0.158 NA
BRANCH  20  21
ATOM     21  C   UNL d   1      62.073  47.754  50.073  0.00  0.00     0.094 A 
ATOM     22  C   UNL d   1      62.718  47.614  49.573  0.00  0.00     0.020 A 
ATOM     23  C   UNL d   1      62.914  46.835  49.353  0.00  0.00     0.002 A 
ATOM     24  C   UNL d   1      62.462  46.199  49.635  0.00  0.00     0.000 A 
ATOM     25  C   UNL d   1      61.810  46.347  50.141  0.00  0.00     0.002 A 
ATOM     26  C   UNL d   1      61.624  47.121  50.354  0.00  0.00     0.020 A 
ENDBRANCH  20  21
ENDBRANCH  17  20
ENDBRANCH   7  17
TORSDOF 3
ENDMDL
