MODEL 1
REMARK VINA RESULT:      -4.4      0.000      0.000
REMARK  5 active torsions:
REMARK  status: ('A' for Active; 'I' for Inactive)
REMARK    1  A    between atoms: C_6  and  N_1 
REMARK    2  A    between atoms: C_7  and  C_3 
REMARK    3  A    between atoms: C_10  and  C_7 
REMARK    4  A    between atoms: C_16  and  C_8 
REMARK    5  A    between atoms: C_14  and  C_18 
ROOT
ATOM      1  N   UNL d   1      32.936  21.161 -21.905  0.00  0.00    -0.252 N 
ATOM      2  C   UNL d   1      33.121  21.261 -22.698  0.00  0.00     0.203 A 
ATOM      3  C   UNL d   1      33.121  19.958 -22.439  0.00  0.00     0.091 A 
ATOM      4  C   UNL d   1      32.935  20.355 -21.740  0.00  0.00     0.272 A 
ATOM      5  S   UNL d   1      33.235  20.521 -23.030  0.00  0.00    -0.043 SA
ATOM      6  N   UNL d   1      33.181  21.987 -23.095  0.00  0.00    -0.121 N 
ATOM      7  O   UNL d   1      32.779  20.005 -21.015  0.00  0.00    -0.266 OA
ENDROOT
BRANCH   3   8
ATOM      8  C   UNL d   1      33.183  19.141 -22.534  0.00  0.00     0.036 C 
BRANCH   8   9
ATOM      9  C   UNL d   1      32.852  18.763 -23.196  0.00  0.00     0.101 A 
ATOM     10  O   UNL d   1      32.223  18.229 -23.173  0.00  0.00    -0.307 OA
ATOM     11  C   UNL d   1      32.065  17.982 -23.949  0.00  0.00     0.100 A 
ATOM     12  C   UNL d   1      32.604  18.371 -24.447  0.00  0.00     0.027 A 
ATOM     13  C   UNL d   1      33.085  18.850 -23.975  0.00  0.00     0.027 A 
BRANCH  11  14
ATOM     14  C   UNL d   1      31.485  17.455 -24.180  0.00  0.00     0.023 A 
ATOM     15  C   UNL d   1      30.702  17.691 -24.230  0.00  0.00     0.008 A 
ATOM     16  C   UNL d   1      30.120  17.148 -24.466  0.00  0.00     0.065 A 
ATOM     17  C   UNL d   1      30.320  16.385 -24.647  0.00  0.00     0.006 A 
ATOM     18  C   UNL d   1      31.101  16.132 -24.602  0.00  0.00     0.000 A 
ATOM     19  C   UNL d   1      31.681  16.678 -24.366  0.00  0.00     0.002 A 
BRANCH  16  20
ATOM     20  C   UNL d   1      29.317  17.400 -24.515  0.00  0.00     0.211 C 
ATOM     21  O   UNL d   1      28.743  17.036 -24.055  0.00  0.00    -0.644 OA
ATOM     22  O   UNL d   1      29.107  18.008 -25.018  0.00  0.00    -0.644 OA
ENDBRANCH  16  20
ENDBRANCH  11  14
ENDBRANCH   8   9
ENDBRANCH   3   8
BRANCH   1  23
ATOM     23  C   UNL d   1      32.779  21.770 -21.366  0.00  0.00     0.071 A 
ATOM     24  C   UNL d   1      33.127  21.753 -20.612  0.00  0.00     0.044 A 
ATOM     25  C   UNL d   1      32.973  22.363 -20.063  0.00  0.00     0.121 A 
ATOM     26  O   UNL d   1      33.241  22.483 -19.288  0.00  0.00    -0.299 OA
ATOM     27  C   UNL d   1      32.475  22.978 -20.273  0.00  0.00     0.119 A 
ATOM     28  C   UNL d   1      32.900  23.184 -19.020  0.00  0.00     0.304 A 
ATOM     29  O   UNL d   1      32.423  23.497 -19.627  0.00  0.00    -0.300 OA
ATOM     30  C   UNL d   1      32.126  23.003 -21.015  0.00  0.00     0.028 A 
ATOM     31  C   UNL d   1      32.279  22.395 -21.565  0.00  0.00     0.020 A 
ENDBRANCH   1  23
TORSDOF 5
ENDMDL
MODEL 2
REMARK VINA RESULT:      -3.2      1.971      5.956
REMARK  5 active torsions:
REMARK  status: ('A' for Active; 'I' for Inactive)
REMARK    1  A    between atoms: C_6  and  N_1 
REMARK    2  A    between atoms: C_7  and  C_3 
REMARK    3  A    between atoms: C_10  and  C_7 
REMARK    4  A    between atoms: C_16  and  C_8 
REMARK    5  A    between atoms: C_14  and  C_18 
ROOT
ATOM      1  N   UNL d   1      30.267  17.196 -24.261  0.00  0.00    -0.252 N 
ATOM      2  C   UNL d   1      30.245  17.864 -24.736  0.00  0.00     0.203 A 
ATOM      3  C   UNL d   1      31.503  17.676 -24.352  0.00  0.00     0.091 A 
ATOM      4  C   UNL d   1      31.045  17.075 -24.021  0.00  0.00     0.272 A 
ATOM      5  S   UNL d   1      31.005  18.163 -24.794  0.00  0.00    -0.043 SA
ATOM      6  N   UNL d   1      29.569  18.183 -25.095  0.00  0.00    -0.121 N 
ATOM      7  O   UNL d   1      31.320  16.470 -23.540  0.00  0.00    -0.266 OA
ENDROOT
BRANCH   3   8
ATOM      8  C   UNL d   1      32.317  17.776 -24.260  0.00  0.00     0.036 C 
BRANCH   8   9
ATOM      9  C   UNL d   1      32.624  18.468 -23.918  0.00  0.00     0.101 A 
ATOM     10  O   UNL d   1      32.556  18.675 -23.122  0.00  0.00    -0.307 OA
ATOM     11  C   UNL d   1      32.937  19.403 -23.010  0.00  0.00     0.100 A 
ATOM     12  C   UNL d   1      33.239  19.640 -23.748  0.00  0.00     0.027 A 
ATOM     13  C   UNL d   1      33.042  19.058 -24.301  0.00  0.00     0.027 A 
BRANCH  11  14
ATOM     14  C   UNL d   1      33.003  19.812 -22.306  0.00  0.00     0.023 A 
ATOM     15  C   UNL d   1      32.927  20.628 -22.289  0.00  0.00     0.008 A 
ATOM     16  C   UNL d   1      32.996  21.035 -21.569  0.00  0.00     0.065 A 
ATOM     17  C   UNL d   1      33.138  20.632 -20.882  0.00  0.00     0.006 A 
ATOM     18  C   UNL d   1      33.217  19.814 -20.882  0.00  0.00     0.000 A 
ATOM     19  C   UNL d   1      33.147  19.409 -21.604  0.00  0.00     0.002 A 
BRANCH  16  20
ATOM     20  C   UNL d   1      32.916  21.875 -21.561  0.00  0.00     0.211 C 
ATOM     21  O   UNL d   1      33.193  22.308 -20.922  0.00  0.00    -0.644 OA
ATOM     22  O   UNL d   1      32.562  22.259 -22.188  0.00  0.00    -0.644 OA
ENDBRANCH  16  20
ENDBRANCH  11  14
ENDBRANCH   8   9
ENDBRANCH   3   8
BRANCH   1  23
ATOM     23  C   UNL d   1      29.616  16.724 -24.060  0.00  0.00     0.071 A 
ATOM     24  C   UNL d   1      28.969  17.063 -23.665  0.00  0.00     0.044 A 
ATOM     25  C   UNL d   1      28.309  16.595 -23.459  0.00  0.00     0.121 A 
ATOM     26  O   UNL d   1      27.601  16.784 -23.071  0.00  0.00    -0.299 OA
ATOM     27  C   UNL d   1      28.305  15.798 -23.649  0.00  0.00     0.119 A 
ATOM     28  C   UNL d   1      27.158  16.092 -23.023  0.00  0.00     0.304 A 
ATOM     29  O   UNL d   1      27.589  15.475 -23.380  0.00  0.00    -0.300 OA
ATOM     30  C   UNL d   1      28.940  15.455 -24.039  0.00  0.00     0.028 A 
ATOM     31  C   UNL d   1      29.600  15.920 -24.246  0.00  0.00     0.020 A 
ENDBRANCH   1  23
TORSDOF 5
ENDMDL
