MODEL 1
REMARK VINA RESULT:      -8.6      0.000      0.000
REMARK  5 active torsions:
REMARK  status: ('A' for Active; 'I' for Inactive)
REMARK    1  A    between atoms: C_2  and  N_1 
REMARK    2  A    between atoms: C_4  and  C_7 
REMARK    3  A    between atoms: N_17  and  C_10 
REMARK    4  A    between atoms: C_20  and  N_17 
REMARK    5  A    between atoms: C_21  and  C_20 
ROOT
ATOM      1  C   UNL d   1      54.232  33.289  54.576  0.00  0.00     0.144 A 
ATOM      2  C   UNL d   1      54.122  32.486  54.392  0.00  0.00     0.027 A 
ATOM      3  C   UNL d   1      53.391  32.227  54.087  0.00  0.00     0.021 A 
ATOM      4  C   UNL d   1      53.620  33.826  54.457  0.00  0.00     0.103 A 
ATOM      5  C   UNL d   1      52.778  32.774  53.968  0.00  0.00     0.003 A 
ATOM      6  C   UNL d   1      52.898  33.571  54.154  0.00  0.00     0.021 A 
ENDROOT
BRANCH   3   7
ATOM      7  C   UNL d   1      53.279  31.433  53.903  0.00  0.00     0.103 A 
ATOM      8  N   UNL d   1      53.431  30.851  54.472  0.00  0.00    -0.145 NA
ATOM      9  N   UNL d   1      53.319  30.056  54.289  0.00  0.00    -0.106 NA
ATOM     10  C   UNL d   1      53.055  29.839  53.538  0.00  0.00     0.297 A 
ATOM     11  C   UNL d   1      52.904  30.420  52.969  0.00  0.00     0.066 A 
ATOM     12  O   UNL d   1      52.943  29.044  53.354  0.00  0.00    -0.264 OA
ATOM     13  C   UNL d   1      53.016  31.223  53.150  0.00  0.00     0.024 A 
ATOM     14  C   UNL d   1      52.864  31.800  52.583  0.00  0.00     0.002 C 
ENDBRANCH   3   7
BRANCH   1  15
ATOM     15  N   UNL d   1      54.961  33.538  54.880  0.00  0.00    -0.112 N 
ATOM     16  O   UNL d   1      55.594  33.671  54.360  0.00  0.00    -0.532 OA
ATOM     17  O   UNL d   1      55.061  33.655  55.690  0.00  0.00    -0.532 OA
ENDBRANCH   1  15
BRANCH   4  18
ATOM     18  N   UNL d   1      53.733  34.622  54.640  0.00  0.00    -0.239 NA
BRANCH  18  19
ATOM     19  C   UNL d   1      53.116  35.163  54.531  0.00  0.00     0.144 C 
BRANCH  19  20
ATOM     20  C   UNL d   1      53.265  35.973  54.534  0.00  0.00     0.255 C 
ATOM     21  O   UNL d   1      52.764  36.491  54.932  0.00  0.00    -0.281 OA
ENDBRANCH  19  20
ENDBRANCH  18  19
ENDBRANCH   4  18
TORSDOF 5
ENDMDL
MODEL 2
REMARK VINA RESULT:      -8.1      1.568      2.096
REMARK  5 active torsions:
REMARK  status: ('A' for Active; 'I' for Inactive)
REMARK    1  A    between atoms: C_2  and  N_1 
REMARK    2  A    between atoms: C_4  and  C_7 
REMARK    3  A    between atoms: N_17  and  C_10 
REMARK    4  A    between atoms: C_20  and  N_17 
REMARK    5  A    between atoms: C_21  and  C_20 
ROOT
ATOM      1  C   UNL d   1      52.204  33.678  53.069  0.00  0.00     0.144 A 
ATOM      2  C   UNL d   1      52.232  32.852  52.982  0.00  0.00     0.027 A 
ATOM      3  C   UNL d   1      52.719  32.399  53.483  0.00  0.00     0.021 A 
ATOM      4  C   UNL d   1      52.657  34.046  53.650  0.00  0.00     0.103 A 
ATOM      5  C   UNL d   1      53.173  32.775  54.068  0.00  0.00     0.003 A 
ATOM      6  C   UNL d   1      53.138  33.598  54.146  0.00  0.00     0.021 A 
ENDROOT
BRANCH   3   7
ATOM      7  C   UNL d   1      52.748  31.581  53.399  0.00  0.00     0.103 A 
ATOM      8  N   UNL d   1      52.048  31.142  53.370  0.00  0.00    -0.145 NA
ATOM      9  N   UNL d   1      52.077  30.323  53.286  0.00  0.00    -0.106 NA
ATOM     10  C   UNL d   1      52.806  29.939  53.231  0.00  0.00     0.297 A 
ATOM     11  C   UNL d   1      53.507  30.378  53.260  0.00  0.00     0.066 A 
ATOM     12  O   UNL d   1      52.836  29.121  53.147  0.00  0.00    -0.264 OA
ATOM     13  C   UNL d   1      53.480  31.204  53.345  0.00  0.00     0.024 A 
ATOM     14  C   UNL d   1      54.179  31.638  53.374  0.00  0.00     0.002 C 
ENDBRANCH   3   7
BRANCH   1  15
ATOM     15  N   UNL d   1      51.718  34.123  52.567  0.00  0.00    -0.112 N 
ATOM     16  O   UNL d   1      50.935  34.281  52.794  0.00  0.00    -0.532 OA
ATOM     17  O   UNL d   1      52.004  34.406  51.848  0.00  0.00    -0.532 OA
ENDBRANCH   1  15
BRANCH   4  18
ATOM     18  N   UNL d   1      52.627  34.866  53.734  0.00  0.00    -0.239 NA
BRANCH  18  19
ATOM     19  C   UNL d   1      52.961  35.226  54.400  0.00  0.00     0.144 C 
BRANCH  19  20
ATOM     20  C   UNL d   1      53.164  36.024  54.386  0.00  0.00     0.255 C 
ATOM     21  O   UNL d   1      52.874  36.541  54.956  0.00  0.00    -0.281 OA
ENDBRANCH  19  20
ENDBRANCH  18  19
ENDBRANCH   4  18
TORSDOF 5
ENDMDL
MODEL 3
REMARK VINA RESULT:      -7.8      2.600      3.685
REMARK  5 active torsions:
REMARK  status: ('A' for Active; 'I' for Inactive)
REMARK    1  A    between atoms: C_2  and  N_1 
REMARK    2  A    between atoms: C_4  and  C_7 
REMARK    3  A    between atoms: N_17  and  C_10 
REMARK    4  A    between atoms: C_20  and  N_17 
REMARK    5  A    between atoms: C_21  and  C_20 
ROOT
ATOM      1  C   UNL d   1      52.896  32.847  53.328  0.00  0.00     0.144 A 
ATOM      2  C   UNL d   1      52.204  33.046  52.913  0.00  0.00     0.027 A 
ATOM      3  C   UNL d   1      51.917  33.828  52.937  0.00  0.00     0.021 A 
ATOM      4  C   UNL d   1      53.297  33.421  53.762  0.00  0.00     0.103 A 
ATOM      5  C   UNL d   1      52.325  34.403  53.376  0.00  0.00     0.003 A 
ATOM      6  C   UNL d   1      53.013  34.194  53.785  0.00  0.00     0.021 A 
ENDROOT
BRANCH   3   7
ATOM      7  C   UNL d   1      51.233  34.029  52.528  0.00  0.00     0.103 A 
ATOM      8  N   UNL d   1      51.255  34.127  51.707  0.00  0.00    -0.145 NA
ATOM      9  N   UNL d   1      50.570  34.327  51.296  0.00  0.00    -0.106 NA
ATOM     10  C   UNL d   1      49.860  34.431  51.703  0.00  0.00     0.297 A 
ATOM     11  C   UNL d   1      49.837  34.333  52.525  0.00  0.00     0.066 A 
ATOM     12  O   UNL d   1      49.175  34.631  51.294  0.00  0.00    -0.264 OA
ATOM     13  C   UNL d   1      50.527  34.130  52.942  0.00  0.00     0.024 A 
ATOM     14  C   UNL d   1      50.501  34.033  53.759  0.00  0.00     0.002 C 
ENDBRANCH   3   7
BRANCH   1  15
ATOM     15  N   UNL d   1      53.175  32.067  53.300  0.00  0.00    -0.112 N 
ATOM     16  O   UNL d   1      53.654  31.830  52.665  0.00  0.00    -0.532 OA
ATOM     17  O   UNL d   1      52.981  31.530  53.894  0.00  0.00    -0.532 OA
ENDBRANCH   1  15
BRANCH   4  18
ATOM     18  N   UNL d   1      53.982  33.220  54.172  0.00  0.00    -0.239 NA
BRANCH  18  19
ATOM     19  C   UNL d   1      54.335  33.768  54.681  0.00  0.00     0.144 C 
BRANCH  19  20
ATOM     20  C   UNL d   1      54.977  33.551  55.151  0.00  0.00     0.255 C 
ATOM     21  O   UNL d   1      55.522  34.113  55.403  0.00  0.00    -0.281 OA
ENDBRANCH  19  20
ENDBRANCH  18  19
ENDBRANCH   4  18
TORSDOF 5
ENDMDL
MODEL 4
REMARK VINA RESULT:      -7.6      2.395      3.671
REMARK  5 active torsions:
REMARK  status: ('A' for Active; 'I' for Inactive)
REMARK    1  A    between atoms: C_2  and  N_1 
REMARK    2  A    between atoms: C_4  and  C_7 
REMARK    3  A    between atoms: N_17  and  C_10 
REMARK    4  A    between atoms: C_20  and  N_17 
REMARK    5  A    between atoms: C_21  and  C_20 
ROOT
ATOM      1  C   UNL d   1      52.801  35.002  54.190  0.00  0.00     0.144 A 
ATOM      2  C   UNL d   1      52.124  35.029  53.709  0.00  0.00     0.027 A 
ATOM      3  C   UNL d   1      51.812  34.325  53.393  0.00  0.00     0.021 A 
ATOM      4  C   UNL d   1      53.161  34.281  54.355  0.00  0.00     0.103 A 
ATOM      5  C   UNL d   1      52.180  33.599  53.562  0.00  0.00     0.003 A 
ATOM      6  C   UNL d   1      52.853  33.584  54.043  0.00  0.00     0.021 A 
ENDROOT
BRANCH   3   7
ATOM      7  C   UNL d   1      51.143  34.348  52.915  0.00  0.00     0.103 A 
ATOM      8  N   UNL d   1      50.396  34.451  53.254  0.00  0.00    -0.145 NA
ATOM      9  N   UNL d   1      49.725  34.475  52.777  0.00  0.00    -0.106 NA
ATOM     10  C   UNL d   1      49.798  34.395  51.959  0.00  0.00     0.297 A 
ATOM     11  C   UNL d   1      50.545  34.291  51.619  0.00  0.00     0.066 A 
ATOM     12  O   UNL d   1      49.129  34.418  51.480  0.00  0.00    -0.264 OA
ATOM     13  C   UNL d   1      51.224  34.267  52.098  0.00  0.00     0.024 A 
ATOM     14  C   UNL d   1      51.966  34.164  51.758  0.00  0.00     0.002 C 
ENDBRANCH   3   7
BRANCH   1  15
ATOM     15  N   UNL d   1      53.105  35.708  54.501  0.00  0.00    -0.112 N 
ATOM     16  O   UNL d   1      52.829  35.982  55.234  0.00  0.00    -0.532 OA
ATOM     17  O   UNL d   1      53.676  36.136  54.089  0.00  0.00    -0.532 OA
ENDBRANCH   1  15
BRANCH   4  18
ATOM     18  N   UNL d   1      53.832  34.258  54.833  0.00  0.00    -0.239 NA
BRANCH  18  19
ATOM     19  C   UNL d   1      54.284  33.567  54.878  0.00  0.00     0.144 C 
BRANCH  19  20
ATOM     20  C   UNL d   1      54.846  33.473  55.473  0.00  0.00     0.255 C 
ATOM     21  O   UNL d   1      55.577  33.850  55.424  0.00  0.00    -0.281 OA
ENDBRANCH  19  20
ENDBRANCH  18  19
ENDBRANCH   4  18
TORSDOF 5
ENDMDL
MODEL 5
REMARK VINA RESULT:      -7.5      1.351      4.423
REMARK  5 active torsions:
REMARK  status: ('A' for Active; 'I' for Inactive)
REMARK    1  A    between atoms: C_2  and  N_1 
REMARK    2  A    between atoms: C_4  and  C_7 
REMARK    3  A    between atoms: N_17  and  C_10 
REMARK    4  A    between atoms: C_20  and  N_17 
REMARK    5  A    between atoms: C_21  and  C_20 
ROOT
ATOM      1  C   UNL d   1      52.991  31.534  53.413  0.00  0.00     0.144 A 
ATOM      2  C   UNL d   1      52.986  32.358  53.520  0.00  0.00     0.027 A 
ATOM      3  C   UNL d   1      53.348  32.691  54.192  0.00  0.00     0.021 A 
ATOM      4  C   UNL d   1      53.351  31.048  53.971  0.00  0.00     0.103 A 
ATOM      5  C   UNL d   1      53.711  32.196  54.752  0.00  0.00     0.003 A 
ATOM      6  C   UNL d   1      53.709  31.377  54.637  0.00  0.00     0.021 A 
ENDROOT
BRANCH   3   7
ATOM      7  C   UNL d   1      53.346  33.506  54.301  0.00  0.00     0.103 A 
ATOM      8  N   UNL d   1      52.643  33.934  54.213  0.00  0.00    -0.145 NA
ATOM      9  N   UNL d   1      52.640  34.750  54.321  0.00  0.00    -0.106 NA
ATOM     10  C   UNL d   1      53.339  35.143  54.518  0.00  0.00     0.297 A 
ATOM     11  C   UNL d   1      54.042  34.716  54.606  0.00  0.00     0.066 A 
ATOM     12  O   UNL d   1      53.337  35.959  54.626  0.00  0.00    -0.264 OA
ATOM     13  C   UNL d   1      54.048  33.892  54.497  0.00  0.00     0.024 A 
ATOM     14  C   UNL d   1      54.749  33.469  54.585  0.00  0.00     0.002 C 
ENDBRANCH   3   7
BRANCH   1  15
ATOM     15  N   UNL d   1      52.629  31.210  52.741  0.00  0.00    -0.112 N 
ATOM     16  O   UNL d   1      51.808  31.090  52.741  0.00  0.00    -0.532 OA
ATOM     17  O   UNL d   1      53.076  31.009  52.079  0.00  0.00    -0.532 OA
ENDBRANCH   1  15
BRANCH   4  18
ATOM     18  N   UNL d   1      53.354  30.231  53.862  0.00  0.00    -0.239 NA
BRANCH  18  19
ATOM     19  C   UNL d   1      53.467  29.728  54.509  0.00  0.00     0.144 C 
BRANCH  19  20
ATOM     20  C   UNL d   1      53.487  28.911  54.406  0.00  0.00     0.255 C 
ATOM     21  O   UNL d   1      53.357  28.404  55.041  0.00  0.00    -0.281 OA
ENDBRANCH  19  20
ENDBRANCH  18  19
ENDBRANCH   4  18
TORSDOF 5
ENDMDL
MODEL 6
REMARK VINA RESULT:      -7.0      2.039      4.008
REMARK  5 active torsions:
REMARK  status: ('A' for Active; 'I' for Inactive)
REMARK    1  A    between atoms: C_2  and  N_1 
REMARK    2  A    between atoms: C_4  and  C_7 
REMARK    3  A    between atoms: N_17  and  C_10 
REMARK    4  A    between atoms: C_20  and  N_17 
REMARK    5  A    between atoms: C_21  and  C_20 
ROOT
ATOM      1  C   UNL d   1      53.204  32.486  53.781  0.00  0.00     0.144 A 
ATOM      2  C   UNL d   1      52.630  33.077  53.676  0.00  0.00     0.027 A 
ATOM      3  C   UNL d   1      51.944  32.914  53.232  0.00  0.00     0.021 A 
ATOM      4  C   UNL d   1      53.095  31.741  53.448  0.00  0.00     0.103 A 
ATOM      5  C   UNL d   1      51.838  32.161  52.898  0.00  0.00     0.003 A 
ATOM      6  C   UNL d   1      52.416  31.580  53.009  0.00  0.00     0.021 A 
ENDROOT
BRANCH   3   7
ATOM      7  C   UNL d   1      51.374  33.498  53.126  0.00  0.00     0.103 A 
ATOM      8  N   UNL d   1      50.726  33.542  53.638  0.00  0.00    -0.145 NA
ATOM      9  N   UNL d   1      50.155  34.126  53.532  0.00  0.00    -0.106 NA
ATOM     10  C   UNL d   1      50.229  34.668  52.915  0.00  0.00     0.297 A 
ATOM     11  C   UNL d   1      50.876  34.624  52.402  0.00  0.00     0.066 A 
ATOM     12  O   UNL d   1      49.659  35.252  52.808  0.00  0.00    -0.264 OA
ATOM     13  C   UNL d   1      51.454  34.036  52.506  0.00  0.00     0.024 A 
ATOM     14  C   UNL d   1      52.098  33.994  51.994  0.00  0.00     0.002 C 
ENDBRANCH   3   7
BRANCH   1  15
ATOM     15  N   UNL d   1      53.884  32.655  54.224  0.00  0.00    -0.112 N 
ATOM     16  O   UNL d   1      53.853  32.604  55.051  0.00  0.00    -0.532 OA
ATOM     17  O   UNL d   1      54.585  32.873  53.849  0.00  0.00    -0.532 OA
ENDBRANCH   1  15
BRANCH   4  18
ATOM     18  N   UNL d   1      53.666  31.157  53.555  0.00  0.00    -0.239 NA
BRANCH  18  19
ATOM     19  C   UNL d   1      53.478  30.364  53.410  0.00  0.00     0.144 C 
BRANCH  19  20
ATOM     20  C   UNL d   1      53.955  29.761  53.707  0.00  0.00     0.255 C 
ATOM     21  O   UNL d   1      53.626  29.130  54.122  0.00  0.00    -0.281 OA
ENDBRANCH  19  20
ENDBRANCH  18  19
ENDBRANCH   4  18
TORSDOF 5
ENDMDL
MODEL 7
REMARK VINA RESULT:      -6.8      2.247      3.687
REMARK  5 active torsions:
REMARK  status: ('A' for Active; 'I' for Inactive)
REMARK    1  A    between atoms: C_2  and  N_1 
REMARK    2  A    between atoms: C_4  and  C_7 
REMARK    3  A    between atoms: N_17  and  C_10 
REMARK    4  A    between atoms: C_20  and  N_17 
REMARK    5  A    between atoms: C_21  and  C_20 
ROOT
ATOM      1  C   UNL d   1      52.102  33.000  53.167  0.00  0.00     0.144 A 
ATOM      2  C   UNL d   1      52.749  33.041  53.688  0.00  0.00     0.027 A 
ATOM      3  C   UNL d   1      53.108  33.776  53.844  0.00  0.00     0.021 A 
ATOM      4  C   UNL d   1      51.819  33.684  52.806  0.00  0.00     0.103 A 
ATOM      5  C   UNL d   1      52.819  34.463  53.478  0.00  0.00     0.003 A 
ATOM      6  C   UNL d   1      52.175  34.411  52.961  0.00  0.00     0.021 A 
ENDROOT
BRANCH   3   7
ATOM      7  C   UNL d   1      53.748  33.821  54.359  0.00  0.00     0.103 A 
ATOM      8  N   UNL d   1      53.671  34.212  55.083  0.00  0.00    -0.145 NA
ATOM      9  N   UNL d   1      54.311  34.257  55.599  0.00  0.00    -0.106 NA
ATOM     10  C   UNL d   1      55.031  33.910  55.394  0.00  0.00     0.297 A 
ATOM     11  C   UNL d   1      55.109  33.518  54.670  0.00  0.00     0.066 A 
ATOM     12  O   UNL d   1      55.672  33.954  55.909  0.00  0.00    -0.264 OA
ATOM     13  C   UNL d   1      54.465  33.472  54.147  0.00  0.00     0.024 A 
ATOM     14  C   UNL d   1      54.545  33.081  53.427  0.00  0.00     0.002 C 
ENDBRANCH   3   7
BRANCH   1  15
ATOM     15  N   UNL d   1      51.750  32.266  53.016  0.00  0.00    -0.112 N 
ATOM     16  O   UNL d   1      52.069  31.775  52.428  0.00  0.00    -0.532 OA
ATOM     17  O   UNL d   1      51.089  32.021  53.444  0.00  0.00    -0.532 OA
ENDBRANCH   1  15
BRANCH   4  18
ATOM     18  N   UNL d   1      51.178  33.639  52.290  0.00  0.00    -0.239 NA
BRANCH  18  19
ATOM     19  C   UNL d   1      50.750  34.322  52.103  0.00  0.00     0.144 C 
BRANCH  19  20
ATOM     20  C   UNL d   1      50.156  34.300  51.533  0.00  0.00     0.255 C 
ATOM     21  O   UNL d   1      49.384  34.515  51.721  0.00  0.00    -0.281 OA
ENDBRANCH  19  20
ENDBRANCH  18  19
ENDBRANCH   4  18
TORSDOF 5
ENDMDL
MODEL 8
REMARK VINA RESULT:      -6.8      2.262      2.703
REMARK  5 active torsions:
REMARK  status: ('A' for Active; 'I' for Inactive)
REMARK    1  A    between atoms: C_2  and  N_1 
REMARK    2  A    between atoms: C_4  and  C_7 
REMARK    3  A    between atoms: N_17  and  C_10 
REMARK    4  A    between atoms: C_20  and  N_17 
REMARK    5  A    between atoms: C_21  and  C_20 
ROOT
ATOM      1  C   UNL d   1      52.099  33.924  52.889  0.00  0.00     0.144 A 
ATOM      2  C   UNL d   1      52.573  33.242  52.927  0.00  0.00     0.027 A 
ATOM      3  C   UNL d   1      52.232  32.512  53.137  0.00  0.00     0.021 A 
ATOM      4  C   UNL d   1      51.295  33.877  53.059  0.00  0.00     0.103 A 
ATOM      5  C   UNL d   1      51.421  32.470  53.308  0.00  0.00     0.003 A 
ATOM      6  C   UNL d   1      50.958  33.154  53.267  0.00  0.00     0.021 A 
ENDROOT
BRANCH   3   7
ATOM      7  C   UNL d   1      52.699  31.835  53.176  0.00  0.00     0.103 A 
ATOM      8  N   UNL d   1      52.630  31.251  52.594  0.00  0.00    -0.145 NA
ATOM      9  N   UNL d   1      53.097  30.574  52.633  0.00  0.00    -0.106 NA
ATOM     10  C   UNL d   1      53.634  30.477  53.251  0.00  0.00     0.297 A 
ATOM     11  C   UNL d   1      53.703  31.061  53.833  0.00  0.00     0.066 A 
ATOM     12  O   UNL d   1      54.101  29.800  53.290  0.00  0.00    -0.264 OA
ATOM     13  C   UNL d   1      53.234  31.746  53.798  0.00  0.00     0.024 A 
ATOM     14  C   UNL d   1      53.304  32.325  54.378  0.00  0.00     0.002 C 
ENDBRANCH   3   7
BRANCH   1  15
ATOM     15  N   UNL d   1      52.446  34.647  52.679  0.00  0.00    -0.112 N 
ATOM     16  O   UNL d   1      52.542  34.833  51.876  0.00  0.00    -0.532 OA
ATOM     17  O   UNL d   1      52.693  35.178  53.259  0.00  0.00    -0.532 OA
ENDBRANCH   1  15
BRANCH   4  18
ATOM     18  N   UNL d   1      50.828  34.555  53.020  0.00  0.00    -0.239 NA
BRANCH  18  19
ATOM     19  C   UNL d   1      50.006  34.487  52.954  0.00  0.00     0.144 C 
BRANCH  19  20
ATOM     20  C   UNL d   1      49.525  35.152  53.028  0.00  0.00     0.255 C 
ATOM     21  O   UNL d   1      48.800  35.191  52.640  0.00  0.00    -0.281 OA
ENDBRANCH  19  20
ENDBRANCH  18  19
ENDBRANCH   4  18
TORSDOF 5
ENDMDL
