MODEL 1
REMARK VINA RESULT:      -3.3      0.000      0.000
REMARK  5 active torsions:
REMARK  status: ('A' for Active; 'I' for Inactive)
REMARK    1  A    between atoms: C_2  and  C_1 
REMARK    2  A    between atoms: O_16  and  C_12 
REMARK    3  A    between atoms: C_21  and  C_14 
REMARK    4  A    between atoms: C_17  and  O_16 
REMARK    5  A    between atoms: C_24  and  C_21 
ROOT
ATOM      1  C   UNL d   1      56.823  -0.424  32.228  0.00  0.00     0.086 A 
ATOM      2  C   UNL d   1      57.410  -0.058  31.788  0.00  0.00     0.201 A 
ATOM      3  C   UNL d   1      57.729  -0.460  31.116  0.00  0.00     0.062 A 
ATOM      4  C   UNL d   1      56.544  -1.167  32.025  0.00  0.00     0.105 A 
ATOM      5  C   UNL d   1      57.443  -1.224  30.907  0.00  0.00     0.105 A 
ATOM      6  O   UNL d   1      56.845  -1.567  31.376  0.00  0.00    -0.307 OA
ATOM      7  C   UNL d   1      58.316  -0.094  30.676  0.00  0.00     0.007 A 
ATOM      8  C   UNL d   1      57.751  -1.603  30.264  0.00  0.00     0.050 A 
ATOM      9  C   UNL d   1      58.338  -1.239  29.824  0.00  0.00     0.105 A 
ATOM     10  C   UNL d   1      58.617  -0.495  30.027  0.00  0.00     0.023 A 
ATOM     11  O   UNL d   1      57.672   0.681  32.008  0.00  0.00    -0.286 OA
ATOM     12  C   UNL d   1      55.942  -1.531  32.483  0.00  0.00     0.027 C 
ENDROOT
BRANCH   1  13
ATOM     13  C   UNL d   1      56.498  -0.050  32.887  0.00  0.00     0.116 A 
ATOM     14  N   UNL d   1      56.758   0.031  33.676  0.00  0.00    -0.238 NA
ATOM     15  C   UNL d   1      56.204   0.463  34.092  0.00  0.00     0.088 A 
ATOM     16  C   UNL d   1      56.233   0.679  34.898  0.00  0.00     0.021 C 
ATOM     17  C   UNL d   1      55.611   0.656  33.598  0.00  0.00     0.056 A 
ATOM     18  S   UNL d   1      55.779   0.341  32.835  0.00  0.00    -0.066 SA
ENDBRANCH   1  13
BRANCH  10  19
ATOM     19  C   UNL d   1      59.227  -0.158  29.538  0.00  0.00     0.002 C 
BRANCH  19  20
ATOM     20  C   UNL d   1      59.687   0.478  29.831  0.00  0.00     0.000 C 
ATOM     21  C   UNL d   1      60.398   0.682  29.465  0.00  0.00     0.000 C 
ENDBRANCH  19  20
ENDBRANCH  10  19
BRANCH   9  22
ATOM     22  O   UNL d   1      58.653  -1.639  29.157  0.00  0.00    -0.273 OA
BRANCH  22  23
ATOM     23  C   UNL d   1      58.577  -2.479  29.117  0.00  0.00     0.300 C 
ATOM     24  O   UNL d   1      57.858  -2.779  28.915  0.00  0.00    -0.259 OA
ATOM     25  C   UNL d   1      59.256  -2.963  29.290  0.00  0.00     0.074 C 
ENDBRANCH  22  23
ENDBRANCH   9  22
TORSDOF 5
ENDMDL
MODEL 2
REMARK VINA RESULT:      -0.9      1.083      2.251
REMARK  5 active torsions:
REMARK  status: ('A' for Active; 'I' for Inactive)
REMARK    1  A    between atoms: C_2  and  C_1 
REMARK    2  A    between atoms: O_16  and  C_12 
REMARK    3  A    between atoms: C_21  and  C_14 
REMARK    4  A    between atoms: C_17  and  O_16 
REMARK    5  A    between atoms: C_24  and  C_21 
ROOT
ATOM      1  C   UNL d   1      57.239  -0.347  31.885  0.00  0.00     0.086 A 
ATOM      2  C   UNL d   1      57.297  -0.819  31.218  0.00  0.00     0.201 A 
ATOM      3  C   UNL d   1      57.968  -0.732  30.710  0.00  0.00     0.062 A 
ATOM      4  C   UNL d   1      57.820   0.204  32.065  0.00  0.00     0.105 A 
ATOM      5  C   UNL d   1      58.564  -0.166  30.895  0.00  0.00     0.105 A 
ATOM      6  O   UNL d   1      58.475   0.298  31.581  0.00  0.00    -0.307 OA
ATOM      7  C   UNL d   1      58.025  -1.204  30.044  0.00  0.00     0.007 A 
ATOM      8  C   UNL d   1      59.202  -0.087  30.407  0.00  0.00     0.050 A 
ATOM      9  C   UNL d   1      59.261  -0.559  29.739  0.00  0.00     0.105 A 
ATOM     10  C   UNL d   1      58.681  -1.110  29.560  0.00  0.00     0.023 A 
ATOM     11  O   UNL d   1      56.709  -1.360  31.059  0.00  0.00    -0.286 OA
ATOM     12  C   UNL d   1      57.749   0.681  32.751  0.00  0.00     0.027 C 
ENDROOT
BRANCH   1  13
ATOM     13  C   UNL d   1      56.593  -0.416  32.394  0.00  0.00     0.116 A 
ATOM     14  N   UNL d   1      56.027   0.134  32.664  0.00  0.00    -0.238 NA
ATOM     15  C   UNL d   1      55.509  -0.249  33.167  0.00  0.00     0.088 A 
ATOM     16  C   UNL d   1      54.855   0.083  33.566  0.00  0.00     0.021 C 
ATOM     17  C   UNL d   1      55.728  -1.011  33.221  0.00  0.00     0.056 A 
ATOM     18  S   UNL d   1      56.409  -1.134  32.742  0.00  0.00    -0.066 SA
ENDBRANCH   1  13
BRANCH  10  19
ATOM     19  C   UNL d   1      58.787  -1.576  28.856  0.00  0.00     0.002 C 
BRANCH  19  20
ATOM     20  C   UNL d   1      58.326  -2.265  28.743  0.00  0.00     0.000 C 
ATOM     21  C   UNL d   1      58.676  -2.963  28.475  0.00  0.00     0.000 C 
ENDBRANCH  19  20
ENDBRANCH  10  19
BRANCH   9  22
ATOM     22  O   UNL d   1      59.928  -0.471  29.237  0.00  0.00    -0.273 OA
BRANCH  22  23
ATOM     23  C   UNL d   1      60.415   0.213  29.329  0.00  0.00     0.300 C 
ATOM     24  O   UNL d   1      60.589   0.637  28.668  0.00  0.00    -0.259 OA
ATOM     25  C   UNL d   1      60.695   0.418  30.106  0.00  0.00     0.074 C 
ENDBRANCH  22  23
ENDBRANCH   9  22
TORSDOF 5
ENDMDL
MODEL 3
REMARK VINA RESULT:      -0.8      1.948      4.402
REMARK  5 active torsions:
REMARK  status: ('A' for Active; 'I' for Inactive)
REMARK    1  A    between atoms: C_2  and  C_1 
REMARK    2  A    between atoms: O_16  and  C_12 
REMARK    3  A    between atoms: C_21  and  C_14 
REMARK    4  A    between atoms: C_17  and  O_16 
REMARK    5  A    between atoms: C_24  and  C_21 
ROOT
ATOM      1  C   UNL d   1      58.678  -0.040  30.362  0.00  0.00     0.086 A 
ATOM      2  C   UNL d   1      58.770   0.263  31.118  0.00  0.00     0.201 A 
ATOM      3  C   UNL d   1      58.144   0.169  31.677  0.00  0.00     0.062 A 
ATOM      4  C   UNL d   1      57.991  -0.431  30.145  0.00  0.00     0.105 A 
ATOM      5  C   UNL d   1      57.437  -0.233  31.454  0.00  0.00     0.105 A 
ATOM      6  O   UNL d   1      57.376  -0.529  30.677  0.00  0.00    -0.307 OA
ATOM      7  C   UNL d   1      58.236   0.472  32.432  0.00  0.00     0.007 A 
ATOM      8  C   UNL d   1      56.842  -0.320  31.992  0.00  0.00     0.050 A 
ATOM      9  C   UNL d   1      56.933  -0.017  32.748  0.00  0.00     0.105 A 
ATOM     10  C   UNL d   1      57.621   0.374  32.965  0.00  0.00     0.023 A 
ATOM     11  O   UNL d   1      59.462   0.648  31.311  0.00  0.00    -0.286 OA
ATOM     12  C   UNL d   1      57.908  -0.738  29.368  0.00  0.00     0.027 C 
ENDROOT
BRANCH   1  13
ATOM     13  C   UNL d   1      59.277   0.041  29.800  0.00  0.00     0.116 A 
ATOM     14  N   UNL d   1      59.970  -0.398  29.646  0.00  0.00    -0.238 NA
ATOM     15  C   UNL d   1      60.360  -0.059  29.014  0.00  0.00     0.088 A 
ATOM     16  C   UNL d   1      61.077  -0.313  28.668  0.00  0.00     0.021 C 
ATOM     17  C   UNL d   1      59.941   0.570  28.767  0.00  0.00     0.056 A 
ATOM     18  S   UNL d   1      59.256   0.648  29.251  0.00  0.00    -0.066 SA
ENDBRANCH   1  13
BRANCH  10  19
ATOM     19  C   UNL d   1      57.668   0.671  33.761  0.00  0.00     0.002 C 
BRANCH  19  20
ATOM     20  C   UNL d   1      58.377   0.576  34.196  0.00  0.00     0.000 C 
ATOM     21  C   UNL d   1      58.382   0.679  35.015  0.00  0.00     0.000 C 
ENDBRANCH  19  20
ENDBRANCH  10  19
BRANCH   9  22
ATOM     22  O   UNL d   1      56.310  -0.112  33.302  0.00  0.00    -0.273 OA
BRANCH  22  23
ATOM     23  C   UNL d   1      55.524  -0.210  33.011  0.00  0.00     0.300 C 
ATOM     24  O   UNL d   1      55.092   0.454  32.872  0.00  0.00    -0.259 OA
ATOM     25  C   UNL d   1      55.228  -0.998  32.880  0.00  0.00     0.074 C 
ENDBRANCH  22  23
ENDBRANCH   9  22
TORSDOF 5
ENDMDL
MODEL 4
REMARK VINA RESULT:      -0.3      1.365      2.224
REMARK  5 active torsions:
REMARK  status: ('A' for Active; 'I' for Inactive)
REMARK    1  A    between atoms: C_2  and  C_1 
REMARK    2  A    between atoms: O_16  and  C_12 
REMARK    3  A    between atoms: C_21  and  C_14 
REMARK    4  A    between atoms: C_17  and  O_16 
REMARK    5  A    between atoms: C_24  and  C_21 
ROOT
ATOM      1  C   UNL d   1      57.054   0.076  32.544  0.00  0.00     0.086 A 
ATOM      2  C   UNL d   1      57.079  -0.150  31.756  0.00  0.00     0.201 A 
ATOM      3  C   UNL d   1      57.775   0.012  31.304  0.00  0.00     0.062 A 
ATOM      4  C   UNL d   1      57.691   0.455  32.894  0.00  0.00     0.105 A 
ATOM      5  C   UNL d   1      58.429   0.402  31.665  0.00  0.00     0.105 A 
ATOM      6  O   UNL d   1      58.371   0.618  32.467  0.00  0.00    -0.307 OA
ATOM      7  C   UNL d   1      57.800  -0.214  30.517  0.00  0.00     0.007 A 
ATOM      8  C   UNL d   1      59.091   0.555  31.229  0.00  0.00     0.050 A 
ATOM      9  C   UNL d   1      59.117   0.329  30.442  0.00  0.00     0.105 A 
ATOM     10  C   UNL d   1      58.480  -0.050  30.091  0.00  0.00     0.023 A 
ATOM     11  O   UNL d   1      56.435  -0.526  31.428  0.00  0.00    -0.286 OA
ATOM     12  C   UNL d   1      57.653   0.682  33.701  0.00  0.00     0.027 C 
ENDROOT
BRANCH   1  13
ATOM     13  C   UNL d   1      56.385  -0.073  33.003  0.00  0.00     0.116 A 
ATOM     14  N   UNL d   1      55.774   0.419  33.286  0.00  0.00    -0.238 NA
ATOM     15  C   UNL d   1      55.250  -0.035  33.718  0.00  0.00     0.088 A 
ATOM     16  C   UNL d   1      54.557   0.224  34.105  0.00  0.00     0.021 C 
ATOM     17  C   UNL d   1      55.508  -0.787  33.717  0.00  0.00     0.056 A 
ATOM     18  S   UNL d   1      56.221  -0.830  33.271  0.00  0.00    -0.066 SA
ENDBRANCH   1  13
BRANCH  10  19
ATOM     19  C   UNL d   1      58.556  -0.265  29.270  0.00  0.00     0.002 C 
BRANCH  19  20
ATOM     20  C   UNL d   1      58.664  -1.069  29.062  0.00  0.00     0.000 C 
ATOM     21  C   UNL d   1      58.190  -1.418  28.483  0.00  0.00     0.000 C 
ENDBRANCH  19  20
ENDBRANCH  10  19
BRANCH   9  22
ATOM     22  O   UNL d   1      59.809   0.491  29.995  0.00  0.00    -0.273 OA
BRANCH  22  23
ATOM     23  C   UNL d   1      60.562   0.352  30.352  0.00  0.00     0.300 C 
ATOM     24  O   UNL d   1      60.698   0.681  31.073  0.00  0.00    -0.259 OA
ATOM     25  C   UNL d   1      61.133  -0.123  29.937  0.00  0.00     0.074 C 
ENDBRANCH  22  23
ENDBRANCH   9  22
TORSDOF 5
ENDMDL
