MODEL 1
REMARK VINA RESULT:      -4.7      0.000      0.000
REMARK  1 active torsions:
REMARK  status: ('A' for Active; 'I' for Inactive)
REMARK       I    between atoms: N_2  and  C_1 
REMARK    1  A    between atoms: C_5  and  N_2 
ROOT
ATOM      1  C   UNL d   1     -41.231-122.690 -53.800  0.00  0.00     0.100 A 
ATOM      2  C   UNL d   1     -41.192-123.309 -52.271  0.00  0.00     0.000 A 
ATOM      3  C   UNL d   1     -41.256-123.508 -53.684  0.00  0.00     0.020 A 
ATOM      4  C   UNL d   1     -41.188-122.181 -53.152  0.00  0.00     0.020 A 
ATOM      5  C   UNL d   1     -41.236-123.817 -52.920  0.00  0.00     0.002 A 
ATOM      6  C   UNL d   1     -41.168-122.490 -52.388  0.00  0.00     0.002 A 
ATOM      7  C   UNL d   1     -41.173-123.617 -51.503  0.00  0.00     0.000 C 
ENDROOT
BRANCH   1   8
ATOM      8  N   UNL d   1     -41.251-122.376 -54.566  0.00  0.00    -0.056 NA
ATOM      9  C   UNL d   1     -41.948-122.065 -54.866  0.00  0.00     0.787 C 
ATOM     10  N   UNL d   1     -41.975-121.749 -55.635  0.00  0.00     0.064 N 
ATOM     11  N   UNL d   1     -42.631-122.067 -54.399  0.00  0.00     0.064 N 
ENDBRANCH   1   8
TORSDOF 1
ENDMDL
MODEL 2
REMARK VINA RESULT:      -4.6      1.407      2.852
REMARK  1 active torsions:
REMARK  status: ('A' for Active; 'I' for Inactive)
REMARK       I    between atoms: N_2  and  C_1 
REMARK    1  A    between atoms: C_5  and  N_2 
ROOT
ATOM      1  C   UNL d   1     -41.647-122.888 -53.763  0.00  0.00     0.100 A 
ATOM      2  C   UNL d   1     -41.900-122.089 -55.185  0.00  0.00     0.000 A 
ATOM      3  C   UNL d   1     -42.268-122.346 -53.829  0.00  0.00     0.020 A 
ATOM      4  C   UNL d   1     -41.153-123.030 -54.408  0.00  0.00     0.020 A 
ATOM      5  C   UNL d   1     -42.394-121.947 -54.540  0.00  0.00     0.002 A 
ATOM      6  C   UNL d   1     -41.279-122.631 -55.119  0.00  0.00     0.002 A 
ATOM      7  C   UNL d   1     -42.025-121.689 -55.899  0.00  0.00     0.000 C 
ENDROOT
BRANCH   1   8
ATOM      8  N   UNL d   1     -41.518-123.290 -53.052  0.00  0.00    -0.056 NA
ATOM      9  C   UNL d   1     -41.257-122.882 -52.389  0.00  0.00     0.787 C 
ATOM     10  N   UNL d   1     -41.125-123.280 -51.671  0.00  0.00     0.064 N 
ATOM     11  N   UNL d   1     -41.123-122.067 -52.438  0.00  0.00     0.064 N 
ENDBRANCH   1   8
TORSDOF 1
ENDMDL
MODEL 3
REMARK VINA RESULT:      -3.7      2.648      3.623
REMARK  1 active torsions:
REMARK  status: ('A' for Active; 'I' for Inactive)
REMARK       I    between atoms: N_2  and  C_1 
REMARK    1  A    between atoms: C_5  and  N_2 
ROOT
ATOM      1  C   UNL d   1     -41.955-123.010 -50.404  0.00  0.00     0.100 A 
ATOM      2  C   UNL d   1     -42.205-123.092 -48.774  0.00  0.00     0.000 A 
ATOM      3  C   UNL d   1     -42.630-122.668 -50.070  0.00  0.00     0.020 A 
ATOM      4  C   UNL d   1     -41.406-123.393 -49.923  0.00  0.00     0.020 A 
ATOM      5  C   UNL d   1     -42.754-122.709 -49.255  0.00  0.00     0.002 A 
ATOM      6  C   UNL d   1     -41.530-123.435 -49.108  0.00  0.00     0.002 A 
ATOM      7  C   UNL d   1     -42.328-123.135 -47.956  0.00  0.00     0.000 C 
ENDROOT
BRANCH   1   8
ATOM      8  N   UNL d   1     -41.828-122.970 -51.220  0.00  0.00    -0.056 NA
ATOM      9  C   UNL d   1     -41.412-122.340 -51.542  0.00  0.00     0.787 C 
ATOM     10  N   UNL d   1     -41.280-122.294 -52.362  0.00  0.00     0.064 N 
ATOM     11  N   UNL d   1     -41.123-121.746 -51.045  0.00  0.00     0.064 N 
ENDBRANCH   1   8
TORSDOF 1
ENDMDL
MODEL 4
REMARK VINA RESULT:      -3.7      2.802      3.774
REMARK  1 active torsions:
REMARK  status: ('A' for Active; 'I' for Inactive)
REMARK       I    between atoms: N_2  and  C_1 
REMARK    1  A    between atoms: C_5  and  N_2 
ROOT
ATOM      1  C   UNL d   1     -41.178-122.960 -50.717  0.00  0.00     0.100 A 
ATOM      2  C   UNL d   1     -41.141-122.800 -52.359  0.00  0.00     0.000 A 
ATOM      3  C   UNL d   1     -41.195-122.208 -51.061  0.00  0.00     0.020 A 
ATOM      4  C   UNL d   1     -41.143-123.632 -51.195  0.00  0.00     0.020 A 
ATOM      5  C   UNL d   1     -41.176-122.128 -51.881  0.00  0.00     0.002 A 
ATOM      6  C   UNL d   1     -41.125-123.552 -52.016  0.00  0.00     0.002 A 
ATOM      7  C   UNL d   1     -41.123-122.722 -53.184  0.00  0.00     0.000 C 
ENDROOT
BRANCH   1   8
ATOM      8  N   UNL d   1     -41.197-123.044 -49.895  0.00  0.00    -0.056 NA
ATOM      9  C   UNL d   1     -41.916-123.079 -49.500  0.00  0.00     0.787 C 
ATOM     10  N   UNL d   1     -41.942-123.163 -48.673  0.00  0.00     0.064 N 
ATOM     11  N   UNL d   1     -42.620-123.029 -49.930  0.00  0.00     0.064 N 
ENDBRANCH   1   8
TORSDOF 1
ENDMDL
MODEL 5
REMARK VINA RESULT:      -3.3      3.446      4.504
REMARK  1 active torsions:
REMARK  status: ('A' for Active; 'I' for Inactive)
REMARK       I    between atoms: N_2  and  C_1 
REMARK    1  A    between atoms: C_5  and  N_2 
ROOT
ATOM      1  C   UNL d   1     -42.137-123.109 -50.016  0.00  0.00     0.100 A 
ATOM      2  C   UNL d   1     -41.463-122.534 -51.408  0.00  0.00     0.000 A 
ATOM      3  C   UNL d   1     -42.244-122.318 -50.232  0.00  0.00     0.020 A 
ATOM      4  C   UNL d   1     -41.693-123.612 -50.496  0.00  0.00     0.020 A 
ATOM      5  C   UNL d   1     -41.907-122.031 -50.928  0.00  0.00     0.002 A 
ATOM      6  C   UNL d   1     -41.356-123.325 -51.192  0.00  0.00     0.002 A 
ATOM      7  C   UNL d   1     -41.123-122.247 -52.107  0.00  0.00     0.000 C 
ENDROOT
BRANCH   1   8
ATOM      8  N   UNL d   1     -42.473-123.400 -49.319  0.00  0.00    -0.056 NA
ATOM      9  C   UNL d   1     -42.032-123.427 -48.628  0.00  0.00     0.787 C 
ATOM     10  N   UNL d   1     -42.364-123.719 -47.923  0.00  0.00     0.064 N 
ATOM     11  N   UNL d   1     -41.249-123.161 -48.633  0.00  0.00     0.064 N 
ENDBRANCH   1   8
TORSDOF 1
ENDMDL
