MODEL 1
REMARK VINA RESULT:      -2.2      0.000      0.000
REMARK  6 active torsions:
REMARK  status: ('A' for Active; 'I' for Inactive)
REMARK    1  A    between atoms: C_12  and  N_1 
REMARK    2  A    between atoms: S_10  and  C_2 
REMARK    3  A    between atoms: C_5  and  N_7 
REMARK       I    between atoms: N_7  and  C_11 
REMARK    4  A    between atoms: C_16  and  S_10 
REMARK    5  A    between atoms: C_11  and  C_16 
REMARK    6  A    between atoms: C_17  and  C_12 
ROOT
ATOM      1  N   UNL d   1     -42.262-123.243 -49.622  0.00  0.00    -0.303 N 
ATOM      2  C   UNL d   1     -42.009-122.402 -50.626  0.00  0.00     0.049 A 
ATOM      3  C   UNL d   1     -41.675-122.963 -50.105  0.00  0.00     0.087 A 
ATOM      4  C   UNL d   1     -42.813-122.355 -50.442  0.00  0.00     0.024 A 
ATOM      5  C   UNL d   1     -42.970-122.876 -49.821  0.00  0.00     0.065 A 
ATOM      6  C   UNL d   1     -43.419-121.903 -50.764  0.00  0.00     0.002 A 
ATOM      7  C   UNL d   1     -43.731-122.944 -49.522  0.00  0.00     0.018 A 
ATOM      8  C   UNL d   1     -44.185-121.970 -50.464  0.00  0.00     0.000 A 
ATOM      9  C   UNL d   1     -44.341-122.491 -49.843  0.00  0.00     0.002 A 
ENDROOT
BRANCH   2  10
ATOM     10  S   UNL d   1     -41.618-121.976 -51.212  0.00  0.00    -0.080 SA
BRANCH  10  11
ATOM     11  C   UNL d   1     -41.199-122.373 -51.809  0.00  0.00     0.098 C 
BRANCH  11  12
ATOM     12  C   UNL d   1     -41.306-122.182 -52.601  0.00  0.00     0.288 C 
ATOM     13  N   UNL d   1     -41.594-122.738 -53.139  0.00  0.00    -0.182 NA
ATOM     14  O   UNL d   1     -41.124-121.427 -52.857  0.00  0.00    -0.265 OA
BRANCH  13  15
ATOM     15  C   UNL d   1     -41.699-122.537 -53.930  0.00  0.00     0.197 A 
ATOM     16  N   UNL d   1     -42.102-121.910 -54.285  0.00  0.00    -0.219 NA
ATOM     17  C   UNL d   1     -42.017-121.992 -55.106  0.00  0.00     0.108 A 
ATOM     18  C   UNL d   1     -41.563-122.665 -55.244  0.00  0.00     0.059 A 
ATOM     19  S   UNL d   1     -41.367-123.001 -54.516  0.00  0.00    -0.046 SA
ENDBRANCH  13  15
ENDBRANCH  11  12
ENDBRANCH  10  11
ENDBRANCH   2  10
BRANCH   1  20
ATOM     20  C   UNL d   1     -42.161-123.817 -49.018  0.00  0.00     0.080 C 
BRANCH  20  21
ATOM     21  C   UNL d   1     -41.979-123.585 -48.252  0.00  0.00     0.018 A 
ATOM     22  C   UNL d   1     -42.455-123.815 -47.617  0.00  0.00     0.002 A 
ATOM     23  C   UNL d   1     -42.268-123.579 -46.850  0.00  0.00     0.000 A 
ATOM     24  C   UNL d   1     -41.610-123.115 -46.708  0.00  0.00     0.000 A 
ATOM     25  C   UNL d   1     -41.123-122.876 -47.345  0.00  0.00     0.000 A 
ATOM     26  C   UNL d   1     -41.315-123.116 -48.115  0.00  0.00     0.002 A 
ENDBRANCH  20  21
ENDBRANCH   1  20
TORSDOF 6
ENDMDL
MODEL 2
REMARK VINA RESULT:      -0.7      1.428      2.135
REMARK  6 active torsions:
REMARK  status: ('A' for Active; 'I' for Inactive)
REMARK    1  A    between atoms: C_12  and  N_1 
REMARK    2  A    between atoms: S_10  and  C_2 
REMARK    3  A    between atoms: C_5  and  N_7 
REMARK       I    between atoms: N_7  and  C_11 
REMARK    4  A    between atoms: C_16  and  S_10 
REMARK    5  A    between atoms: C_11  and  C_16 
REMARK    6  A    between atoms: C_17  and  C_12 
ROOT
ATOM      1  N   UNL d   1     -41.214-122.893 -50.676  0.00  0.00    -0.303 N 
ATOM      2  C   UNL d   1     -41.177-122.733 -52.000  0.00  0.00     0.049 A 
ATOM      3  C   UNL d   1     -41.209-123.292 -51.380  0.00  0.00     0.087 A 
ATOM      4  C   UNL d   1     -41.162-121.987 -51.645  0.00  0.00     0.024 A 
ATOM      5  C   UNL d   1     -41.185-122.086 -50.826  0.00  0.00     0.065 A 
ATOM      6  C   UNL d   1     -41.131-121.232 -51.969  0.00  0.00     0.002 A 
ATOM      7  C   UNL d   1     -41.177-121.431 -50.332  0.00  0.00     0.018 A 
ATOM      8  C   UNL d   1     -41.123-120.573 -51.473  0.00  0.00     0.000 A 
ATOM      9  C   UNL d   1     -41.145-120.672 -50.654  0.00  0.00     0.002 A 
ENDROOT
BRANCH   2  10
ATOM     10  S   UNL d   1     -41.162-122.889 -52.807  0.00  0.00    -0.080 SA
BRANCH  10  11
ATOM     11  C   UNL d   1     -41.764-123.342 -53.157  0.00  0.00     0.098 C 
BRANCH  11  12
ATOM     12  C   UNL d   1     -42.033-123.176 -53.916  0.00  0.00     0.288 C 
ATOM     13  N   UNL d   1     -42.022-122.406 -54.213  0.00  0.00    -0.182 NA
ATOM     14  O   UNL d   1     -42.315-123.787 -54.381  0.00  0.00    -0.265 OA
BRANCH  13  15
ATOM     15  C   UNL d   1     -42.293-122.251 -54.975  0.00  0.00     0.197 A 
ATOM     16  N   UNL d   1     -43.053-122.272 -55.299  0.00  0.00    -0.219 NA
ATOM     17  C   UNL d   1     -42.989-122.061 -56.099  0.00  0.00     0.108 A 
ATOM     18  C   UNL d   1     -42.194-121.914 -56.255  0.00  0.00     0.059 A 
ATOM     19  S   UNL d   1     -41.765-122.032 -55.560  0.00  0.00    -0.046 SA
ENDBRANCH  13  15
ENDBRANCH  11  12
ENDBRANCH  10  11
ENDBRANCH   2  10
BRANCH   1  20
ATOM     20  C   UNL d   1     -41.243-123.248 -49.916  0.00  0.00     0.080 C 
BRANCH  20  21
ATOM     21  C   UNL d   1     -41.959-123.326 -49.522  0.00  0.00     0.018 A 
ATOM     22  C   UNL d   1     -42.586-123.741 -49.863  0.00  0.00     0.002 A 
ATOM     23  C   UNL d   1     -43.302-123.816 -49.464  0.00  0.00     0.000 A 
ATOM     24  C   UNL d   1     -43.401-123.481 -48.725  0.00  0.00     0.000 A 
ATOM     25  C   UNL d   1     -42.771-123.059 -48.370  0.00  0.00     0.000 A 
ATOM     26  C   UNL d   1     -42.053-122.986 -48.776  0.00  0.00     0.002 A 
ENDBRANCH  20  21
ENDBRANCH   1  20
TORSDOF 6
ENDMDL
