MODEL 1
REMARK VINA RESULT:      36.5      0.000      0.000
REMARK  2 active torsions:
REMARK  status: ('A' for Active; 'I' for Inactive)
REMARK    1  A    between atoms: C_3  and  C_1 
REMARK       I    between atoms: N_7  and  C_3 
REMARK    2  A    between atoms: C_11  and  N_7 
ROOT
ATOM      1  C   UNL d   1      13.849  12.902  -2.660  0.00  0.00     0.121 A 
ATOM      2  C   UNL d   1      13.557  12.152  -2.490  0.00  0.00     0.305 A 
ATOM      3  C   UNL d   1      14.353  13.279  -2.126  0.00  0.00     0.012 A 
ATOM      4  O   UNL d   1      13.769  11.783  -1.788  0.00  0.00    -0.273 OA
ATOM      5  C   UNL d   1      14.563  12.903  -1.423  0.00  0.00     0.023 A 
ATOM      6  C   UNL d   1      14.270  12.153  -1.253  0.00  0.00     0.103 A 
ATOM      7  O   UNL d   1      13.052  11.782  -3.032  0.00  0.00    -0.259 OA
ATOM      8  C   UNL d   1      15.062  13.280  -0.896  0.00  0.00     0.002 A 
ATOM      9  C   UNL d   1      14.478  11.784  -0.558  0.00  0.00     0.025 A 
ATOM     10  C   UNL d   1      15.276  12.904  -0.185  0.00  0.00     0.000 A 
ATOM     11  C   UNL d   1      14.983  12.154  -0.016  0.00  0.00     0.002 A 
ENDROOT
BRANCH   1  12
ATOM     12  C   UNL d   1      13.636  13.278  -3.370  0.00  0.00     0.284 C 
ATOM     13  N   UNL d   1      13.667  14.093  -3.425  0.00  0.00    -0.208 NA
ATOM     14  O   UNL d   1      13.391  12.826  -4.024  0.00  0.00    -0.265 OA
BRANCH  13  15
ATOM     15  C   UNL d   1      13.454  14.463  -4.132  0.00  0.00     0.085 A 
ATOM     16  C   UNL d   1      13.000  14.054  -4.695  0.00  0.00     0.019 A 
ATOM     17  C   UNL d   1      12.790  14.431  -5.403  0.00  0.00     0.002 A 
ATOM     18  C   UNL d   1      13.026  15.208  -5.555  0.00  0.00     0.000 A 
ATOM     19  C   UNL d   1      13.481  15.617  -4.992  0.00  0.00     0.002 A 
ATOM     20  C   UNL d   1      13.693  15.255  -4.291  0.00  0.00     0.019 A 
ENDBRANCH  13  15
ENDBRANCH   1  12
TORSDOF 2
ENDMDL
