MODEL 1
REMARK VINA RESULT:      15.9      0.000      0.000
REMARK  3 active torsions:
REMARK  status: ('A' for Active; 'I' for Inactive)
REMARK    1  A    between atoms: C_6  and  C_3 
REMARK    2  A    between atoms: C_9  and  C_6 
REMARK    3  A    between atoms: O_15  and  C_10 
ROOT
ATOM      1  C   UNL d   1      58.336  49.687  51.085  0.00  0.00     0.001 A 
ATOM      2  C   UNL d   1      56.864  49.655  50.324  0.00  0.00     0.094 A 
ATOM      3  C   UNL d   1      57.648  49.667  51.538  0.00  0.00     0.002 A 
ATOM      4  C   UNL d   1      58.297  49.691  50.261  0.00  0.00     0.002 A 
ATOM      5  C   UNL d   1      56.903  49.650  51.148  0.00  0.00     0.024 A 
ATOM      6  C   UNL d   1      57.588  49.676  49.884  0.00  0.00     0.024 A 
ENDROOT
BRANCH   1   7
ATOM      7  C   UNL d   1      59.044  49.702  51.510  0.00  0.00     0.011 C 
BRANCH   7   8
ATOM      8  C   UNL d   1      59.800  49.620  51.161  0.00  0.00     0.092 A 
ATOM      9  C   UNL d   1      60.503  49.495  51.519  0.00  0.00     0.288 A 
ATOM     10  N   UNL d   1      61.075  49.454  50.962  0.00  0.00    -0.163 NA
ATOM     11  O   UNL d   1      60.608  49.418  52.372  0.00  0.00    -0.265 OA
ATOM     12  C   UNL d   1      60.682  49.563  50.226  0.00  0.00     0.313 A 
ATOM     13  S   UNL d   1      59.901  49.662  50.391  0.00  0.00    -0.021 SA
ATOM     14  O   UNL d   1      61.060  49.564  49.471  0.00  0.00    -0.258 OA
ENDBRANCH   7   8
ENDBRANCH   1   7
BRANCH   2  15
ATOM     15  O   UNL d   1      56.126  49.638  49.952  0.00  0.00    -0.328 OA
ATOM     16  C   UNL d   1      56.068  49.405  49.181  0.00  0.00     0.181 C 
ENDBRANCH   2  15
TORSDOF 3
ENDMDL
