MODEL 1
REMARK VINA RESULT:       6.0      0.000      0.000
REMARK  6 active torsions:
REMARK  status: ('A' for Active; 'I' for Inactive)
REMARK    1  A    between atoms: N_2  and  S_1 
REMARK    2  A    between atoms: C_6  and  S_1 
REMARK    3  A    between atoms: C_3  and  N_10 
REMARK    4  A    between atoms: C_7  and  C_5 
REMARK       I    between atoms: N_10  and  C_7 
REMARK    5  A    between atoms: C_15  and  C_8 
REMARK    6  A    between atoms: O_27  and  C_24 
ROOT
ATOM      1  C   UNL d   1     -41.798-123.341 -50.692  0.00  0.00     0.299 C 
ATOM      2  N   UNL d   1     -41.248-122.981 -51.192  0.00  0.00    -0.164 NA
ATOM      3  O   UNL d   1     -42.390-123.816 -51.015  0.00  0.00    -0.263 OA
ENDROOT
BRANCH   1   4
ATOM      4  C   UNL d   1     -41.756-123.229 -49.886  0.00  0.00     0.133 A 
ATOM      5  N   UNL d   1     -42.348-122.889 -49.410  0.00  0.00    -0.226 N 
ATOM      6  C   UNL d   1     -42.068-122.886 -48.625  0.00  0.00     0.092 A 
ATOM      7  C   UNL d   1     -41.319-123.220 -48.624  0.00  0.00     0.021 A 
ATOM      8  C   UNL d   1     -41.124-123.432 -49.397  0.00  0.00     0.025 A 
BRANCH   5   9
ATOM      9  S   UNL d   1     -43.079-122.605 -49.668  0.00  0.00     0.277 S 
ATOM     10  O   UNL d   1     -43.425-123.352 -49.576  0.00  0.00    -0.199 OA
ATOM     11  O   UNL d   1     -42.731-121.867 -49.758  0.00  0.00    -0.199 OA
BRANCH   9  12
ATOM     12  C   UNL d   1     -43.789-122.286 -49.929  0.00  0.00     0.133 A 
ATOM     13  S   UNL d   1     -44.511-122.678 -49.978  0.00  0.00    -0.074 SA
ATOM     14  C   UNL d   1     -45.074-122.148 -50.269  0.00  0.00     0.036 A 
ATOM     15  C   UNL d   1     -44.694-121.425 -50.399  0.00  0.00     0.008 A 
ATOM     16  C   UNL d   1     -43.901-121.510 -50.190  0.00  0.00     0.020 A 
ENDBRANCH   9  12
ENDBRANCH   5   9
ENDBRANCH   1   4
BRANCH   2  17
ATOM     17  C   UNL d   1     -41.289-123.093 -52.008  0.00  0.00     0.297 A 
ATOM     18  O   UNL d   1     -41.503-122.521 -52.561  0.00  0.00    -0.253 OA
ATOM     19  C   UNL d   1     -41.472-122.864 -53.313  0.00  0.00     0.206 A 
ATOM     20  N   UNL d   1     -41.238-123.649 -53.222  0.00  0.00    -0.119 NA
ATOM     21  N   UNL d   1     -41.125-123.789 -52.411  0.00  0.00    -0.101 NA
BRANCH  19  22
ATOM     22  C   UNL d   1     -41.642-122.491 -54.015  0.00  0.00     0.043 A 
ATOM     23  C   UNL d   1     -41.228-122.679 -54.703  0.00  0.00     0.006 A 
ATOM     24  C   UNL d   1     -41.410-122.291 -55.416  0.00  0.00     0.024 A 
ATOM     25  C   UNL d   1     -42.001-121.722 -55.436  0.00  0.00     0.094 A 
ATOM     26  C   UNL d   1     -42.412-121.536 -54.748  0.00  0.00     0.024 A 
ATOM     27  C   UNL d   1     -42.239-121.913 -54.042  0.00  0.00     0.006 A 
BRANCH  25  28
ATOM     28  O   UNL d   1     -42.180-121.338 -56.140  0.00  0.00    -0.328 OA
ATOM     29  C   UNL d   1     -42.754-121.653 -56.650  0.00  0.00     0.181 C 
ENDBRANCH  25  28
ENDBRANCH  19  22
ENDBRANCH   2  17
TORSDOF 6
ENDMDL
