MODEL 1
REMARK VINA RESULT:      79.9      0.000      0.000
REMARK  4 active torsions:
REMARK  status: ('A' for Active; 'I' for Inactive)
REMARK    1  A    between atoms: C_11  and  C_3 
REMARK    2  A    between atoms: N_10  and  C_4 
REMARK    3  A    between atoms: C_13  and  N_10 
REMARK    4  A    between atoms: C_14  and  C_13 
ROOT
ATOM      1  C   UNL d   1      60.732  47.786  50.569  0.00  0.00     0.167 A 
ATOM      2  N   UNL d   1      60.013  48.019  50.899  0.00  0.00    -0.195 N 
ATOM      3  C   UNL d   1      60.695  46.981  50.429  0.00  0.00     0.057 A 
ATOM      4  C   UNL d   1      59.888  48.806  51.100  0.00  0.00     0.167 A 
ATOM      5  N   UNL d   1      59.539  47.354  50.959  0.00  0.00    -0.161 NA
ATOM      6  N   UNL d   1      61.325  48.342  50.441  0.00  0.00    -0.227 NA
ATOM      7  C   UNL d   1      60.486  49.364  50.970  0.00  0.00     0.058 A 
ATOM      8  C   UNL d   1      59.952  46.718  50.674  0.00  0.00     0.124 A 
ATOM      9  C   UNL d   1      61.197  49.134  50.644  0.00  0.00     0.086 A 
ATOM     10  C   UNL d   1      61.779  49.708  50.523  0.00  0.00     0.021 C 
ENDROOT
BRANCH   4  11
ATOM     11  N   UNL d   1      59.169  49.039  51.430  0.00  0.00    -0.224 NA
BRANCH  11  12
ATOM     12  C   UNL d   1      58.784  49.707  51.146  0.00  0.00     0.120 C 
BRANCH  12  13
ATOM     13  C   UNL d   1      57.994  49.653  50.885  0.00  0.00     0.101 A 
ATOM     14  N   UNL d   1      57.827  49.553  50.080  0.00  0.00    -0.242 NA
ATOM     15  C   UNL d   1      57.050  49.501  49.824  0.00  0.00     0.099 A 
ATOM     16  C   UNL d   1      56.428  49.547  50.369  0.00  0.00     0.021 A 
ATOM     17  C   UNL d   1      56.597  49.647  51.170  0.00  0.00     0.003 A 
ATOM     18  C   UNL d   1      57.381  49.700  51.429  0.00  0.00     0.021 A 
ENDBRANCH  12  13
ENDBRANCH  11  12
ENDBRANCH   4  11
BRANCH   3  19
ATOM     19  C   UNL d   1      61.337  46.580  50.097  0.00  0.00     0.004 A 
ATOM     20  C   UNL d   1      61.211  46.080  49.450  0.00  0.00     0.000 A 
ATOM     21  C   UNL d   1      61.845  45.679  49.115  0.00  0.00     0.000 A 
ATOM     22  C   UNL d   1      62.611  45.774  49.425  0.00  0.00     0.000 A 
ATOM     23  C   UNL d   1      62.727  46.274  50.070  0.00  0.00     0.000 A 
ATOM     24  C   UNL d   1      62.088  46.676  50.405  0.00  0.00     0.000 A 
ENDBRANCH   3  19
TORSDOF 4
ENDMDL
