MODEL 1
REMARK VINA RESULT:      52.4      0.000      0.000
REMARK  8 active torsions:
REMARK  status: ('A' for Active; 'I' for Inactive)
REMARK    1  A    between atoms: C_7  and  C_1 
REMARK    2  A    between atoms: C_10  and  N_2 
REMARK    3  A    between atoms: C_13  and  C_5 
REMARK    4  A    between atoms: C_6  and  C_7 
REMARK    5  A    between atoms: C_18  and  C_10 
REMARK    6  A    between atoms: N_19  and  C_18 
REMARK    7  A    between atoms: C_25  and  N_19 
REMARK    8  A    between atoms: C_26  and  N_19 
ROOT
ATOM      1  C   UNL d   1      46.228 -16.550  43.360  0.00  0.00     0.101 A 
ATOM      2  N   UNL d   1      46.292 -17.876  43.502  0.00  0.00    -0.269 N 
ATOM      3  C   UNL d   1      46.385 -16.716  44.156  0.00  0.00     0.256 A 
ATOM      4  C   UNL d   1      46.424 -17.532  44.244  0.00  0.00     0.304 A 
ATOM      5  C   UNL d   1      46.172 -17.270  42.963  0.00  0.00     0.075 A 
ATOM      6  O   UNL d   1      46.570 -17.937  44.954  0.00  0.00    -0.263 OA
ATOM      7  O   UNL d   1      46.485 -16.156  44.762  0.00  0.00    -0.281 OA
ENDROOT
BRANCH   1   8
ATOM      8  C   UNL d   1      46.145 -15.798  43.031  0.00  0.00     0.223 C 
ATOM      9  O   UNL d   1      46.392 -15.658  42.254  0.00  0.00    -0.284 OA
BRANCH   8  10
ATOM     10  C   UNL d   1      45.816 -15.182  43.469  0.00  0.00     0.139 A 
ATOM     11  O   UNL d   1      45.059 -15.171  43.804  0.00  0.00    -0.304 OA
ATOM     12  C   UNL d   1      44.968 -14.449  44.190  0.00  0.00     0.100 A 
ATOM     13  C   UNL d   1      44.335 -14.134  44.616  0.00  0.00     0.025 A 
ATOM     14  C   UNL d   1      45.656 -14.017  44.097  0.00  0.00     0.025 A 
ATOM     15  C   UNL d   1      44.399 -13.387  44.946  0.00  0.00     0.002 A 
ATOM     16  C   UNL d   1      45.094 -12.956  44.849  0.00  0.00     0.000 A 
ATOM     17  C   UNL d   1      45.721 -13.266  44.428  0.00  0.00     0.002 A 
ATOM     18  C   UNL d   1      46.181 -14.473  43.649  0.00  0.00     0.030 A 
ENDBRANCH   8  10
ENDBRANCH   1   8
BRANCH   5  19
ATOM     19  C   UNL d   1      46.019 -17.356  42.145  0.00  0.00     0.036 A 
ATOM     20  C   UNL d   1      45.236 -17.365  41.874  0.00  0.00     0.100 A 
ATOM     21  N   UNL d   1      45.081 -17.450  41.070  0.00  0.00    -0.242 NA
ATOM     22  C   UNL d   1      45.714 -17.527  40.524  0.00  0.00     0.099 A 
ATOM     23  C   UNL d   1      46.498 -17.517  40.804  0.00  0.00     0.021 A 
ATOM     24  C   UNL d   1      46.645 -17.432  41.614  0.00  0.00     0.005 A 
ENDBRANCH   5  19
BRANCH   2  25
ATOM     25  C   UNL d   1      46.284 -18.690  43.342  0.00  0.00     0.102 C 
BRANCH  25  26
ATOM     26  C   UNL d   1      45.572 -19.077  43.196  0.00  0.00     0.100 C 
BRANCH  26  27
ATOM     27  N   UNL d   1      45.542 -19.908  43.203  0.00  0.00    -0.301 N 
BRANCH  27  28
ATOM     28  C   UNL d   1      45.420 -20.305  43.917  0.00  0.00     0.080 C 
ATOM     29  C   UNL d   1      45.963 -20.234  44.533  0.00  0.00     0.021 C 
ENDBRANCH  27  28
BRANCH  27  30
ATOM     30  C   UNL d   1      45.634 -20.325  42.502  0.00  0.00     0.080 C 
ATOM     31  C   UNL d   1      46.274 -20.169  42.003  0.00  0.00     0.021 C 
ENDBRANCH  27  30
ENDBRANCH  26  27
ENDBRANCH  25  26
ENDBRANCH   2  25
TORSDOF 8
ENDMDL
MODEL 2
REMARK VINA RESULT:      55.2      2.020      5.083
REMARK  8 active torsions:
REMARK  status: ('A' for Active; 'I' for Inactive)
REMARK    1  A    between atoms: C_7  and  C_1 
REMARK    2  A    between atoms: C_10  and  N_2 
REMARK    3  A    between atoms: C_13  and  C_5 
REMARK    4  A    between atoms: C_6  and  C_7 
REMARK    5  A    between atoms: C_18  and  C_10 
REMARK    6  A    between atoms: N_19  and  C_18 
REMARK    7  A    between atoms: C_25  and  N_19 
REMARK    8  A    between atoms: C_26  and  N_19 
ROOT
ATOM      1  C   UNL d   1      45.205 -15.983  44.274  0.00  0.00     0.101 A 
ATOM      2  N   UNL d   1      45.219 -14.654  44.143  0.00  0.00    -0.269 N 
ATOM      3  C   UNL d   1      45.970 -15.754  44.056  0.00  0.00     0.256 A 
ATOM      4  C   UNL d   1      45.979 -14.936  43.975  0.00  0.00     0.304 A 
ATOM      5  C   UNL d   1      44.747 -15.300  44.326  0.00  0.00     0.075 A 
ATOM      6  O   UNL d   1      46.637 -14.477  43.762  0.00  0.00    -0.263 OA
ATOM      7  O   UNL d   1      46.618 -16.261  43.939  0.00  0.00    -0.281 OA
ENDROOT
BRANCH   1   8
ATOM      8  C   UNL d   1      44.953 -16.756  44.413  0.00  0.00     0.223 C 
ATOM      9  O   UNL d   1      44.325 -16.899  44.934  0.00  0.00    -0.284 OA
BRANCH   8  10
ATOM     10  C   UNL d   1      45.321 -17.392  44.038  0.00  0.00     0.139 A 
ATOM     11  O   UNL d   1      45.377 -17.510  43.221  0.00  0.00    -0.304 OA
ATOM     12  C   UNL d   1      45.789 -18.212  43.099  0.00  0.00     0.100 A 
ATOM     13  C   UNL d   1      46.008 -18.603  42.405  0.00  0.00     0.025 A 
ATOM     14  C   UNL d   1      45.987 -18.527  43.827  0.00  0.00     0.025 A 
ATOM     15  C   UNL d   1      46.424 -19.308  42.449  0.00  0.00     0.002 A 
ATOM     16  C   UNL d   1      46.620 -19.620  43.186  0.00  0.00     0.000 A 
ATOM     17  C   UNL d   1      46.405 -19.235  43.873  0.00  0.00     0.002 A 
ATOM     18  C   UNL d   1      45.695 -18.016  44.409  0.00  0.00     0.030 A 
ENDBRANCH   8  10
ENDBRANCH   1   8
BRANCH   5  19
ATOM     19  C   UNL d   1      43.937 -15.280  44.531  0.00  0.00     0.036 A 
ATOM     20  C   UNL d   1      43.563 -14.551  44.656  0.00  0.00     0.100 A 
ATOM     21  N   UNL d   1      42.765 -14.527  44.858  0.00  0.00    -0.242 NA
ATOM     22  C   UNL d   1      42.329 -15.240  44.940  0.00  0.00     0.099 A 
ATOM     23  C   UNL d   1      42.712 -15.969  44.813  0.00  0.00     0.021 A 
ATOM     24  C   UNL d   1      43.513 -15.984  44.610  0.00  0.00     0.005 A 
ENDBRANCH   5  19
BRANCH   2  25
ATOM     25  C   UNL d   1      44.984 -13.859  44.126  0.00  0.00     0.102 C 
BRANCH  25  26
ATOM     26  C   UNL d   1      44.699 -13.524  43.430  0.00  0.00     0.100 C 
BRANCH  26  27
ATOM     27  N   UNL d   1      45.017 -12.807  43.154  0.00  0.00    -0.301 N 
BRANCH  27  28
ATOM     28  C   UNL d   1      44.527 -12.145  43.083  0.00  0.00     0.080 C 
ATOM     29  C   UNL d   1      43.765 -12.220  42.781  0.00  0.00     0.021 C 
ENDBRANCH  27  28
BRANCH  27  30
ATOM     30  C   UNL d   1      45.812 -12.763  42.955  0.00  0.00     0.080 C 
ATOM     31  C   UNL d   1      46.065 -12.261  42.348  0.00  0.00     0.021 C 
ENDBRANCH  27  30
ENDBRANCH  26  27
ENDBRANCH  25  26
ENDBRANCH   2  25
TORSDOF 8
ENDMDL
