MODEL 1
REMARK VINA RESULT:      -0.4      0.000      0.000
REMARK  6 active torsions:
REMARK  status: ('A' for Active; 'I' for Inactive)
REMARK    1  A    between atoms: C_7  and  C_1 
REMARK    2  A    between atoms: C_19  and  N_2 
REMARK    3  A    between atoms: C_18  and  N_3 
REMARK    4  A    between atoms: C_13  and  C_9 
REMARK    5  A    between atoms: O_20  and  C_13 
REMARK    6  A    between atoms: C_23  and  O_20 
ROOT
ATOM      1  C   UNL d   1      31.638  17.413 -24.000  0.00  0.00     0.013 A 
ATOM      2  C   UNL d   1      30.834  17.331 -23.810  0.00  0.00     0.030 A 
ATOM      3  C   UNL d   1      30.431  16.635 -23.979  0.00  0.00     0.163 A 
ATOM      4  O   UNL d   1      30.828  16.002 -24.345  0.00  0.00    -0.302 OA
ATOM      5  C   UNL d   1      32.040  16.787 -24.364  0.00  0.00     0.023 A 
ATOM      6  C   UNL d   1      31.633  16.081 -24.537  0.00  0.00     0.100 A 
ATOM      7  C   UNL d   1      32.839  16.858 -24.558  0.00  0.00     0.002 A 
ATOM      8  C   UNL d   1      32.037  15.453 -24.903  0.00  0.00     0.025 A 
ATOM      9  C   UNL d   1      33.240  16.236 -24.920  0.00  0.00     0.000 A 
ATOM     10  C   UNL d   1      32.835  15.526 -25.095  0.00  0.00     0.002 A 
ENDROOT
BRANCH   1  11
ATOM     11  C   UNL d   1      32.039  18.112 -23.829  0.00  0.00     0.113 A 
ATOM     12  C   UNL d   1      32.040  18.729 -24.381  0.00  0.00     0.271 A 
ATOM     13  N   UNL d   1      32.439  19.428 -24.215  0.00  0.00    -0.250 N 
ATOM     14  O   UNL d   1      31.639  18.641 -25.097  0.00  0.00    -0.266 OA
ATOM     15  C   UNL d   1      32.838  19.514 -23.501  0.00  0.00     0.196 A 
ATOM     16  N   UNL d   1      32.837  18.896 -22.950  0.00  0.00    -0.250 N 
ATOM     17  S   UNL d   1      33.241  20.217 -23.331  0.00  0.00    -0.039 SA
ATOM     18  C   UNL d   1      32.438  18.190 -23.110  0.00  0.00     0.271 A 
ATOM     19  O   UNL d   1      32.437  17.575 -22.561  0.00  0.00    -0.266 OA
BRANCH  13  20
ATOM     20  C   UNL d   1      32.439  20.043 -24.764  0.00  0.00     0.085 C 
ATOM     21  C   UNL d   1      33.123  20.480 -24.892  0.00  0.00     0.021 C 
ENDBRANCH  13  20
BRANCH  16  22
ATOM     22  C   UNL d   1      33.240  18.988 -22.234  0.00  0.00     0.085 C 
ATOM     23  C   UNL d   1      33.009  19.568 -21.699  0.00  0.00     0.021 C 
ENDBRANCH  16  22
ENDBRANCH   1  11
BRANCH   3  24
ATOM     24  C   UNL d   1      29.636  16.563 -23.787  0.00  0.00     0.323 C 
ATOM     25  O   UNL d   1      29.385  15.945 -23.304  0.00  0.00    -0.257 OA
BRANCH  24  26
ATOM     26  O   UNL d   1      29.091  17.106 -24.077  0.00  0.00    -0.270 OA
BRANCH  26  27
ATOM     27  C   UNL d   1      28.343  17.160 -23.737  0.00  0.00     0.126 C 
ATOM     28  C   UNL d   1      27.809  17.729 -23.997  0.00  0.00     0.029 C 
ENDBRANCH  26  27
ENDBRANCH  24  26
ENDBRANCH   3  24
TORSDOF 6
ENDMDL
