MODEL 1
REMARK VINA RESULT:      23.8      0.000      0.000
REMARK  3 active torsions:
REMARK  status: ('A' for Active; 'I' for Inactive)
REMARK    1  A    between atoms: C_14  and  C_4 
REMARK    2  A    between atoms: C_10  and  O_11 
REMARK    3  A    between atoms: O_11  and  C_14 
ROOT
ATOM      1  C   UNL d   1     -56.132 -98.868 -44.969  0.00  0.00     0.144 C 
ENDROOT
BRANCH   1   2
ATOM      2  O   UNL d   1     -55.536 -99.146 -44.459  0.00  0.00    -0.303 OA
BRANCH   2   3
ATOM      3  C   UNL d   1     -55.332 -99.925 -44.461  0.00  0.00     0.100 A 
ATOM      4  C   UNL d   1     -54.933-100.257 -43.815  0.00  0.00     0.024 A 
ATOM      5  C   UNL d   1     -54.729-101.065 -43.832  0.00  0.00     0.013 A 
ATOM      6  C   UNL d   1     -54.734 -99.814 -43.158  0.00  0.00     0.002 C 
ATOM      7  C   UNL d   1     -54.917-101.537 -44.482  0.00  0.00     0.058 A 
ATOM      8  C   UNL d   1     -55.315-101.205 -45.129  0.00  0.00     0.013 A 
ATOM      9 CL   UNL d   1     -54.712-102.361 -44.508  0.00  0.00    -0.082 Cl
ATOM     10  C   UNL d   1     -55.529-100.398 -45.131  0.00  0.00     0.026 A 
ENDBRANCH   2   3
ENDBRANCH   1   2
BRANCH   1  11
ATOM     11  C   UNL d   1     -56.903 -98.846 -44.724  0.00  0.00     0.142 A 
ATOM     12  N   UNL d   1     -57.566 -98.863 -45.216  0.00  0.00    -0.057 NA
ATOM     13  C   UNL d   1     -58.223 -98.831 -44.745  0.00  0.00     0.735 A 
ATOM     14  N   UNL d   1     -57.979 -98.795 -43.971  0.00  0.00    -0.136 N 
ATOM     15  N   UNL d   1     -59.033 -98.830 -44.926  0.00  0.00    -0.059 NA
ATOM     16  C   UNL d   1     -57.171 -98.805 -43.977  0.00  0.00     0.120 A 
ATOM     17  C   UNL d   1     -58.556 -98.757 -43.366  0.00  0.00     0.100 A 
ATOM     18  C   UNL d   1     -59.343 -98.756 -43.541  0.00  0.00     0.041 A 
ATOM     19  C   UNL d   1     -59.585 -98.793 -44.330  0.00  0.00     0.119 A 
ENDBRANCH   1  11
TORSDOF 3
ENDMDL
MODEL 2
REMARK VINA RESULT:      26.2      2.078      3.977
REMARK  3 active torsions:
REMARK  status: ('A' for Active; 'I' for Inactive)
REMARK    1  A    between atoms: C_14  and  C_4 
REMARK    2  A    between atoms: C_10  and  O_11 
REMARK    3  A    between atoms: O_11  and  C_14 
ROOT
ATOM      1  C   UNL d   1     -56.354 -99.056 -44.381  0.00  0.00     0.144 C 
ENDROOT
BRANCH   1   2
ATOM      2  O   UNL d   1     -57.044 -98.854 -43.960  0.00  0.00    -0.303 OA
BRANCH   2   3
ATOM      3  C   UNL d   1     -57.756 -98.832 -44.336  0.00  0.00     0.100 A 
ATOM      4  C   UNL d   1     -58.461 -98.824 -43.900  0.00  0.00     0.024 A 
ATOM      5  C   UNL d   1     -59.190 -98.801 -44.304  0.00  0.00     0.013 A 
ATOM      6  C   UNL d   1     -58.463 -98.840 -43.084  0.00  0.00     0.002 C 
ATOM      7  C   UNL d   1     -59.220 -98.785 -45.128  0.00  0.00     0.058 A 
ATOM      8  C   UNL d   1     -58.514 -98.793 -45.564  0.00  0.00     0.013 A 
ATOM      9 CL   UNL d   1     -59.958 -98.761 -45.548  0.00  0.00    -0.082 Cl
ATOM     10  C   UNL d   1     -57.774 -98.816 -45.179  0.00  0.00     0.026 A 
ENDBRANCH   2   3
ENDBRANCH   1   2
BRANCH   1  11
ATOM     11  C   UNL d   1     -55.976 -99.756 -44.237  0.00  0.00     0.142 A 
ATOM     12  N   UNL d   1     -55.763-100.315 -44.807  0.00  0.00    -0.057 NA
ATOM     13  C   UNL d   1     -55.399-100.929 -44.425  0.00  0.00     0.735 A 
ATOM     14  N   UNL d   1     -55.384-100.760 -43.630  0.00  0.00    -0.136 N 
ATOM     15  N   UNL d   1     -55.071-101.638 -44.706  0.00  0.00    -0.059 NA
ATOM     16  C   UNL d   1     -55.741-100.041 -43.534  0.00  0.00     0.120 A 
ATOM     17  C   UNL d   1     -55.034-101.311 -43.105  0.00  0.00     0.100 A 
ATOM     18  C   UNL d   1     -54.716-101.999 -43.378  0.00  0.00     0.041 A 
ATOM     19  C   UNL d   1     -54.734-102.165 -44.187  0.00  0.00     0.119 A 
ENDBRANCH   1  11
TORSDOF 3
ENDMDL
