MODEL 1
REMARK VINA RESULT:      -4.5      0.000      0.000
REMARK  5 active torsions:
REMARK  status: ('A' for Active; 'I' for Inactive)
REMARK    1  A    between atoms: N_2  and  S_1 
REMARK    2  A    between atoms: C_9  and  S_1 
REMARK    3  A    between atoms: C_8  and  N_2 
REMARK       I    between atoms: C_14  and  N_2 
REMARK    4  A    between atoms: C_17  and  C_3 
REMARK    5  A    between atoms: N_6  and  C_5 
ROOT
ATOM      1  N   UNL d   1     -41.626-122.121 -51.495  0.00  0.00    -0.198 N 
ATOM      2  C   UNL d   1     -41.405-121.313 -51.484  0.00  0.00     0.274 C 
ATOM      3  O   UNL d   1     -41.124-120.949 -52.178  0.00  0.00    -0.266 OA
ATOM      4  C   UNL d   1     -41.459-120.862 -50.790  0.00  0.00     0.067 C 
ENDROOT
BRANCH   1   5
ATOM      5  S   UNL d   1     -41.908-122.470 -50.779  0.00  0.00     0.274 S 
ATOM      6  O   UNL d   1     -42.562-121.975 -50.811  0.00  0.00    -0.200 OA
ATOM      7  O   UNL d   1     -41.229-122.978 -50.751  0.00  0.00    -0.200 OA
BRANCH   5   8
ATOM      8  C   UNL d   1     -42.199-122.797 -50.082  0.00  0.00     0.106 A 
ATOM      9  C   UNL d   1     -41.777-122.757 -49.401  0.00  0.00     0.037 A 
ATOM     10  C   UNL d   1     -42.048-123.078 -48.685  0.00  0.00     0.138 A 
ATOM     11  C   UNL d   1     -42.833-123.473 -48.706  0.00  0.00     0.080 A 
ATOM     12  C   UNL d   1     -43.252-123.504 -49.416  0.00  0.00     0.014 A 
ATOM     13 CL   UNL d   1     -43.165-123.817 -48.024  0.00  0.00    -0.081 Cl
ATOM     14  C   UNL d   1     -42.935-123.170 -50.087  0.00  0.00     0.014 A 
BRANCH  10  15
ATOM     15  N   UNL d   1     -41.604-123.032 -47.984  0.00  0.00    -0.113 N 
ATOM     16  O   UNL d   1     -41.288-123.747 -47.688  0.00  0.00    -0.532 OA
ATOM     17  O   UNL d   1     -41.472-122.341 -47.591  0.00  0.00    -0.532 OA
ENDBRANCH  10  15
ENDBRANCH   5   8
ENDBRANCH   1   5
BRANCH   1  18
ATOM     18  C   UNL d   1     -41.568-122.557 -52.188  0.00  0.00     0.078 A 
ATOM     19  C   UNL d   1     -41.881-122.269 -52.851  0.00  0.00     0.021 A 
ATOM     20  C   UNL d   1     -41.839-122.689 -53.571  0.00  0.00     0.029 A 
ATOM     21  C   UNL d   1     -42.110-122.521 -54.316  0.00  0.00     0.064 A 
ATOM     22  C   UNL d   1     -41.465-123.421 -53.601  0.00  0.00     0.100 A 
ATOM     23  C   UNL d   1     -41.910-123.137 -54.812  0.00  0.00     0.103 A 
ATOM     24  C   UNL d   1     -42.063-123.223 -55.616  0.00  0.00     0.027 C 
ATOM     25  O   UNL d   1     -41.509-123.696 -54.364  0.00  0.00    -0.307 OA
ATOM     26  C   UNL d   1     -41.123-123.752 -52.911  0.00  0.00     0.026 A 
ATOM     27  C   UNL d   1     -41.174-123.328 -52.219  0.00  0.00     0.020 A 
BRANCH  21  28
ATOM     28  C   UNL d   1     -42.526-121.832 -54.548  0.00  0.00     0.198 C 
ATOM     29  O   UNL d   1     -43.259-121.649 -54.241  0.00  0.00    -0.286 OA
ATOM     30  C   UNL d   1     -42.162-121.322 -55.119  0.00  0.00     0.045 C 
ENDBRANCH  21  28
ENDBRANCH   1  18
TORSDOF 5
ENDMDL
