MODEL 1
REMARK VINA RESULT:      -8.3      0.000      0.000
REMARK  4 active torsions:
REMARK  status: ('A' for Active; 'I' for Inactive)
REMARK    1  A    between atoms: N_10  and  C_3 
REMARK    2  A    between atoms: C_12  and  C_5 
REMARK    3  A    between atoms: C_15  and  C_9 
REMARK    4  A    between atoms: C_19  and  N_11 
ROOT
ATOM      1  N   UNL d   1      51.988  34.132  53.353  0.00  0.00    -0.196 N 
ATOM      2  C   UNL d   1      52.664  33.814  53.712  0.00  0.00     0.167 A 
ATOM      3  C   UNL d   1      51.507  33.645  52.911  0.00  0.00     0.152 A 
ATOM      4  N   UNL d   1      52.303  35.408  53.892  0.00  0.00    -0.163 NA
ATOM      5  C   UNL d   1      53.146  34.287  54.151  0.00  0.00     0.055 A 
ATOM      6  N   UNL d   1      52.833  33.020  53.616  0.00  0.00    -0.227 NA
ATOM      7  C   UNL d   1      51.690  32.828  52.817  0.00  0.00     0.057 A 
ATOM      8  C   UNL d   1      52.979  35.089  54.251  0.00  0.00     0.104 A 
ATOM      9  C   UNL d   1      52.350  32.542  53.175  0.00  0.00     0.086 A 
ATOM     10  C   UNL d   1      53.460  35.559  54.689  0.00  0.00     0.023 C 
ENDROOT
BRANCH   3  11
ATOM     11  N   UNL d   1      50.813  33.968  52.541  0.00  0.00    -0.286 N 
ATOM     12  C   UNL d   1      50.097  34.155  52.959  0.00  0.00     0.101 A 
ATOM     13  C   UNL d   1      49.436  34.475  52.543  0.00  0.00     0.100 A 
ATOM     14  N   UNL d   1      49.480  34.612  51.705  0.00  0.00    -0.300 N 
ATOM     15  C   UNL d   1      50.202  34.423  51.285  0.00  0.00     0.100 A 
ATOM     16  C   UNL d   1      50.864  34.104  51.700  0.00  0.00     0.101 A 
BRANCH  14  17
ATOM     17  C   UNL d   1      48.816  34.933  51.287  0.00  0.00     0.080 C 
ATOM     18  C   UNL d   1      48.451  34.493  50.672  0.00  0.00     0.021 C 
ENDBRANCH  14  17
ENDBRANCH   3  11
BRANCH   9  19
ATOM     19  C   UNL d   1      52.533  31.708  53.076  0.00  0.00     0.018 C 
ATOM     20  C   UNL d   1      52.091  31.122  53.531  0.00  0.00     0.002 C 
ATOM     21  C   UNL d   1      53.148  31.460  52.533  0.00  0.00     0.002 C 
ENDBRANCH   9  19
BRANCH   5  22
ATOM     22  C   UNL d   1      53.828  33.966  54.514  0.00  0.00     0.004 A 
ATOM     23  C   UNL d   1      54.545  33.987  54.123  0.00  0.00     0.000 A 
ATOM     24  C   UNL d   1      55.217  33.670  54.481  0.00  0.00     0.000 A 
ATOM     25  C   UNL d   1      55.159  33.338  55.221  0.00  0.00     0.000 A 
ATOM     26  C   UNL d   1      54.434  33.319  55.612  0.00  0.00     0.000 A 
ATOM     27  C   UNL d   1      53.777  33.633  55.253  0.00  0.00     0.000 A 
ENDBRANCH   5  22
TORSDOF 4
ENDMDL
MODEL 2
REMARK VINA RESULT:      -7.4      0.888      2.311
REMARK  4 active torsions:
REMARK  status: ('A' for Active; 'I' for Inactive)
REMARK    1  A    between atoms: N_10  and  C_3 
REMARK    2  A    between atoms: C_12  and  C_5 
REMARK    3  A    between atoms: C_15  and  C_9 
REMARK    4  A    between atoms: C_19  and  N_11 
ROOT
ATOM      1  N   UNL d   1      51.842  33.525  52.871  0.00  0.00    -0.196 N 
ATOM      2  C   UNL d   1      52.529  33.449  53.328  0.00  0.00     0.167 A 
ATOM      3  C   UNL d   1      51.477  34.252  52.820  0.00  0.00     0.152 A 
ATOM      4  N   UNL d   1      51.913  32.147  52.536  0.00  0.00    -0.163 NA
ATOM      5  C   UNL d   1      52.896  32.734  53.385  0.00  0.00     0.055 A 
ATOM      6  N   UNL d   1      52.825  34.103  53.718  0.00  0.00    -0.227 NA
ATOM      7  C   UNL d   1      51.791  34.921  53.225  0.00  0.00     0.057 A 
ATOM      8  C   UNL d   1      52.600  32.071  52.993  0.00  0.00     0.104 A 
ATOM      9  C   UNL d   1      52.458  34.823  53.662  0.00  0.00     0.086 A 
ATOM     10  C   UNL d   1      52.967  31.360  53.051  0.00  0.00     0.023 C 
ENDROOT
BRANCH   3  11
ATOM     11  N   UNL d   1      50.772  34.333  52.352  0.00  0.00    -0.286 N 
ATOM     12  C   UNL d   1      50.762  34.309  51.502  0.00  0.00     0.101 A 
ATOM     13  C   UNL d   1      50.034  34.396  51.085  0.00  0.00     0.100 A 
ATOM     14  N   UNL d   1      49.305  34.507  51.510  0.00  0.00    -0.300 N 
ATOM     15  C   UNL d   1      49.317  34.531  52.365  0.00  0.00     0.100 A 
ATOM     16  C   UNL d   1      50.044  34.445  52.783  0.00  0.00     0.101 A 
BRANCH  14  17
ATOM     17  C   UNL d   1      48.574  34.593  51.091  0.00  0.00     0.080 C 
ATOM     18  C   UNL d   1      47.993  35.137  51.362  0.00  0.00     0.021 C 
ENDBRANCH  14  17
ENDBRANCH   3  11
BRANCH   9  19
ATOM     19  C   UNL d   1      52.774  35.508  54.074  0.00  0.00     0.018 C 
ATOM     20  C   UNL d   1      53.395  35.976  53.699  0.00  0.00     0.002 C 
ATOM     21  C   UNL d   1      52.476  35.724  54.848  0.00  0.00     0.002 C 
ENDBRANCH   9  19
BRANCH   5  22
ATOM     22  C   UNL d   1      53.590  32.658  53.847  0.00  0.00     0.004 A 
ATOM     23  C   UNL d   1      54.322  32.768  53.502  0.00  0.00     0.000 A 
ATOM     24  C   UNL d   1      55.005  32.692  53.957  0.00  0.00     0.000 A 
ATOM     25  C   UNL d   1      54.943  32.509  54.747  0.00  0.00     0.000 A 
ATOM     26  C   UNL d   1      54.202  32.398  55.091  0.00  0.00     0.000 A 
ATOM     27  C   UNL d   1      53.534  32.474  54.636  0.00  0.00     0.000 A 
ENDBRANCH   5  22
TORSDOF 4
ENDMDL
MODEL 3
REMARK VINA RESULT:      -6.2      1.486      3.960
REMARK  4 active torsions:
REMARK  status: ('A' for Active; 'I' for Inactive)
REMARK    1  A    between atoms: N_10  and  C_3 
REMARK    2  A    between atoms: C_12  and  C_5 
REMARK    3  A    between atoms: C_15  and  C_9 
REMARK    4  A    between atoms: C_19  and  N_11 
ROOT
ATOM      1  N   UNL d   1      53.341  32.525  54.108  0.00  0.00    -0.196 N 
ATOM      2  C   UNL d   1      53.177  33.338  54.105  0.00  0.00     0.167 A 
ATOM      3  C   UNL d   1      52.843  32.019  53.707  0.00  0.00     0.152 A 
ATOM      4  N   UNL d   1      54.489  32.760  54.910  0.00  0.00    -0.163 NA
ATOM      5  C   UNL d   1      53.663  33.846  54.498  0.00  0.00     0.055 A 
ATOM      6  N   UNL d   1      52.522  33.614  53.702  0.00  0.00    -0.227 NA
ATOM      7  C   UNL d   1      52.170  32.313  53.294  0.00  0.00     0.057 A 
ATOM      8  C   UNL d   1      54.325  33.572  54.907  0.00  0.00     0.104 A 
ATOM      9  C   UNL d   1      52.032  33.104  53.305  0.00  0.00     0.086 A 
ATOM     10  C   UNL d   1      54.808  34.080  55.298  0.00  0.00     0.023 C 
ENDROOT
BRANCH   3  11
ATOM     11  N   UNL d   1      53.008  31.185  53.708  0.00  0.00    -0.286 N 
ATOM     12  C   UNL d   1      53.277  30.754  53.026  0.00  0.00     0.101 A 
ATOM     13  C   UNL d   1      53.426  29.925  53.081  0.00  0.00     0.100 A 
ATOM     14  N   UNL d   1      53.308  29.515  53.817  0.00  0.00    -0.300 N 
ATOM     15  C   UNL d   1      53.037  29.950  54.502  0.00  0.00     0.100 A 
ATOM     16  C   UNL d   1      52.888  30.778  54.448  0.00  0.00     0.101 A 
BRANCH  14  17
ATOM     17  C   UNL d   1      53.458  28.683  53.871  0.00  0.00     0.080 C 
ATOM     18  C   UNL d   1      53.593  28.326  54.620  0.00  0.00     0.021 C 
ENDBRANCH  14  17
ENDBRANCH   3  11
BRANCH   9  19
ATOM     19  C   UNL d   1      51.344  33.400  52.883  0.00  0.00     0.018 C 
ATOM     20  C   UNL d   1      50.572  33.381  53.268  0.00  0.00     0.002 C 
ATOM     21  C   UNL d   1      51.425  33.710  52.088  0.00  0.00     0.002 C 
ENDBRANCH   9  19
BRANCH   5  22
ATOM     22  C   UNL d   1      53.498  34.667  54.495  0.00  0.00     0.004 A 
ATOM     23  C   UNL d   1      53.047  34.992  55.093  0.00  0.00     0.000 A 
ATOM     24  C   UNL d   1      52.884  35.801  55.090  0.00  0.00     0.000 A 
ATOM     25  C   UNL d   1      53.175  36.267  54.490  0.00  0.00     0.000 A 
ATOM     26  C   UNL d   1      53.629  35.934  53.889  0.00  0.00     0.000 A 
ATOM     27  C   UNL d   1      53.785  35.137  53.899  0.00  0.00     0.000 A 
ENDBRANCH   5  22
TORSDOF 4
ENDMDL
