MODEL 1
REMARK VINA RESULT:      90.4      0.000      0.000
REMARK  7 active torsions:
REMARK  status: ('A' for Active; 'I' for Inactive)
REMARK    1  A    between atoms: C_2  and  C_1 
REMARK    2  A    between atoms: O_13  and  C_11 
REMARK    3  A    between atoms: C_18  and  O_13 
REMARK    4  A    between atoms: C_15  and  C_18 
REMARK       I    between atoms: N_21  and  C_15 
REMARK    5  A    between atoms: C_23  and  C_16 
REMARK    6  A    between atoms: C_26  and  N_21 
REMARK    7  A    between atoms: C_27  and  C_26 
ROOT
ATOM      1  C   UNL d   1     -56.080-100.292 -43.910  0.00  0.00     0.087 A 
ATOM      2  C   UNL d   1     -55.486-100.742 -43.554  0.00  0.00     0.201 A 
ATOM      3  C   UNL d   1     -55.673-101.217 -42.893  0.00  0.00     0.062 A 
ATOM      4  C   UNL d   1     -56.847-100.309 -43.618  0.00  0.00     0.128 A 
ATOM      5  C   UNL d   1     -56.440-101.234 -42.602  0.00  0.00     0.105 A 
ATOM      6  O   UNL d   1     -57.047-100.777 -42.961  0.00  0.00    -0.305 OA
ATOM      7  C   UNL d   1     -55.080-101.667 -42.539  0.00  0.00     0.007 A 
ATOM      8  C   UNL d   1     -56.037-102.151 -41.594  0.00  0.00     0.102 A 
ATOM      9  C   UNL d   1     -56.641-101.702 -41.946  0.00  0.00     0.050 A 
ATOM     10  C   UNL d   1     -55.270-102.134 -41.886  0.00  0.00     0.023 A 
ATOM     11  O   UNL d   1     -54.719-100.725 -43.845  0.00  0.00    -0.286 OA
ENDROOT
BRANCH   8  12
ATOM     12  O   UNL d   1     -56.236-102.623 -40.933  0.00  0.00    -0.302 OA
BRANCH  12  13
ATOM     13  C   UNL d   1     -55.766-102.608 -40.269  0.00  0.00     0.158 C 
ATOM     14  C   UNL d   1     -54.941-102.645 -40.328  0.00  0.00     0.032 C 
BRANCH  13  15
ATOM     15  C   UNL d   1     -56.116-102.554 -39.508  0.00  0.00     0.302 C 
ATOM     16  O   UNL d   1     -56.927-102.451 -39.444  0.00  0.00    -0.263 OA
ATOM     17  N   UNL d   1     -55.636-102.606 -38.857  0.00  0.00    -0.201 NA
BRANCH  17  18
ATOM     18  C   UNL d   1     -55.911-102.562 -38.140  0.00  0.00     0.148 C 
BRANCH  18  19
ATOM     19  C   UNL d   1     -55.339-102.798 -37.429  0.00  0.00     0.255 C 
ATOM     20  O   UNL d   1     -55.591-102.813 -36.647  0.00  0.00    -0.281 OA
ENDBRANCH  18  19
ENDBRANCH  17  18
ENDBRANCH  13  15
ENDBRANCH  12  13
ENDBRANCH   8  12
BRANCH  10  21
ATOM     21  C   UNL d   1     -54.752-102.554 -41.542  0.00  0.00     0.002 C 
ATOM     22  C   UNL d   1     -54.736-102.605 -40.788  0.00  0.00     0.000 C 
ENDBRANCH  10  21
BRANCH   1  23
ATOM     23  C   UNL d   1     -55.891 -99.821 -44.566  0.00  0.00     0.116 A 
ATOM     24  N   UNL d   1     -55.188 -99.607 -44.915  0.00  0.00    -0.238 NA
ATOM     25  C   UNL d   1     -55.351 -99.122 -45.562  0.00  0.00     0.088 A 
ATOM     26  C   UNL d   1     -54.806 -98.763 -46.095  0.00  0.00     0.021 C 
ATOM     27  C   UNL d   1     -56.129 -99.035 -45.616  0.00  0.00     0.056 A 
ATOM     28  S   UNL d   1     -56.501 -99.468 -44.996  0.00  0.00    -0.066 SA
ENDBRANCH   1  23
TORSDOF 7
ENDMDL
