MODEL 1
REMARK VINA RESULT:      -3.5      0.000      0.000
REMARK  1 active torsions:
REMARK  status: ('A' for Active; 'I' for Inactive)
REMARK    1  A    between atoms: C_12  and  N_4 
ROOT
ATOM      1  C   UNL d   1      30.831  16.910 -24.094  0.00  0.00     0.081 A 
ATOM      2  C   UNL d   1      30.615  17.402 -24.676  0.00  0.00     0.118 A 
ATOM      3  C   UNL d   1      31.618  16.896 -23.829  0.00  0.00     0.268 A 
ATOM      4  N   UNL d   1      32.164  17.397 -24.180  0.00  0.00    -0.249 N 
ATOM      5  N   UNL d   1      31.158  17.896 -25.020  0.00  0.00    -0.212 NA
ATOM      6  C   UNL d   1      31.962  17.892 -24.761  0.00  0.00     0.209 A 
ATOM      7  S   UNL d   1      29.811  17.328 -24.854  0.00  0.00    -0.068 SA
ATOM      8  C   UNL d   1      30.145  16.490 -23.873  0.00  0.00     0.013 A 
ATOM      9  C   UNL d   1      29.503  16.749 -24.347  0.00  0.00     0.031 A 
ATOM     10  S   UNL d   1      32.546  18.384 -25.089  0.00  0.00    -0.038 SA
ATOM     11  O   UNL d   1      31.867  16.391 -23.223  0.00  0.00    -0.267 OA
ATOM     12  C   UNL d   1      30.199  15.943 -23.285  0.00  0.00     0.001 A 
ATOM     13  C   UNL d   1      28.735  16.467 -24.297  0.00  0.00     0.006 A 
ATOM     14  C   UNL d   1      29.570  15.469 -22.989  0.00  0.00     0.000 A 
ATOM     15  C   UNL d   1      28.413  15.903 -23.810  0.00  0.00     0.001 A 
ATOM     16  C   UNL d   1      28.779  15.453 -23.223  0.00  0.00     0.000 A 
ENDROOT
BRANCH   4  17
ATOM     17  C   UNL d   1      32.971  17.389 -23.916  0.00  0.00     0.085 C 
ATOM     18  C   UNL d   1      33.198  17.873 -23.294  0.00  0.00     0.021 C 
ENDBRANCH   4  17
TORSDOF 1
ENDMDL
MODEL 2
REMARK VINA RESULT:      -3.4      1.160      1.599
REMARK  1 active torsions:
REMARK  status: ('A' for Active; 'I' for Inactive)
REMARK    1  A    between atoms: C_12  and  N_4 
ROOT
ATOM      1  C   UNL d   1      30.775  16.608 -23.954  0.00  0.00     0.081 A 
ATOM      2  C   UNL d   1      31.167  16.019 -23.597  0.00  0.00     0.118 A 
ATOM      3  C   UNL d   1      31.190  17.199 -24.364  0.00  0.00     0.268 A 
ATOM      4  N   UNL d   1      32.008  17.162 -24.392  0.00  0.00    -0.249 N 
ATOM      5  N   UNL d   1      31.977  15.986 -23.628  0.00  0.00    -0.212 NA
ATOM      6  C   UNL d   1      32.412  16.581 -24.041  0.00  0.00     0.209 A 
ATOM      7  S   UNL d   1      30.651  15.493 -23.223  0.00  0.00    -0.068 SA
ATOM      8  C   UNL d   1      29.964  16.470 -23.813  0.00  0.00     0.013 A 
ATOM      9  C   UNL d   1      29.882  15.772 -23.355  0.00  0.00     0.031 A 
ATOM     10  S   UNL d   1      33.241  16.581 -24.094  0.00  0.00    -0.038 SA
ATOM     11  O   UNL d   1      30.802  17.823 -24.744  0.00  0.00    -0.267 OA
ATOM     12  C   UNL d   1      29.426  16.987 -24.115  0.00  0.00     0.001 A 
ATOM     13  C   UNL d   1      29.170  15.453 -23.103  0.00  0.00     0.006 A 
ATOM     14  C   UNL d   1      28.591  16.939 -24.030  0.00  0.00     0.000 A 
ATOM     15  C   UNL d   1      28.409  15.709 -23.221  0.00  0.00     0.001 A 
ATOM     16  C   UNL d   1      28.141  16.371 -23.633  0.00  0.00     0.000 A 
ENDROOT
BRANCH   4  17
ATOM     17  C   UNL d   1      32.441  17.762 -24.809  0.00  0.00     0.085 C 
ATOM     18  C   UNL d   1      32.680  18.438 -24.412  0.00  0.00     0.021 C 
ENDBRANCH   4  17
TORSDOF 1
ENDMDL
MODEL 3
REMARK VINA RESULT:      -3.1      1.543      3.559
REMARK  1 active torsions:
REMARK  status: ('A' for Active; 'I' for Inactive)
REMARK    1  A    between atoms: C_12  and  N_4 
ROOT
ATOM      1  C   UNL d   1      30.727  16.838 -24.127  0.00  0.00     0.081 A 
ATOM      2  C   UNL d   1      30.915  16.213 -23.677  0.00  0.00     0.118 A 
ATOM      3  C   UNL d   1      29.931  17.017 -24.284  0.00  0.00     0.268 A 
ATOM      4  N   UNL d   1      29.347  16.537 -23.966  0.00  0.00    -0.249 N 
ATOM      5  N   UNL d   1      30.333  15.742 -23.364  0.00  0.00    -0.212 NA
ATOM      6  C   UNL d   1      29.520  15.912 -23.516  0.00  0.00     0.209 A 
ATOM      7  S   UNL d   1      31.733  16.135 -23.591  0.00  0.00    -0.068 SA
ATOM      8  C   UNL d   1      31.448  17.192 -24.351  0.00  0.00     0.013 A 
ATOM      9  C   UNL d   1      32.081  16.755 -24.017  0.00  0.00     0.031 A 
ATOM     10  S   UNL d   1      28.897  15.453 -23.213  0.00  0.00    -0.038 SA
ATOM     11  O   UNL d   1      29.712  17.663 -24.751  0.00  0.00    -0.267 OA
ATOM     12  C   UNL d   1      31.429  17.848 -24.817  0.00  0.00     0.001 A 
ATOM     13  C   UNL d   1      32.877  16.929 -24.110  0.00  0.00     0.006 A 
ATOM     14  C   UNL d   1      32.095  18.278 -25.097  0.00  0.00     0.000 A 
ATOM     15  C   UNL d   1      33.239  17.528 -24.522  0.00  0.00     0.001 A 
ATOM     16  C   UNL d   1      32.897  18.134 -24.965  0.00  0.00     0.000 A 
ENDROOT
BRANCH   4  17
ATOM     17  C   UNL d   1      28.531  16.712 -24.121  0.00  0.00     0.085 C 
ATOM     18  C   UNL d   1      28.084  17.097 -23.551  0.00  0.00     0.021 C 
ENDBRANCH   4  17
TORSDOF 1
ENDMDL
MODEL 4
REMARK VINA RESULT:      -2.8      4.364      5.724
REMARK  1 active torsions:
REMARK  status: ('A' for Active; 'I' for Inactive)
REMARK    1  A    between atoms: C_12  and  N_4 
ROOT
ATOM      1  C   UNL d   1      33.234  20.979 -21.916  0.00  0.00     0.081 A 
ATOM      2  C   UNL d   1      33.235  20.628 -21.205  0.00  0.00     0.118 A 
ATOM      3  C   UNL d   1      33.232  21.807 -21.974  0.00  0.00     0.268 A 
ATOM      4  N   UNL d   1      33.230  22.253 -21.286  0.00  0.00    -0.249 N 
ATOM      5  N   UNL d   1      33.234  21.074 -20.527  0.00  0.00    -0.212 NA
ATOM      6  C   UNL d   1      33.231  21.917 -20.571  0.00  0.00     0.209 A 
ATOM      7  S   UNL d   1      33.237  19.805 -21.272  0.00  0.00    -0.068 SA
ATOM      8  C   UNL d   1      33.236  20.365 -22.481  0.00  0.00     0.013 A 
ATOM      9  C   UNL d   1      33.238  19.627 -22.081  0.00  0.00     0.031 A 
ATOM     10  S   UNL d   1      33.230  22.406 -19.899  0.00  0.00    -0.038 SA
ATOM     11  O   UNL d   1      33.231  22.195 -22.704  0.00  0.00    -0.267 OA
ATOM     12  C   UNL d   1      33.236  20.559 -23.262  0.00  0.00     0.001 A 
ATOM     13  C   UNL d   1      33.240  18.893 -22.445  0.00  0.00     0.006 A 
ATOM     14  C   UNL d   1      33.237  20.019 -23.907  0.00  0.00     0.000 A 
ATOM     15  C   UNL d   1      33.241  18.697 -23.234  0.00  0.00     0.001 A 
ATOM     16  C   UNL d   1      33.240  19.194 -23.892  0.00  0.00     0.000 A 
ENDROOT
BRANCH   4  17
ATOM     17  C   UNL d   1      33.228  23.101 -21.335  0.00  0.00     0.085 C 
ATOM     18  C   UNL d   1      32.514  23.504 -21.337  0.00  0.00     0.021 C 
ENDBRANCH   4  17
TORSDOF 1
ENDMDL
MODEL 5
REMARK VINA RESULT:      -2.7      3.563      5.531
REMARK  1 active torsions:
REMARK  status: ('A' for Active; 'I' for Inactive)
REMARK    1  A    between atoms: C_12  and  N_4 
ROOT
ATOM      1  C   UNL d   1      33.235  20.400 -22.375  0.00  0.00     0.081 A 
ATOM      2  C   UNL d   1      33.235  19.874 -21.783  0.00  0.00     0.118 A 
ATOM      3  C   UNL d   1      33.237  20.142 -23.164  0.00  0.00     0.268 A 
ATOM      4  N   UNL d   1      33.239  19.337 -23.318  0.00  0.00    -0.249 N 
ATOM      5  N   UNL d   1      33.237  19.078 -21.940  0.00  0.00    -0.212 NA
ATOM      6  C   UNL d   1      33.239  18.801 -22.738  0.00  0.00     0.209 A 
ATOM      7  S   UNL d   1      33.233  20.246 -21.045  0.00  0.00    -0.068 SA
ATOM      8  C   UNL d   1      33.233  21.155 -22.020  0.00  0.00     0.013 A 
ATOM      9  C   UNL d   1      33.231  21.062 -21.185  0.00  0.00     0.031 A 
ATOM     10  S   UNL d   1      33.241  17.995 -22.938  0.00  0.00    -0.038 SA
ATOM     11  O   UNL d   1      33.237  20.673 -23.799  0.00  0.00    -0.267 OA
ATOM     12  C   UNL d   1      33.232  21.806 -22.493  0.00  0.00     0.001 A 
ATOM     13  C   UNL d   1      33.229  21.676 -20.642  0.00  0.00     0.006 A 
ATOM     14  C   UNL d   1      33.230  22.606 -22.236  0.00  0.00     0.000 A 
ATOM     15  C   UNL d   1      33.228  22.480 -20.757  0.00  0.00     0.001 A 
ATOM     16  C   UNL d   1      33.228  22.903 -21.466  0.00  0.00     0.000 A 
ENDROOT
BRANCH   4  17
ATOM     17  C   UNL d   1      33.240  19.063 -24.123  0.00  0.00     0.085 C 
ATOM     18  C   UNL d   1      32.537  18.829 -24.472  0.00  0.00     0.021 C 
ENDBRANCH   4  17
TORSDOF 1
ENDMDL
MODEL 6
REMARK VINA RESULT:      -2.5      3.436      4.411
REMARK  1 active torsions:
REMARK  status: ('A' for Active; 'I' for Inactive)
REMARK    1  A    between atoms: C_12  and  N_4 
ROOT
ATOM      1  C   UNL d   1      33.224  19.822 -22.718  0.00  0.00     0.081 A 
ATOM      2  C   UNL d   1      33.235  20.292 -23.356  0.00  0.00     0.118 A 
ATOM      3  C   UNL d   1      33.217  20.151 -21.956  0.00  0.00     0.268 A 
ATOM      4  N   UNL d   1      33.223  20.967 -21.876  0.00  0.00    -0.249 N 
ATOM      5  N   UNL d   1      33.241  21.099 -23.272  0.00  0.00    -0.212 NA
ATOM      6  C   UNL d   1      33.235  21.447 -22.502  0.00  0.00     0.209 A 
ATOM      7  S   UNL d   1      33.240  19.854 -24.056  0.00  0.00    -0.068 SA
ATOM      8  C   UNL d   1      33.221  19.038 -23.003  0.00  0.00     0.013 A 
ATOM      9  C   UNL d   1      33.231  19.054 -23.842  0.00  0.00     0.031 A 
ATOM     10  S   UNL d   1      33.240  22.268 -22.377  0.00  0.00    -0.038 SA
ATOM     11  O   UNL d   1      33.205  19.680 -21.276  0.00  0.00    -0.267 OA
ATOM     12  C   UNL d   1      33.209  18.433 -22.472  0.00  0.00     0.001 A 
ATOM     13  C   UNL d   1      33.231  18.393 -24.327  0.00  0.00     0.006 A 
ATOM     14  C   UNL d   1      33.204  17.612 -22.656  0.00  0.00     0.000 A 
ATOM     15  C   UNL d   1      33.222  17.603 -24.139  0.00  0.00     0.001 A 
ATOM     16  C   UNL d   1      33.210  17.246 -23.395  0.00  0.00     0.000 A 
ENDROOT
BRANCH   4  17
ATOM     17  C   UNL d   1      33.217  21.312 -21.100  0.00  0.00     0.085 C 
ATOM     18  C   UNL d   1      32.501  21.455 -20.726  0.00  0.00     0.021 C 
ENDBRANCH   4  17
TORSDOF 1
ENDMDL
MODEL 7
REMARK VINA RESULT:      -2.2      2.537      4.217
REMARK  1 active torsions:
REMARK  status: ('A' for Active; 'I' for Inactive)
REMARK    1  A    between atoms: C_12  and  N_4 
ROOT
ATOM      1  C   UNL d   1      33.227  18.794 -23.064  0.00  0.00     0.081 A 
ATOM      2  C   UNL d   1      33.231  19.069 -23.807  0.00  0.00     0.118 A 
ATOM      3  C   UNL d   1      33.221  17.976 -22.921  0.00  0.00     0.268 A 
ATOM      4  N   UNL d   1      33.219  17.461 -23.559  0.00  0.00    -0.249 N 
ATOM      5  N   UNL d   1      33.228  18.556 -24.435  0.00  0.00    -0.212 NA
ATOM      6  C   UNL d   1      33.222  17.722 -24.304  0.00  0.00     0.209 A 
ATOM      7  S   UNL d   1      33.236  19.895 -23.825  0.00  0.00    -0.068 SA
ATOM      8  C   UNL d   1      33.230  19.462 -22.565  0.00  0.00     0.013 A 
ATOM      9  C   UNL d   1      33.236  20.155 -23.039  0.00  0.00     0.031 A 
ATOM     10  S   UNL d   1      33.220  17.166 -24.923  0.00  0.00    -0.038 SA
ATOM     11  O   UNL d   1      33.217  17.665 -22.154  0.00  0.00    -0.267 OA
ATOM     12  C   UNL d   1      33.228  19.350 -21.768  0.00  0.00     0.001 A 
ATOM     13  C   UNL d   1      33.241  20.923 -22.752  0.00  0.00     0.006 A 
ATOM     14  C   UNL d   1      33.231  19.954 -21.182  0.00  0.00     0.000 A 
ATOM     15  C   UNL d   1      33.241  21.199 -21.988  0.00  0.00     0.001 A 
ATOM     16  C   UNL d   1      33.236  20.773 -21.282  0.00  0.00     0.000 A 
ENDROOT
BRANCH   4  17
ATOM     17  C   UNL d   1      33.213  16.623 -23.422  0.00  0.00     0.085 C 
ATOM     18  C   UNL d   1      32.500  16.219 -23.416  0.00  0.00     0.021 C 
ENDBRANCH   4  17
TORSDOF 1
ENDMDL
MODEL 8
REMARK VINA RESULT:      -1.7      5.769      6.888
REMARK  1 active torsions:
REMARK  status: ('A' for Active; 'I' for Inactive)
REMARK    1  A    between atoms: C_12  and  N_4 
ROOT
ATOM      1  C   UNL d   1      33.154  22.422 -21.965  0.00  0.00     0.081 A 
ATOM      2  C   UNL d   1      33.157  21.631 -22.002  0.00  0.00     0.118 A 
ATOM      3  C   UNL d   1      33.180  22.874 -22.662  0.00  0.00     0.268 A 
ATOM      4  N   UNL d   1      33.208  22.487 -23.384  0.00  0.00    -0.249 N 
ATOM      5  N   UNL d   1      33.185  21.252 -22.719  0.00  0.00    -0.212 NA
ATOM      6  C   UNL d   1      33.212  21.699 -23.435  0.00  0.00     0.209 A 
ATOM      7  S   UNL d   1      33.129  21.291 -21.249  0.00  0.00    -0.068 SA
ATOM      8  C   UNL d   1      33.123  22.621 -21.156  0.00  0.00     0.013 A 
ATOM      9  C   UNL d   1      33.107  21.914 -20.703  0.00  0.00     0.031 A 
ATOM     10  S   UNL d   1      33.241  21.347 -24.188  0.00  0.00    -0.038 SA
ATOM     11  O   UNL d   1      33.178  23.701 -22.649  0.00  0.00    -0.267 OA
ATOM     12  C   UNL d   1      33.113  23.399 -20.948  0.00  0.00     0.001 A 
ATOM     13  C   UNL d   1      33.076  21.878 -19.885  0.00  0.00     0.006 A 
ATOM     14  C   UNL d   1      33.083  23.702 -20.164  0.00  0.00     0.000 A 
ATOM     15  C   UNL d   1      33.053  22.473 -19.333  0.00  0.00     0.001 A 
ATOM     16  C   UNL d   1      33.056  23.290 -19.449  0.00  0.00     0.000 A 
ENDROOT
BRANCH   4  17
ATOM     17  C   UNL d   1      33.235  22.940 -24.102  0.00  0.00     0.085 C 
ATOM     18  C   UNL d   1      32.535  23.147 -24.476  0.00  0.00     0.021 C 
ENDBRANCH   4  17
TORSDOF 1
ENDMDL
MODEL 9
REMARK VINA RESULT:      -0.6      4.200      5.959
REMARK  1 active torsions:
REMARK  status: ('A' for Active; 'I' for Inactive)
REMARK    1  A    between atoms: C_12  and  N_4 
ROOT
ATOM      1  C   UNL d   1      33.058  21.263 -22.591  0.00  0.00     0.081 A 
ATOM      2  C   UNL d   1      33.051  21.508 -21.838  0.00  0.00     0.118 A 
ATOM      3  C   UNL d   1      33.119  20.454 -22.768  0.00  0.00     0.268 A 
ATOM      4  N   UNL d   1      33.173  19.916 -22.151  0.00  0.00    -0.249 N 
ATOM      5  N   UNL d   1      33.104  20.972 -21.231  0.00  0.00    -0.212 NA
ATOM      6  C   UNL d   1      33.167  20.146 -21.396  0.00  0.00     0.209 A 
ATOM      7  S   UNL d   1      32.987  22.330 -21.785  0.00  0.00    -0.068 SA
ATOM      8  C   UNL d   1      32.995  21.949 -23.062  0.00  0.00     0.013 A 
ATOM      9  C   UNL d   1      32.950  22.620 -22.560  0.00  0.00     0.031 A 
ATOM     10  S   UNL d   1      33.224  19.568 -20.802  0.00  0.00    -0.038 SA
ATOM     11  O   UNL d   1      33.128  20.175 -23.547  0.00  0.00    -0.267 OA
ATOM     12  C   UNL d   1      32.988  21.869 -23.863  0.00  0.00     0.001 A 
ATOM     13  C   UNL d   1      32.884  23.397 -22.815  0.00  0.00     0.006 A 
ATOM     14  C   UNL d   1      32.928  22.493 -24.423  0.00  0.00     0.000 A 
ATOM     15  C   UNL d   1      32.847  23.702 -23.567  0.00  0.00     0.001 A 
ATOM     16  C   UNL d   1      32.866  23.305 -24.290  0.00  0.00     0.000 A 
ENDROOT
BRANCH   4  17
ATOM     17  C   UNL d   1      33.236  19.087 -22.322  0.00  0.00     0.085 C 
ATOM     18  C   UNL d   1      32.585  18.683 -22.614  0.00  0.00     0.021 C 
ENDBRANCH   4  17
TORSDOF 1
ENDMDL
