MODEL 1
REMARK VINA RESULT:      -8.7      0.000      0.000
REMARK  4 active torsions:
REMARK  status: ('A' for Active; 'I' for Inactive)
REMARK       I    between atoms: C_2  and  N_1 
REMARK       I    between atoms: N_8  and  C_2 
REMARK    1  A    between atoms: C_12  and  N_8 
REMARK    2  A    between atoms: C_9  and  C_12 
REMARK    3  A    between atoms: O_13  and  C_9 
REMARK    4  A    between atoms: C_18  and  O_13 
ROOT
ATOM      1  N   UNL d   1     -49.033  13.927  23.223  0.00  0.00    -0.258 N 
ATOM      2  C   UNL d   1     -48.287  14.228  23.045  0.00  0.00     0.354 C 
ATOM      3  S   UNL d   1     -50.538  13.320  23.581  0.00  0.00    -0.084 SA
ATOM      4  C   UNL d   1     -49.671  14.438  23.332  0.00  0.00     0.074 A 
ATOM      5  C   UNL d   1     -49.141  13.112  23.291  0.00  0.00     0.074 A 
ATOM      6  C   UNL d   1     -50.424  14.139  23.511  0.00  0.00     0.046 A 
ATOM      7  C   UNL d   1     -49.897  12.807  23.471  0.00  0.00     0.046 A 
ATOM      8  N   UNL d   1     -47.645  13.708  22.935  0.00  0.00    -0.185 NA
ATOM      9  O   UNL d   1     -48.178  15.040  22.977  0.00  0.00    -0.244 OA
ATOM     10  C   UNL d   1     -49.555  15.247  23.263  0.00  0.00     0.018 A 
ATOM     11  C   UNL d   1     -48.504  12.610  23.181  0.00  0.00     0.018 A 
ATOM     12  C   UNL d   1     -50.009  12.003  23.539  0.00  0.00     0.008 A 
ATOM     13  C   UNL d   1     -51.059  14.654  23.620  0.00  0.00     0.008 A 
ATOM     14  C   UNL d   1     -50.186  15.772  23.370  0.00  0.00     0.002 A 
ATOM     15  C   UNL d   1     -48.618  11.779  23.251  0.00  0.00     0.002 A 
ATOM     16  C   UNL d   1     -49.372  11.481  23.431  0.00  0.00     0.001 A 
ATOM     17  C   UNL d   1     -50.935  15.475  23.548  0.00  0.00     0.001 A 
ENDROOT
BRANCH   8  18
ATOM     18  C   UNL d   1     -46.876  14.018  22.752  0.00  0.00     0.172 C 
BRANCH  18  19
ATOM     19  C   UNL d   1     -46.223  13.540  22.844  0.00  0.00     0.320 C 
ATOM     20  O   UNL d   1     -45.964  13.347  23.601  0.00  0.00    -0.257 OA
BRANCH  19  21
ATOM     21  O   UNL d   1     -45.828  13.254  22.193  0.00  0.00    -0.270 OA
BRANCH  21  22
ATOM     22  C   UNL d   1     -44.994  13.207  22.198  0.00  0.00     0.126 C 
ATOM     23  C   UNL d   1     -44.598  12.872  21.563  0.00  0.00     0.029 C 
ENDBRANCH  21  22
ENDBRANCH  19  21
ENDBRANCH  18  19
ENDBRANCH   8  18
TORSDOF 4
ENDMDL
MODEL 2
REMARK VINA RESULT:      -6.8      1.325      3.933
REMARK  4 active torsions:
REMARK  status: ('A' for Active; 'I' for Inactive)
REMARK       I    between atoms: C_2  and  N_1 
REMARK       I    between atoms: N_8  and  C_2 
REMARK    1  A    between atoms: C_12  and  N_8 
REMARK    2  A    between atoms: C_9  and  C_12 
REMARK    3  A    between atoms: O_13  and  C_9 
REMARK    4  A    between atoms: C_18  and  O_13 
ROOT
ATOM      1  N   UNL d   1     -47.279  12.999  22.869  0.00  0.00    -0.258 N 
ATOM      2  C   UNL d   1     -47.515  13.751  22.627  0.00  0.00     0.354 C 
ATOM      3  S   UNL d   1     -46.802  11.484  23.357  0.00  0.00    -0.084 SA
ATOM      4  C   UNL d   1     -46.483  12.784  22.837  0.00  0.00     0.074 A 
ATOM      5  C   UNL d   1     -47.841  12.461  23.144  0.00  0.00     0.074 A 
ATOM      6  C   UNL d   1     -46.242  12.028  23.080  0.00  0.00     0.046 A 
ATOM      7  C   UNL d   1     -47.602  11.700  23.390  0.00  0.00     0.046 A 
ATOM      8  N   UNL d   1     -48.320  13.964  22.661  0.00  0.00    -0.185 NA
ATOM      9  O   UNL d   1     -46.956  14.287  22.353  0.00  0.00    -0.244 OA
ATOM     10  C   UNL d   1     -45.931  13.324  22.562  0.00  0.00     0.018 A 
ATOM     11  C   UNL d   1     -48.629  12.681  23.174  0.00  0.00     0.018 A 
ATOM     12  C   UNL d   1     -48.152  11.165  23.662  0.00  0.00     0.008 A 
ATOM     13  C   UNL d   1     -45.445  11.818  23.046  0.00  0.00     0.008 A 
ATOM     14  C   UNL d   1     -45.130  13.122  22.524  0.00  0.00     0.002 A 
ATOM     15  C   UNL d   1     -49.199  12.129  23.455  0.00  0.00     0.002 A 
ATOM     16  C   UNL d   1     -48.956  11.373  23.698  0.00  0.00     0.001 A 
ATOM     17  C   UNL d   1     -44.888  12.371  22.765  0.00  0.00     0.001 A 
ENDROOT
BRANCH   8  18
ATOM     18  C   UNL d   1     -48.563  14.738  22.412  0.00  0.00     0.172 C 
BRANCH  18  19
ATOM     19  C   UNL d   1     -49.356  14.925  22.414  0.00  0.00     0.320 C 
ATOM     20  O   UNL d   1     -49.805  14.797  21.736  0.00  0.00    -0.257 OA
BRANCH  19  21
ATOM     21  O   UNL d   1     -49.703  15.235  23.080  0.00  0.00    -0.270 OA
BRANCH  21  22
ATOM     22  C   UNL d   1     -50.472  15.561  23.038  0.00  0.00     0.126 C 
ATOM     23  C   UNL d   1     -50.804  15.914  23.698  0.00  0.00     0.029 C 
ENDBRANCH  21  22
ENDBRANCH  19  21
ENDBRANCH  18  19
ENDBRANCH   8  18
TORSDOF 4
ENDMDL
MODEL 3
REMARK VINA RESULT:      -5.8      0.926      2.215
REMARK  4 active torsions:
REMARK  status: ('A' for Active; 'I' for Inactive)
REMARK       I    between atoms: C_2  and  N_1 
REMARK       I    between atoms: N_8  and  C_2 
REMARK    1  A    between atoms: C_12  and  N_8 
REMARK    2  A    between atoms: C_9  and  C_12 
REMARK    3  A    between atoms: O_13  and  C_9 
REMARK    4  A    between atoms: C_18  and  O_13 
ROOT
ATOM      1  N   UNL d   1     -48.924  13.112  23.141  0.00  0.00    -0.258 N 
ATOM      2  C   UNL d   1     -48.190  12.739  23.143  0.00  0.00     0.354 C 
ATOM      3  S   UNL d   1     -50.407  13.864  23.137  0.00  0.00    -0.084 SA
ATOM      4  C   UNL d   1     -49.606  12.686  23.325  0.00  0.00     0.074 A 
ATOM      5  C   UNL d   1     -48.977  13.913  22.953  0.00  0.00     0.074 A 
ATOM      6  C   UNL d   1     -50.348  13.058  23.325  0.00  0.00     0.046 A 
ATOM      7  C   UNL d   1     -49.722  14.291  22.951  0.00  0.00     0.046 A 
ATOM      8  N   UNL d   1     -47.504  13.173  22.956  0.00  0.00    -0.185 NA
ATOM      9  O   UNL d   1     -48.137  11.940  23.329  0.00  0.00    -0.244 OA
ATOM     10  C   UNL d   1     -49.545  11.889  23.511  0.00  0.00     0.018 A 
ATOM     11  C   UNL d   1     -48.297  14.331  22.771  0.00  0.00     0.018 A 
ATOM     12  C   UNL d   1     -49.779  15.083  22.767  0.00  0.00     0.008 A 
ATOM     13  C   UNL d   1     -51.027  12.628  23.510  0.00  0.00     0.008 A 
ATOM     14  C   UNL d   1     -50.221  11.449  23.698  0.00  0.00     0.002 A 
ATOM     15  C   UNL d   1     -48.355  15.148  22.580  0.00  0.00     0.002 A 
ATOM     16  C   UNL d   1     -49.098  15.519  22.579  0.00  0.00     0.001 A 
ATOM     17  C   UNL d   1     -50.959  11.818  23.697  0.00  0.00     0.001 A 
ENDROOT
BRANCH   8  18
ATOM     18  C   UNL d   1     -46.747  12.788  22.958  0.00  0.00     0.172 C 
BRANCH  18  19
ATOM     19  C   UNL d   1     -46.072  13.241  22.898  0.00  0.00     0.320 C 
ATOM     20  O   UNL d   1     -45.821  13.684  23.545  0.00  0.00    -0.257 OA
BRANCH  19  21
ATOM     21  O   UNL d   1     -45.647  13.256  22.205  0.00  0.00    -0.270 OA
BRANCH  21  22
ATOM     22  C   UNL d   1     -44.823  13.116  22.217  0.00  0.00     0.126 C 
ATOM     23  C   UNL d   1     -44.431  12.917  21.525  0.00  0.00     0.029 C 
ENDBRANCH  21  22
ENDBRANCH  19  21
ENDBRANCH  18  19
ENDBRANCH   8  18
TORSDOF 4
ENDMDL
MODEL 4
REMARK VINA RESULT:      -5.7      9.256     10.163
REMARK  4 active torsions:
REMARK  status: ('A' for Active; 'I' for Inactive)
REMARK       I    between atoms: C_2  and  N_1 
REMARK       I    between atoms: N_8  and  C_2 
REMARK    1  A    between atoms: C_12  and  N_8 
REMARK    2  A    between atoms: C_9  and  C_12 
REMARK    3  A    between atoms: O_13  and  C_9 
REMARK    4  A    between atoms: C_18  and  O_13 
ROOT
ATOM      1  N   UNL d   1     -39.940  14.708  18.642  0.00  0.00    -0.258 N 
ATOM      2  C   UNL d   1     -40.171  14.907  19.407  0.00  0.00     0.354 C 
ATOM      3  S   UNL d   1     -39.476  14.305  17.097  0.00  0.00    -0.084 SA
ATOM      4  C   UNL d   1     -40.325  15.040  17.992  0.00  0.00     0.074 A 
ATOM      5  C   UNL d   1     -39.322  14.173  18.525  0.00  0.00     0.074 A 
ATOM      6  C   UNL d   1     -40.096  14.842  17.220  0.00  0.00     0.046 A 
ATOM      7  C   UNL d   1     -39.089  13.971  17.750  0.00  0.00     0.046 A 
ATOM      8  N   UNL d   1     -39.779  14.569  20.060  0.00  0.00    -0.185 NA
ATOM      9  O   UNL d   1     -40.786  15.439  19.523  0.00  0.00    -0.244 OA
ATOM     10  C   UNL d   1     -40.938  15.570  18.116  0.00  0.00     0.018 A 
ATOM     11  C   UNL d   1     -38.944  13.846  19.173  0.00  0.00     0.018 A 
ATOM     12  C   UNL d   1     -38.480  13.444  17.629  0.00  0.00     0.008 A 
ATOM     13  C   UNL d   1     -40.484  15.177  16.574  0.00  0.00     0.008 A 
ATOM     14  C   UNL d   1     -41.334  15.912  17.475  0.00  0.00     0.002 A 
ATOM     15  C   UNL d   1     -38.315  13.302  19.050  0.00  0.00     0.002 A 
ATOM     16  C   UNL d   1     -38.086  13.104  18.277  0.00  0.00     0.001 A 
ATOM     17  C   UNL d   1     -41.107  15.716  16.706  0.00  0.00     0.001 A 
ENDROOT
BRANCH   8  18
ATOM     18  C   UNL d   1     -40.016  14.774  20.849  0.00  0.00     0.172 C 
BRANCH  18  19
ATOM     19  C   UNL d   1     -39.625  14.441  21.480  0.00  0.00     0.320 C 
ATOM     20  O   UNL d   1     -39.834  13.687  21.736  0.00  0.00    -0.257 OA
BRANCH  19  21
ATOM     21  O   UNL d   1     -39.032  14.850  21.858  0.00  0.00    -0.270 OA
BRANCH  21  22
ATOM     22  C   UNL d   1     -38.910  14.747  22.678  0.00  0.00     0.126 C 
ATOM     23  C   UNL d   1     -38.327  15.175  23.063  0.00  0.00     0.029 C 
ENDBRANCH  21  22
ENDBRANCH  19  21
ENDBRANCH  18  19
ENDBRANCH   8  18
TORSDOF 4
ENDMDL
