MODEL 1
REMARK VINA RESULT:      -3.6      0.000      0.000
REMARK  4 active torsions:
REMARK  status: ('A' for Active; 'I' for Inactive)
REMARK    1  A    between atoms: N_2  and  S_1 
REMARK    2  A    between atoms: C_6  and  S_1 
REMARK       I    between atoms: C_3  and  N_5 
REMARK    3  A    between atoms: C_7  and  C_3 
REMARK    4  A    between atoms: C_4  and  C_8 
ROOT
ATOM      1  N   UNL d   1      31.302  16.659 -24.377  0.00  0.00    -0.226 N 
ATOM      2  C   UNL d   1      32.751  18.324 -23.281  0.00  0.00     0.288 C 
ATOM      3  N   UNL d   1      32.267  17.765 -23.644  0.00  0.00    -0.267 N 
ATOM      4  C   UNL d   1      31.471  17.373 -24.753  0.00  0.00     0.111 A 
ATOM      5  C   UNL d   1      31.621  16.500 -23.625  0.00  0.00     0.111 A 
ATOM      6  C   UNL d   1      32.105  17.059 -23.262  0.00  0.00     0.103 A 
ATOM      7  C   UNL d   1      31.952  17.919 -24.384  0.00  0.00     0.103 A 
ATOM      8  O   UNL d   1      33.070  18.171 -22.536  0.00  0.00    -0.264 OA
ENDROOT
BRANCH   1   9
ATOM      9  S   UNL d   1      30.825  16.109 -24.734  0.00  0.00     0.271 S 
ATOM     10  O   UNL d   1      30.341  15.550 -25.097  0.00  0.00    -0.200 OA
ATOM     11  O   UNL d   1      31.470  15.626 -24.860  0.00  0.00    -0.200 OA
BRANCH   9  12
ATOM     12  C   UNL d   1      30.172  16.594 -24.609  0.00  0.00     0.104 A 
ATOM     13  C   UNL d   1      29.637  16.428 -24.003  0.00  0.00     0.017 A 
ATOM     14  C   UNL d   1      28.983  16.912 -23.878  0.00  0.00     0.072 A 
ATOM     15  C   UNL d   1      28.859  17.568 -24.358  0.00  0.00     0.004 A 
ATOM     16  C   UNL d   1      29.390  17.742 -24.969  0.00  0.00     0.001 A 
ATOM     17  C   UNL d   1      30.050  17.253 -25.096  0.00  0.00     0.013 A 
BRANCH  14  18
ATOM     18  C   UNL d   1      28.454  16.742 -23.273  0.00  0.00     0.419 C 
ATOM     19  F   UNL d   1      27.699  17.107 -23.103  0.00  0.00    -0.166 F 
ATOM     20  F   UNL d   1      28.512  16.155 -22.649  0.00  0.00    -0.166 F 
ATOM     21  F   UNL d   1      27.968  16.589 -22.721  0.00  0.00    -0.166 F 
ENDBRANCH  14  18
ENDBRANCH   9  12
ENDBRANCH   1   9
BRANCH   2  22
ATOM     22  C   UNL d   1      32.919  19.036 -23.659  0.00  0.00     0.156 A 
ATOM     23  O   UNL d   1      33.116  19.135 -24.457  0.00  0.00    -0.300 OA
ATOM     24  C   UNL d   1      33.238  19.930 -24.596  0.00  0.00     0.123 A 
ATOM     25  C   UNL d   1      33.117  20.338 -23.884  0.00  0.00     0.029 A 
ATOM     26  C   UNL d   1      32.920  19.783 -23.302  0.00  0.00     0.032 A 
ENDBRANCH   2  22
TORSDOF 4
ENDMDL
MODEL 2
REMARK VINA RESULT:      -3.6      2.271      3.980
REMARK  4 active torsions:
REMARK  status: ('A' for Active; 'I' for Inactive)
REMARK    1  A    between atoms: N_2  and  S_1 
REMARK    2  A    between atoms: C_6  and  S_1 
REMARK       I    between atoms: C_3  and  N_5 
REMARK    3  A    between atoms: C_7  and  C_3 
REMARK    4  A    between atoms: C_4  and  C_8 
ROOT
ATOM      1  N   UNL d   1      31.871  16.314 -24.214  0.00  0.00    -0.226 N 
ATOM      2  C   UNL d   1      29.813  15.754 -22.981  0.00  0.00     0.288 C 
ATOM      3  N   UNL d   1      30.503  15.940 -23.389  0.00  0.00    -0.267 N 
ATOM      4  C   UNL d   1      31.134  16.426 -24.564  0.00  0.00     0.111 A 
ATOM      5  C   UNL d   1      31.921  16.010 -23.440  0.00  0.00     0.111 A 
ATOM      6  C   UNL d   1      31.231  15.825 -23.032  0.00  0.00     0.103 A 
ATOM      7  C   UNL d   1      30.457  16.239 -24.150  0.00  0.00     0.103 A 
ATOM      8  O   UNL d   1      29.856  15.453 -22.214  0.00  0.00    -0.264 OA
ENDROOT
BRANCH   1   9
ATOM      9  S   UNL d   1      32.551  16.497 -24.616  0.00  0.00     0.271 S 
ATOM     10  O   UNL d   1      33.241  16.683 -25.024  0.00  0.00    -0.200 OA
ATOM     11  O   UNL d   1      32.680  15.707 -24.766  0.00  0.00    -0.200 OA
BRANCH   9  12
ATOM     12  C   UNL d   1      32.424  17.297 -24.467  0.00  0.00     0.104 A 
ATOM     13  C   UNL d   1      32.694  17.640 -23.766  0.00  0.00     0.017 A 
ATOM     14  C   UNL d   1      32.567  18.439 -23.617  0.00  0.00     0.072 A 
ATOM     15  C   UNL d   1      32.169  18.903 -24.166  0.00  0.00     0.004 A 
ATOM     16  C   UNL d   1      31.895  18.567 -24.872  0.00  0.00     0.001 A 
ATOM     17  C   UNL d   1      32.023  17.760 -25.023  0.00  0.00     0.013 A 
BRANCH  14  18
ATOM     18  C   UNL d   1      32.837  18.775 -22.917  0.00  0.00     0.419 C 
ATOM     19  F   UNL d   1      32.964  19.601 -22.734  0.00  0.00    -0.166 F 
ATOM     20  F   UNL d   1      33.066  18.393 -22.183  0.00  0.00    -0.166 F 
ATOM     21  F   UNL d   1      33.085  19.086 -22.279  0.00  0.00    -0.166 F 
ENDBRANCH  14  18
ENDBRANCH   9  12
ENDBRANCH   1   9
BRANCH   2  22
ATOM     22  C   UNL d   1      29.077  15.867 -23.334  0.00  0.00     0.156 A 
ATOM     23  O   UNL d   1      28.782  15.464 -23.994  0.00  0.00    -0.300 OA
ATOM     24  C   UNL d   1      28.034  15.749 -24.157  0.00  0.00     0.123 A 
ATOM     25  C   UNL d   1      27.854  16.334 -23.598  0.00  0.00     0.029 A 
ATOM     26  C   UNL d   1      28.501  16.408 -23.086  0.00  0.00     0.032 A 
ENDBRANCH   2  22
TORSDOF 4
ENDMDL
MODEL 3
REMARK VINA RESULT:      -3.5      0.976      1.236
REMARK  4 active torsions:
REMARK  status: ('A' for Active; 'I' for Inactive)
REMARK    1  A    between atoms: N_2  and  S_1 
REMARK    2  A    between atoms: C_6  and  S_1 
REMARK       I    between atoms: C_3  and  N_5 
REMARK    3  A    between atoms: C_7  and  C_3 
REMARK    4  A    between atoms: C_4  and  C_8 
ROOT
ATOM      1  N   UNL d   1      31.769  16.693 -24.200  0.00  0.00    -0.226 N 
ATOM      2  C   UNL d   1      32.951  18.372 -22.837  0.00  0.00     0.288 C 
ATOM      3  N   UNL d   1      32.556  17.808 -23.289  0.00  0.00    -0.267 N 
ATOM      4  C   UNL d   1      31.877  17.459 -24.486  0.00  0.00     0.111 A 
ATOM      5  C   UNL d   1      32.060  16.487 -23.447  0.00  0.00     0.111 A 
ATOM      6  C   UNL d   1      32.454  17.050 -22.996  0.00  0.00     0.103 A 
ATOM      7  C   UNL d   1      32.269  18.009 -24.029  0.00  0.00     0.103 A 
ATOM      8  O   UNL d   1      33.241  18.172 -22.091  0.00  0.00    -0.264 OA
ENDROOT
BRANCH   1   9
ATOM      9  S   UNL d   1      31.380  16.138 -24.645  0.00  0.00     0.271 S 
ATOM     10  O   UNL d   1      30.986  15.574 -25.097  0.00  0.00    -0.200 OA
ATOM     11  O   UNL d   1      32.070  15.969 -25.044  0.00  0.00    -0.200 OA
BRANCH   9  12
ATOM     12  C   UNL d   1      30.681  16.306 -24.244  0.00  0.00     0.104 A 
ATOM     13  C   UNL d   1      30.139  16.845 -24.555  0.00  0.00     0.017 A 
ATOM     14  C   UNL d   1      29.440  17.013 -24.155  0.00  0.00     0.072 A 
ATOM     15  C   UNL d   1      29.276  16.643 -23.439  0.00  0.00     0.004 A 
ATOM     16  C   UNL d   1      29.814  16.100 -23.119  0.00  0.00     0.001 A 
ATOM     17  C   UNL d   1      30.520  15.931 -23.524  0.00  0.00     0.013 A 
BRANCH  14  18
ATOM     18  C   UNL d   1      28.904  17.550 -24.469  0.00  0.00     0.419 C 
ATOM     19  F   UNL d   1      28.781  18.370 -24.258  0.00  0.00    -0.166 F 
ATOM     20  F   UNL d   1      28.323  17.438 -25.092  0.00  0.00    -0.166 F 
ATOM     21  F   UNL d   1      28.415  18.044 -24.754  0.00  0.00    -0.166 F 
ENDBRANCH  14  18
ENDBRANCH   9  12
ENDBRANCH   1   9
BRANCH   2  22
ATOM     22  C   UNL d   1      33.057  19.136 -23.126  0.00  0.00     0.156 A 
ATOM     23  O   UNL d   1      33.141  19.354 -23.920  0.00  0.00    -0.300 OA
ATOM     24  C   UNL d   1      33.234  20.164 -23.957  0.00  0.00     0.123 A 
ATOM     25  C   UNL d   1      33.209  20.461 -23.183  0.00  0.00     0.029 A 
ATOM     26  C   UNL d   1      33.099  19.823 -22.666  0.00  0.00     0.032 A 
ENDBRANCH   2  22
TORSDOF 4
ENDMDL
MODEL 4
REMARK VINA RESULT:      -1.9      1.855      2.955
REMARK  4 active torsions:
REMARK  status: ('A' for Active; 'I' for Inactive)
REMARK    1  A    between atoms: N_2  and  S_1 
REMARK    2  A    between atoms: C_6  and  S_1 
REMARK       I    between atoms: C_3  and  N_5 
REMARK    3  A    between atoms: C_7  and  C_3 
REMARK    4  A    between atoms: C_4  and  C_8 
ROOT
ATOM      1  N   UNL d   1      32.892  18.893 -23.629  0.00  0.00    -0.226 N 
ATOM      2  C   UNL d   1      32.927  19.967 -21.412  0.00  0.00     0.288 C 
ATOM      3  N   UNL d   1      32.917  19.605 -22.151  0.00  0.00    -0.267 N 
ATOM      4  C   UNL d   1      32.590  19.654 -23.532  0.00  0.00     0.111 A 
ATOM      5  C   UNL d   1      33.210  18.486 -22.976  0.00  0.00     0.111 A 
ATOM      6  C   UNL d   1      33.220  18.849 -22.238  0.00  0.00     0.103 A 
ATOM      7  C   UNL d   1      32.604  20.003 -22.795  0.00  0.00     0.103 A 
ATOM      8  O   UNL d   1      33.241  19.568 -20.762  0.00  0.00    -0.264 OA
ENDROOT
BRANCH   1   9
ATOM      9  S   UNL d   1      32.883  18.536 -24.358  0.00  0.00     0.271 S 
ATOM     10  O   UNL d   1      32.873  18.174 -25.097  0.00  0.00    -0.200 OA
ATOM     11  O   UNL d   1      33.241  19.190 -24.687  0.00  0.00    -0.200 OA
BRANCH   9  12
ATOM     12  C   UNL d   1      32.521  17.874 -24.028  0.00  0.00     0.104 A 
ATOM     13  C   UNL d   1      31.710  17.751 -24.119  0.00  0.00     0.017 A 
ATOM     14  C   UNL d   1      31.348  17.089 -23.790  0.00  0.00     0.072 A 
ATOM     15  C   UNL d   1      31.794  16.544 -23.367  0.00  0.00     0.004 A 
ATOM     16  C   UNL d   1      32.609  16.659 -23.270  0.00  0.00     0.001 A 
ATOM     17  C   UNL d   1      32.974  17.327 -23.602  0.00  0.00     0.013 A 
BRANCH  14  18
ATOM     18  C   UNL d   1      30.540  16.972 -23.884  0.00  0.00     0.419 C 
ATOM     19  F   UNL d   1      29.892  17.372 -23.495  0.00  0.00    -0.166 F 
ATOM     20  F   UNL d   1      30.127  16.419 -24.395  0.00  0.00    -0.166 F 
ATOM     21  F   UNL d   1      29.801  16.867 -23.968  0.00  0.00    -0.166 F 
ENDBRANCH  14  18
ENDBRANCH   9  12
ENDBRANCH   1   9
BRANCH   2  22
ATOM     22  C   UNL d   1      32.624  20.727 -21.318  0.00  0.00     0.156 A 
ATOM     23  O   UNL d   1      31.874  20.924 -21.027  0.00  0.00    -0.300 OA
ATOM     24  C   UNL d   1      31.803  21.738 -21.026  0.00  0.00     0.123 A 
ATOM     25  C   UNL d   1      32.511  22.058 -21.317  0.00  0.00     0.029 A 
ATOM     26  C   UNL d   1      33.021  21.431 -21.498  0.00  0.00     0.032 A 
ENDBRANCH   2  22
TORSDOF 4
ENDMDL
MODEL 5
REMARK VINA RESULT:      -1.7      1.323      1.748
REMARK  4 active torsions:
REMARK  status: ('A' for Active; 'I' for Inactive)
REMARK    1  A    between atoms: N_2  and  S_1 
REMARK    2  A    between atoms: C_6  and  S_1 
REMARK       I    between atoms: C_3  and  N_5 
REMARK    3  A    between atoms: C_7  and  C_3 
REMARK    4  A    between atoms: C_4  and  C_8 
ROOT
ATOM      1  N   UNL d   1      30.073  17.743 -24.619  0.00  0.00    -0.226 N 
ATOM      2  C   UNL d   1      32.447  17.619 -23.972  0.00  0.00     0.288 C 
ATOM      3  N   UNL d   1      31.655  17.657 -24.191  0.00  0.00    -0.267 N 
ATOM      4  C   UNL d   1      30.377  18.261 -24.054  0.00  0.00     0.111 A 
ATOM      5  C   UNL d   1      30.569  17.175 -24.971  0.00  0.00     0.111 A 
ATOM      6  C   UNL d   1      31.362  17.137 -24.752  0.00  0.00     0.103 A 
ATOM      7  C   UNL d   1      31.164  18.214 -23.846  0.00  0.00     0.103 A 
ATOM      8  O   UNL d   1      32.943  17.058 -24.319  0.00  0.00    -0.264 OA
ENDROOT
BRANCH   1   9
ATOM      9  S   UNL d   1      29.292  17.781 -24.834  0.00  0.00     0.271 S 
ATOM     10  O   UNL d   1      28.499  17.819 -25.053  0.00  0.00    -0.200 OA
ATOM     11  O   UNL d   1      29.397  18.545 -25.097  0.00  0.00    -0.200 OA
BRANCH   9  12
ATOM     12  C   UNL d   1      29.182  17.009 -24.570  0.00  0.00     0.104 A 
ATOM     13  C   UNL d   1      28.979  16.860 -23.784  0.00  0.00     0.017 A 
ATOM     14  C   UNL d   1      28.869  16.089 -23.520  0.00  0.00     0.072 A 
ATOM     15  C   UNL d   1      28.960  15.458 -24.039  0.00  0.00     0.004 A 
ATOM     16  C   UNL d   1      29.164  15.598 -24.830  0.00  0.00     0.001 A 
ATOM     17  C   UNL d   1      29.275  16.377 -25.097  0.00  0.00     0.013 A 
BRANCH  14  18
ATOM     18  C   UNL d   1      28.667  15.946 -22.736  0.00  0.00     0.419 C 
ATOM     19  F   UNL d   1      27.909  16.043 -22.352  0.00  0.00    -0.166 F 
ATOM     20  F   UNL d   1      29.158  15.663 -22.091  0.00  0.00    -0.166 F 
ATOM     21  F   UNL d   1      28.479  15.817 -22.020  0.00  0.00    -0.166 F 
ENDBRANCH  14  18
ENDBRANCH   9  12
ENDBRANCH   1   9
BRANCH   2  22
ATOM     22  C   UNL d   1      32.748  18.138 -23.408  0.00  0.00     0.156 A 
ATOM     23  O   UNL d   1      32.892  17.967 -22.611  0.00  0.00    -0.300 OA
ATOM     24  C   UNL d   1      33.190  18.639 -22.253  0.00  0.00     0.123 A 
ATOM     25  C   UNL d   1      33.236  19.237 -22.826  0.00  0.00     0.029 A 
ATOM     26  C   UNL d   1      32.962  18.926 -23.543  0.00  0.00     0.032 A 
ENDBRANCH   2  22
TORSDOF 4
ENDMDL
