MODEL 1
REMARK VINA RESULT:      60.3      0.000      0.000
REMARK  6 active torsions:
REMARK  status: ('A' for Active; 'I' for Inactive)
REMARK    1  A    between atoms: N_7  and  C_1 
REMARK    2  A    between atoms: C_6  and  C_4 
REMARK    3  A    between atoms: C_22  and  C_12 
REMARK    4  A    between atoms: C_23  and  N_13 
REMARK    5  A    between atoms: O_17  and  C_22 
REMARK    6  A    between atoms: C_18  and  O_17 
ROOT
ATOM      1  C   UNL d   1      14.026  15.992  -4.407  0.00  0.00     0.198 A 
ATOM      2  C   UNL d   1      14.246  15.805  -3.650  0.00  0.00     0.191 A 
ATOM      3  O   UNL d   1      13.672  15.330  -4.720  0.00  0.00    -0.268 OA
ATOM      4  C   UNL d   1      13.681  14.752  -4.152  0.00  0.00     0.208 A 
ATOM      5  N   UNL d   1      14.020  15.042  -3.528  0.00  0.00    -0.206 NA
ATOM      6  C   UNL d   1      14.636  16.289  -3.076  0.00  0.00     0.124 C 
ATOM      7  N   UNL d   1      15.023  16.779  -2.513  0.00  0.00    -0.190 NA
ENDROOT
BRANCH   1   8
ATOM      8  N   UNL d   1      14.075  16.655  -4.902  0.00  0.00    -0.280 N 
ATOM      9  C   UNL d   1      14.698  17.159  -4.830  0.00  0.00     0.101 A 
ATOM     10  C   UNL d   1      14.748  17.823  -5.325  0.00  0.00     0.100 A 
ATOM     11  N   UNL d   1      14.189  17.962  -5.863  0.00  0.00    -0.300 N 
ATOM     12  C   UNL d   1      13.538  17.455  -5.954  0.00  0.00     0.100 A 
ATOM     13  C   UNL d   1      13.474  16.790  -5.469  0.00  0.00     0.101 A 
BRANCH  11  14
ATOM     14  C   UNL d   1      14.239  18.625  -6.357  0.00  0.00     0.080 C 
ATOM     15  C   UNL d   1      14.249  19.419  -6.049  0.00  0.00     0.021 C 
ENDBRANCH  11  14
ENDBRANCH   1   8
BRANCH   4  16
ATOM     16  C   UNL d   1      13.579  14.056  -3.765  0.00  0.00     0.141 A 
ATOM     17  O   UNL d   1      13.500  13.522  -3.105  0.00  0.00    -0.301 OA
ATOM     18  C   UNL d   1      13.395  12.775  -3.436  0.00  0.00     0.125 A 
ATOM     19  C   UNL d   1      13.411  12.853  -4.241  0.00  0.00     0.029 A 
ATOM     20  C   UNL d   1      13.523  13.632  -4.432  0.00  0.00     0.030 A 
BRANCH  18  21
ATOM     21  C   UNL d   1      13.297  12.100  -2.999  0.00  0.00     0.147 C 
BRANCH  21  22
ATOM     22  O   UNL d   1      13.900  11.784  -2.569  0.00  0.00    -0.303 OA
BRANCH  22  23
ATOM     23  C   UNL d   1      13.905  11.815  -1.768  0.00  0.00     0.100 A 
ATOM     24  C   UNL d   1      14.618  11.881  -1.352  0.00  0.00     0.023 A 
ATOM     25  C   UNL d   1      15.327  11.916  -1.781  0.00  0.00     0.002 C 
ATOM     26  C   UNL d   1      14.623  11.912  -0.561  0.00  0.00     0.002 A 
ATOM     27  C   UNL d   1      13.915  11.877  -0.132  0.00  0.00     0.000 A 
ATOM     28  C   UNL d   1      13.192  11.809  -0.548  0.00  0.00     0.002 A 
ATOM     29  C   UNL d   1      13.187  11.779  -1.339  0.00  0.00     0.025 A 
ENDBRANCH  22  23
ENDBRANCH  21  22
ENDBRANCH  18  21
ENDBRANCH   4  16
TORSDOF 6
ENDMDL
MODEL 2
REMARK VINA RESULT:      61.0      1.433      6.349
REMARK  6 active torsions:
REMARK  status: ('A' for Active; 'I' for Inactive)
REMARK    1  A    between atoms: N_7  and  C_1 
REMARK    2  A    between atoms: C_6  and  C_4 
REMARK    3  A    between atoms: C_22  and  C_12 
REMARK    4  A    between atoms: C_23  and  N_13 
REMARK    5  A    between atoms: O_17  and  C_22 
REMARK    6  A    between atoms: C_18  and  O_17 
ROOT
ATOM      1  C   UNL d   1      14.299  14.406  -2.848  0.00  0.00     0.198 A 
ATOM      2  C   UNL d   1      13.908  14.430  -3.557  0.00  0.00     0.191 A 
ATOM      3  O   UNL d   1      14.745  15.084  -2.802  0.00  0.00    -0.268 OA
ATOM      4  C   UNL d   1      14.620  15.511  -3.480  0.00  0.00     0.208 A 
ATOM      5  N   UNL d   1      14.127  15.117  -3.916  0.00  0.00    -0.206 NA
ATOM      6  C   UNL d   1      13.370  13.865  -3.886  0.00  0.00     0.124 C 
ATOM      7  N   UNL d   1      12.837  13.298  -4.203  0.00  0.00    -0.190 NA
ENDROOT
BRANCH   1   8
ATOM      8  N   UNL d   1      14.346  13.886  -2.204  0.00  0.00    -0.280 N 
ATOM      9  C   UNL d   1      14.499  14.176  -1.469  0.00  0.00     0.101 A 
ATOM     10  C   UNL d   1      14.546  13.656  -0.825  0.00  0.00     0.100 A 
ATOM     11  N   UNL d   1      14.443  12.882  -0.929  0.00  0.00    -0.300 N 
ATOM     12  C   UNL d   1      14.285  12.562  -1.678  0.00  0.00     0.100 A 
ATOM     13  C   UNL d   1      14.234  13.065  -2.330  0.00  0.00     0.101 A 
BRANCH  11  14
ATOM     14  C   UNL d   1      14.491  12.363  -0.285  0.00  0.00     0.080 C 
ATOM     15  C   UNL d   1      15.231  12.030  -0.026  0.00  0.00     0.021 C 
ENDBRANCH  11  14
ENDBRANCH   1   8
BRANCH   4  16
ATOM     16  C   UNL d   1      14.650  16.082  -4.043  0.00  0.00     0.141 A 
ATOM     17  O   UNL d   1      14.438  16.508  -4.750  0.00  0.00    -0.301 OA
ATOM     18  C   UNL d   1      14.958  17.146  -4.789  0.00  0.00     0.125 A 
ATOM     19  C   UNL d   1      15.450  17.107  -4.149  0.00  0.00     0.029 A 
ATOM     20  C   UNL d   1      15.258  16.459  -3.702  0.00  0.00     0.030 A 
BRANCH  18  21
ATOM     21  C   UNL d   1      14.948  17.698  -5.381  0.00  0.00     0.147 C 
BRANCH  21  22
ATOM     22  O   UNL d   1      14.272  18.088  -5.584  0.00  0.00    -0.303 OA
BRANCH  22  23
ATOM     23  C   UNL d   1      14.280  18.861  -5.793  0.00  0.00     0.100 A 
ATOM     24  C   UNL d   1      13.632  19.201  -6.182  0.00  0.00     0.023 A 
ATOM     25  C   UNL d   1      12.975  18.724  -6.350  0.00  0.00     0.002 C 
ATOM     26  C   UNL d   1      13.640  19.965  -6.389  0.00  0.00     0.002 A 
ATOM     27  C   UNL d   1      14.297  20.442  -6.221  0.00  0.00     0.000 A 
ATOM     28  C   UNL d   1      14.953  20.103  -5.828  0.00  0.00     0.002 A 
ATOM     29  C   UNL d   1      14.945  19.339  -5.621  0.00  0.00     0.025 A 
ENDBRANCH  22  23
ENDBRANCH  21  22
ENDBRANCH  18  21
ENDBRANCH   4  16
TORSDOF 6
ENDMDL
