MODEL 1
REMARK VINA RESULT:      56.6      0.000      0.000
REMARK  4 active torsions:
REMARK  status: ('A' for Active; 'I' for Inactive)
REMARK    1  A    between atoms: N_3  and  C_1 
REMARK    2  A    between atoms: N_5  and  N_2 
REMARK    3  A    between atoms: S_4  and  N_5 
REMARK    4  A    between atoms: C_13  and  S_4 
ROOT
ATOM      1  C   UNL d   1      58.535  49.702  51.513  0.00  0.00     0.771 A 
ATOM      2  N   UNL d   1      59.349  49.699  51.431  0.00  0.00    -0.026 N 
ATOM      3  N   UNL d   1      58.367  49.708  52.322  0.00  0.00     0.048 NA
ATOM      4  C   UNL d   1      59.689  49.702  52.171  0.00  0.00     0.204 A 
ATOM      5  N   UNL d   1      59.082  49.708  52.730  0.00  0.00    -0.112 NA
ATOM      6  C   UNL d   1      60.495  49.701  52.344  0.00  0.00     0.044 C 
ENDROOT
BRANCH   2   7
ATOM      7  N   UNL d   1      59.769  49.693  50.722  0.00  0.00    -0.056 NA
BRANCH   7   8
ATOM      8  S   UNL d   1      60.293  49.085  50.545  0.00  0.00     0.301 S 
ATOM      9  O   UNL d   1      59.973  48.623  51.135  0.00  0.00    -0.197 OA
ATOM     10  O   UNL d   1      60.614  49.559  49.947  0.00  0.00    -0.197 OA
BRANCH   8  11
ATOM     11  C   UNL d   1      60.827  48.487  50.352  0.00  0.00     0.107 A 
ATOM     12  C   UNL d   1      61.496  48.668  49.905  0.00  0.00     0.015 A 
ATOM     13  C   UNL d   1      62.033  48.071  49.710  0.00  0.00     0.030 A 
ATOM     14  C   UNL d   1      61.895  47.295  49.966  0.00  0.00     0.140 A 
ATOM     15  C   UNL d   1      61.227  47.113  50.413  0.00  0.00     0.030 A 
ATOM     16  F   UNL d   1      62.430  46.706  49.771  0.00  0.00    -0.204 F 
ATOM     17  C   UNL d   1      60.689  47.710  50.608  0.00  0.00     0.015 A 
ENDBRANCH   8  11
ENDBRANCH   7   8
ENDBRANCH   2   7
BRANCH   1  18
ATOM     18  N   UNL d   1      57.987  49.700  50.897  0.00  0.00    -0.056 N 
ATOM     19  N   UNL d   1      58.160  49.706  50.091  0.00  0.00    -0.150 NA
ATOM     20  C   UNL d   1      57.448  49.702  49.676  0.00  0.00     0.103 A 
ATOM     21  C   UNL d   1      57.362  49.705  48.860  0.00  0.00     0.022 C 
ATOM     22  C   UNL d   1      56.832  49.693  50.225  0.00  0.00     0.041 A 
ATOM     23  C   UNL d   1      57.173  49.692  50.980  0.00  0.00     0.102 A 
ATOM     24  C   UNL d   1      56.758  49.684  51.691  0.00  0.00     0.021 C 
ENDBRANCH   1  18
TORSDOF 4
ENDMDL
