MODEL 1
REMARK VINA RESULT:      14.0      0.000      0.000
REMARK  4 active torsions:
REMARK  status: ('A' for Active; 'I' for Inactive)
REMARK    1  A    between atoms: C_2  and  C_1 
REMARK    2  A    between atoms: O_18  and  C_16 
REMARK    3  A    between atoms: C_17  and  C_19 
REMARK    4  A    between atoms: C_19  and  O_18 
ROOT
ATOM      1  C   UNL d   1     -42.048-123.177 -49.394  0.00  0.00     0.030 A 
ATOM      2  C   UNL d   1     -42.843-123.335 -49.237  0.00  0.00     0.027 A 
ATOM      3  C   UNL d   1     -41.695-123.616 -48.087  0.00  0.00     0.300 A 
ATOM      4  C   UNL d   1     -41.478-123.320 -48.814  0.00  0.00     0.071 A 
ATOM      5  C   UNL d   1     -43.063-123.635 -48.500  0.00  0.00     0.103 A 
ATOM      6  O   UNL d   1     -42.492-123.777 -47.921  0.00  0.00    -0.273 OA
ATOM      7  C   UNL d   1     -43.423-123.192 -49.820  0.00  0.00     0.027 A 
ATOM      8  O   UNL d   1     -41.124-123.757 -47.513  0.00  0.00    -0.259 OA
ATOM      9  C   UNL d   1     -43.857-123.792 -48.344  0.00  0.00     0.027 A 
ATOM     10  C   UNL d   1     -44.203-123.352 -49.654  0.00  0.00     0.100 A 
ATOM     11  C   UNL d   1     -44.428-123.652 -48.918  0.00  0.00     0.027 A 
ENDROOT
BRANCH   1  12
ATOM     12  C   UNL d   1     -41.831-122.874 -50.142  0.00  0.00     0.100 A 
ATOM     13  O   UNL d   1     -41.720-122.082 -50.336  0.00  0.00    -0.307 OA
ATOM     14  C   UNL d   1     -41.513-122.046 -51.126  0.00  0.00     0.100 A 
ATOM     15  C   UNL d   1     -41.336-121.410 -51.621  0.00  0.00     0.025 A 
ATOM     16  C   UNL d   1     -41.492-122.813 -51.432  0.00  0.00     0.025 A 
ATOM     17  C   UNL d   1     -41.142-121.545 -52.412  0.00  0.00     0.002 A 
ATOM     18  C   UNL d   1     -41.124-122.316 -52.708  0.00  0.00     0.000 A 
ATOM     19  C   UNL d   1     -41.301-122.947 -52.210  0.00  0.00     0.002 A 
ATOM     20  C   UNL d   1     -41.691-123.327 -50.813  0.00  0.00     0.027 A 
ENDBRANCH   1  12
BRANCH  10  21
ATOM     21  O   UNL d   1     -44.779-123.210 -50.234  0.00  0.00    -0.302 OA
BRANCH  21  22
ATOM     22  C   UNL d   1     -45.267-122.560 -50.169  0.00  0.00     0.165 C 
BRANCH  22  23
ATOM     23  C   UNL d   1     -45.206-121.943 -50.706  0.00  0.00     0.220 C 
ATOM     24  O   UNL d   1     -45.302-121.165 -50.449  0.00  0.00    -0.284 OA
ATOM     25  C   UNL d   1     -45.049-122.093 -51.502  0.00  0.00     0.048 C 
ENDBRANCH  22  23
ENDBRANCH  21  22
ENDBRANCH  10  21
TORSDOF 4
ENDMDL
MODEL 2
REMARK VINA RESULT:      15.2      1.208      3.874
REMARK  4 active torsions:
REMARK  status: ('A' for Active; 'I' for Inactive)
REMARK    1  A    between atoms: C_2  and  C_1 
REMARK    2  A    between atoms: O_18  and  C_16 
REMARK    3  A    between atoms: C_17  and  C_19 
REMARK    4  A    between atoms: C_19  and  O_18 
ROOT
ATOM      1  C   UNL d   1     -43.437-122.187 -49.654  0.00  0.00     0.030 A 
ATOM      2  C   UNL d   1     -43.165-122.183 -50.433  0.00  0.00     0.027 A 
ATOM      3  C   UNL d   1     -44.628-121.521 -50.057  0.00  0.00     0.300 A 
ATOM      4  C   UNL d   1     -44.169-121.854 -49.471  0.00  0.00     0.071 A 
ATOM      5  C   UNL d   1     -43.629-121.845 -51.027  0.00  0.00     0.103 A 
ATOM      6  O   UNL d   1     -44.362-121.513 -50.843  0.00  0.00    -0.273 OA
ATOM      7  C   UNL d   1     -42.425-122.518 -50.623  0.00  0.00     0.027 A 
ATOM      8  O   UNL d   1     -45.357-121.190 -49.871  0.00  0.00    -0.259 OA
ATOM      9  C   UNL d   1     -43.358-121.842 -51.805  0.00  0.00     0.027 A 
ATOM     10  C   UNL d   1     -42.167-122.509 -51.394  0.00  0.00     0.100 A 
ATOM     11  C   UNL d   1     -42.628-122.172 -51.991  0.00  0.00     0.027 A 
ENDROOT
BRANCH   1  12
ATOM     12  C   UNL d   1     -42.962-122.530 -49.057  0.00  0.00     0.100 A 
ATOM     13  O   UNL d   1     -42.141-122.575 -49.049  0.00  0.00    -0.307 OA
ATOM     14  C   UNL d   1     -41.919-122.956 -48.360  0.00  0.00     0.100 A 
ATOM     15  C   UNL d   1     -41.179-123.155 -48.055  0.00  0.00     0.025 A 
ATOM     16  C   UNL d   1     -42.598-123.151 -47.932  0.00  0.00     0.025 A 
ATOM     17  C   UNL d   1     -41.124-123.547 -47.330  0.00  0.00     0.002 A 
ATOM     18  C   UNL d   1     -41.809-123.738 -46.911  0.00  0.00     0.000 A 
ATOM     19  C   UNL d   1     -42.545-123.536 -47.219  0.00  0.00     0.002 A 
ATOM     20  C   UNL d   1     -43.248-122.884 -48.372  0.00  0.00     0.027 A 
ENDBRANCH   1  12
BRANCH  10  21
ATOM     21  O   UNL d   1     -41.431-122.842 -51.581  0.00  0.00    -0.302 OA
BRANCH  21  22
ATOM     22  C   UNL d   1     -41.337-123.247 -52.282  0.00  0.00     0.165 C 
BRANCH  22  23
ATOM     23  C   UNL d   1     -41.229-122.837 -52.985  0.00  0.00     0.220 C 
ATOM     24  O   UNL d   1     -41.125-122.019 -52.969  0.00  0.00    -0.284 OA
ATOM     25  C   UNL d   1     -41.224-123.236 -53.707  0.00  0.00     0.048 C 
ENDBRANCH  22  23
ENDBRANCH  21  22
ENDBRANCH  10  21
TORSDOF 4
ENDMDL
