MODEL 1
REMARK VINA RESULT:      73.9      0.000      0.000
REMARK  11 active torsions:
REMARK  status: ('A' for Active; 'I' for Inactive)
REMARK    1  A    between atoms: C_8  and  C_1 
REMARK    2  A    between atoms: C_6  and  N_7 
REMARK    3  A    between atoms: N_19  and  C_6 
REMARK    4  A    between atoms: N_7  and  C_14 
REMARK    5  A    between atoms: C_11  and  N_7 
REMARK    6  A    between atoms: C_14  and  C_8 
REMARK    7  A    between atoms: C_9  and  C_11 
REMARK    8  A    between atoms: C_25  and  N_19 
REMARK    9  A    between atoms: O_23  and  C_20 
REMARK   10  A    between atoms: O_24  and  C_26 
REMARK   11  A    between atoms: C_26  and  C_25 
ROOT
ATOM      1  N   UNL d   1     -49.410  27.758  34.819  0.00  0.00    -0.279 N 
ENDROOT
BRANCH   1   2
ATOM      2  C   UNL d   1     -50.034  27.529  35.304  0.00  0.00     0.206 C 
ATOM      3  S   UNL d   1     -50.797  27.456  34.989  0.00  0.00    -0.038 SA
BRANCH   2   4
ATOM      4  N   UNL d   1     -49.901  27.372  36.105  0.00  0.00    -0.215 NA
BRANCH   4   5
ATOM      5  C   UNL d   1     -50.546  27.307  36.617  0.00  0.00     0.128 C 
BRANCH   5   6
ATOM      6  C   UNL d   1     -50.445  26.998  37.372  0.00  0.00     0.137 C 
BRANCH   6   7
ATOM      7  O   UNL d   1     -51.094  26.925  37.874  0.00  0.00    -0.325 OA
ATOM      8  C   UNL d   1     -51.139  26.294  38.392  0.00  0.00     0.182 C 
ENDBRANCH   6   7
ENDBRANCH   5   6
ENDBRANCH   4   5
ENDBRANCH   2   4
ENDBRANCH   1   2
BRANCH   1   9
ATOM      9  C   UNL d   1     -48.744  28.140  35.147  0.00  0.00     0.082 C 
BRANCH   9  10
ATOM     10  C   UNL d   1     -48.369  28.753  34.734  0.00  0.00     0.021 C 
BRANCH  10  11
ATOM     11  C   UNL d   1     -47.913  29.305  35.136  0.00  0.00     0.021 A 
ATOM     12  C   UNL d   1     -47.383  29.146  35.764  0.00  0.00     0.082 A 
ATOM     13  N   UNL d   1     -47.047  29.862  35.997  0.00  0.00    -0.246 NA
ATOM     14  C   UNL d   1     -47.231  28.400  36.088  0.00  0.00     0.021 C 
ATOM     15  C   UNL d   1     -47.356  30.465  35.526  0.00  0.00     0.082 A 
ATOM     16  C   UNL d   1     -47.891  30.116  34.995  0.00  0.00     0.021 A 
ATOM     17  C   UNL d   1     -47.225  31.277  35.507  0.00  0.00     0.021 A 
ATOM     18  C   UNL d   1     -48.286  30.591  34.453  0.00  0.00     0.026 A 
ATOM     19  C   UNL d   1     -48.156  31.407  34.433  0.00  0.00     0.094 A 
ATOM     20  C   UNL d   1     -47.621  31.743  34.966  0.00  0.00     0.026 A 
BRANCH  19  21
ATOM     21  O   UNL d   1     -48.554  31.881  33.887  0.00  0.00    -0.328 OA
ATOM     22  C   UNL d   1     -48.244  32.623  33.686  0.00  0.00     0.181 C 
ENDBRANCH  19  21
ENDBRANCH  10  11
ENDBRANCH   9  10
ENDBRANCH   1   9
BRANCH   1  23
ATOM     23  C   UNL d   1     -49.444  27.609  34.012  0.00  0.00     0.107 C 
BRANCH  23  24
ATOM     24  C   UNL d   1     -49.642  26.848  33.737  0.00  0.00     0.118 A 
ATOM     25  O   UNL d   1     -49.110  26.228  33.594  0.00  0.00    -0.304 OA
ATOM     26  C   UNL d   1     -49.544  25.576  33.328  0.00  0.00     0.123 A 
ATOM     27  C   UNL d   1     -50.331  25.793  33.309  0.00  0.00     0.029 A 
ATOM     28  C   UNL d   1     -50.384  26.582  33.564  0.00  0.00     0.028 A 
ENDBRANCH  23  24
ENDBRANCH   1  23
TORSDOF 11
ENDMDL
MODEL 2
REMARK VINA RESULT:      74.0      3.551      5.686
REMARK  11 active torsions:
REMARK  status: ('A' for Active; 'I' for Inactive)
REMARK    1  A    between atoms: C_8  and  C_1 
REMARK    2  A    between atoms: C_6  and  N_7 
REMARK    3  A    between atoms: N_19  and  C_6 
REMARK    4  A    between atoms: N_7  and  C_14 
REMARK    5  A    between atoms: C_11  and  N_7 
REMARK    6  A    between atoms: C_14  and  C_8 
REMARK    7  A    between atoms: C_9  and  C_11 
REMARK    8  A    between atoms: C_25  and  N_19 
REMARK    9  A    between atoms: O_23  and  C_20 
REMARK   10  A    between atoms: O_24  and  C_26 
REMARK   11  A    between atoms: C_26  and  C_25 
ROOT
ATOM      1  N   UNL d   1     -51.759  26.291  37.289  0.00  0.00    -0.279 N 
ENDROOT
BRANCH   1   2
ATOM      2  C   UNL d   1     -51.292  26.691  37.836  0.00  0.00     0.206 C 
ATOM      3  S   UNL d   1     -50.523  26.424  37.994  0.00  0.00    -0.038 SA
BRANCH   2   4
ATOM      4  N   UNL d   1     -51.587  27.357  38.226  0.00  0.00    -0.215 NA
BRANCH   4   5
ATOM      5  C   UNL d   1     -51.211  27.625  38.911  0.00  0.00     0.128 C 
BRANCH   5   6
ATOM      6  C   UNL d   1     -51.072  28.428  39.019  0.00  0.00     0.137 C 
BRANCH   6   7
ATOM      7  O   UNL d   1     -51.397  28.814  39.670  0.00  0.00    -0.325 OA
ATOM      8  C   UNL d   1     -50.907  29.116  40.250  0.00  0.00     0.182 C 
ENDBRANCH   6   7
ENDBRANCH   5   6
ENDBRANCH   4   5
ENDBRANCH   2   4
ENDBRANCH   1   2
BRANCH   1   9
ATOM      9  C   UNL d   1     -51.442  26.079  36.545  0.00  0.00     0.082 C 
BRANCH   9  10
ATOM     10  C   UNL d   1     -51.787  26.367  35.848  0.00  0.00     0.021 C 
BRANCH  10  11
ATOM     11  C   UNL d   1     -51.449  26.200  35.119  0.00  0.00     0.021 A 
ATOM     12  C   UNL d   1     -50.798  26.597  34.773  0.00  0.00     0.082 A 
ATOM     13  N   UNL d   1     -50.650  26.246  34.042  0.00  0.00    -0.246 NA
ATOM     14  C   UNL d   1     -50.385  27.228  35.111  0.00  0.00     0.021 C 
ATOM     15  C   UNL d   1     -51.195  25.638  33.925  0.00  0.00     0.082 A 
ATOM     16  C   UNL d   1     -51.687  25.613  34.593  0.00  0.00     0.021 A 
ATOM     17  C   UNL d   1     -51.310  25.106  33.307  0.00  0.00     0.021 A 
ATOM     18  C   UNL d   1     -52.288  25.053  34.629  0.00  0.00     0.026 A 
ATOM     19  C   UNL d   1     -52.405  24.519  34.008  0.00  0.00     0.094 A 
ATOM     20  C   UNL d   1     -51.909  24.553  33.349  0.00  0.00     0.026 A 
BRANCH  19  21
ATOM     21  O   UNL d   1     -53.009  23.959  34.048  0.00  0.00    -0.328 OA
ATOM     22  C   UNL d   1     -53.029  23.339  33.497  0.00  0.00     0.181 C 
ENDBRANCH  19  21
ENDBRANCH  10  11
ENDBRANCH   9  10
ENDBRANCH   1   9
BRANCH   1  23
ATOM     23  C   UNL d   1     -52.535  26.100  37.476  0.00  0.00     0.107 C 
BRANCH  23  24
ATOM     24  C   UNL d   1     -52.694  25.511  38.043  0.00  0.00     0.118 A 
ATOM     25  O   UNL d   1     -53.436  25.335  38.369  0.00  0.00    -0.304 OA
ATOM     26  C   UNL d   1     -53.337  24.713  38.906  0.00  0.00     0.123 A 
ATOM     27  C   UNL d   1     -52.546  24.511  38.909  0.00  0.00     0.029 A 
ATOM     28  C   UNL d   1     -52.153  25.009  38.371  0.00  0.00     0.028 A 
ENDBRANCH  23  24
ENDBRANCH   1  23
TORSDOF 11
ENDMDL
MODEL 3
REMARK VINA RESULT:      74.4      1.007      2.504
REMARK  11 active torsions:
REMARK  status: ('A' for Active; 'I' for Inactive)
REMARK    1  A    between atoms: C_8  and  C_1 
REMARK    2  A    between atoms: C_6  and  N_7 
REMARK    3  A    between atoms: N_19  and  C_6 
REMARK    4  A    between atoms: N_7  and  C_14 
REMARK    5  A    between atoms: C_11  and  N_7 
REMARK    6  A    between atoms: C_14  and  C_8 
REMARK    7  A    between atoms: C_9  and  C_11 
REMARK    8  A    between atoms: C_25  and  N_19 
REMARK    9  A    between atoms: O_23  and  C_20 
REMARK   10  A    between atoms: O_24  and  C_26 
REMARK   11  A    between atoms: C_26  and  C_25 
ROOT
ATOM      1  N   UNL d   1     -48.865  28.249  35.259  0.00  0.00    -0.279 N 
ENDROOT
BRANCH   1   2
ATOM      2  C   UNL d   1     -49.132  28.176  34.484  0.00  0.00     0.206 C 
ATOM      3  S   UNL d   1     -49.262  28.854  34.027  0.00  0.00    -0.038 SA
BRANCH   2   4
ATOM      4  N   UNL d   1     -49.270  27.427  34.160  0.00  0.00    -0.215 NA
BRANCH   4   5
ATOM      5  C   UNL d   1     -49.630  27.366  33.420  0.00  0.00     0.128 C 
BRANCH   5   6
ATOM      6  C   UNL d   1     -50.253  26.842  33.306  0.00  0.00     0.137 C 
BRANCH   6   7
ATOM      7  O   UNL d   1     -50.110  26.031  33.306  0.00  0.00    -0.325 OA
ATOM      8  C   UNL d   1     -50.719  25.511  33.468  0.00  0.00     0.182 C 
ENDBRANCH   6   7
ENDBRANCH   5   6
ENDBRANCH   4   5
ENDBRANCH   2   4
ENDBRANCH   1   2
BRANCH   1   9
ATOM      9  C   UNL d   1     -48.538  28.972  35.521  0.00  0.00     0.082 C 
BRANCH   9  10
ATOM     10  C   UNL d   1     -47.993  29.378  35.048  0.00  0.00     0.021 C 
BRANCH  10  11
ATOM     11  C   UNL d   1     -47.598  30.036  35.341  0.00  0.00     0.021 A 
ATOM     12  C   UNL d   1     -47.094  30.053  36.009  0.00  0.00     0.082 A 
ATOM     13  N   UNL d   1     -46.821  30.825  36.098  0.00  0.00    -0.246 NA
ATOM     14  C   UNL d   1     -46.909  29.404  36.489  0.00  0.00     0.021 C 
ATOM     15  C   UNL d   1     -47.144  31.291  35.499  0.00  0.00     0.082 A 
ATOM     16  C   UNL d   1     -47.624  30.798  35.034  0.00  0.00     0.021 A 
ATOM     17  C   UNL d   1     -47.069  32.090  35.315  0.00  0.00     0.021 A 
ATOM     18  C   UNL d   1     -48.021  31.118  34.388  0.00  0.00     0.026 A 
ATOM     19  C   UNL d   1     -47.946  31.920  34.202  0.00  0.00     0.094 A 
ATOM     20  C   UNL d   1     -47.466  32.400  34.672  0.00  0.00     0.026 A 
BRANCH  19  21
ATOM     21  O   UNL d   1     -48.346  32.237  33.553  0.00  0.00    -0.328 OA
ATOM     22  C   UNL d   1     -48.180  33.013  33.310  0.00  0.00     0.181 C 
ENDBRANCH  19  21
ENDBRANCH  10  11
ENDBRANCH   9  10
ENDBRANCH   1   9
BRANCH   1  23
ATOM     23  C   UNL d   1     -48.922  27.612  35.773  0.00  0.00     0.107 C 
BRANCH  23  24
ATOM     24  C   UNL d   1     -49.444  27.646  36.421  0.00  0.00     0.118 A 
ATOM     25  O   UNL d   1     -49.453  28.230  37.011  0.00  0.00    -0.304 OA
ATOM     26  C   UNL d   1     -50.059  28.046  37.542  0.00  0.00     0.123 A 
ATOM     27  C   UNL d   1     -50.417  27.359  37.283  0.00  0.00     0.029 A 
ATOM     28  C   UNL d   1     -50.031  27.117  36.588  0.00  0.00     0.028 A 
ENDBRANCH  23  24
ENDBRANCH   1  23
TORSDOF 11
ENDMDL
MODEL 4
REMARK VINA RESULT:      75.2      3.549      5.720
REMARK  11 active torsions:
REMARK  status: ('A' for Active; 'I' for Inactive)
REMARK    1  A    between atoms: C_8  and  C_1 
REMARK    2  A    between atoms: C_6  and  N_7 
REMARK    3  A    between atoms: N_19  and  C_6 
REMARK    4  A    between atoms: N_7  and  C_14 
REMARK    5  A    between atoms: C_11  and  N_7 
REMARK    6  A    between atoms: C_14  and  C_8 
REMARK    7  A    between atoms: C_9  and  C_11 
REMARK    8  A    between atoms: C_25  and  N_19 
REMARK    9  A    between atoms: O_23  and  C_20 
REMARK   10  A    between atoms: O_24  and  C_26 
REMARK   11  A    between atoms: C_26  and  C_25 
ROOT
ATOM      1  N   UNL d   1     -51.729  26.184  37.491  0.00  0.00    -0.279 N 
ENDROOT
BRANCH   1   2
ATOM      2  C   UNL d   1     -52.382  25.847  37.861  0.00  0.00     0.206 C 
ATOM      3  S   UNL d   1     -53.142  26.135  37.699  0.00  0.00    -0.038 SA
BRANCH   2   4
ATOM      4  N   UNL d   1     -52.282  25.223  38.395  0.00  0.00    -0.215 NA
BRANCH   4   5
ATOM      5  C   UNL d   1     -52.939  24.923  38.795  0.00  0.00     0.128 C 
BRANCH   5   6
ATOM      6  C   UNL d   1     -52.861  24.267  39.283  0.00  0.00     0.137 C 
BRANCH   6   7
ATOM      7  O   UNL d   1     -53.510  24.000  39.716  0.00  0.00    -0.325 OA
ATOM      8  C   UNL d   1     -53.394  23.621  40.430  0.00  0.00     0.182 C 
ENDBRANCH   6   7
ENDBRANCH   5   6
ENDBRANCH   4   5
ENDBRANCH   2   4
ENDBRANCH   1   2
BRANCH   1   9
ATOM      9  C   UNL d   1     -51.755  26.358  36.674  0.00  0.00     0.082 C 
BRANCH   9  10
ATOM     10  C   UNL d   1     -51.335  25.890  36.135  0.00  0.00     0.021 C 
BRANCH  10  11
ATOM     11  C   UNL d   1     -51.319  26.088  35.338  0.00  0.00     0.021 A 
ATOM     12  C   UNL d   1     -50.913  26.737  34.998  0.00  0.00     0.082 A 
ATOM     13  N   UNL d   1     -51.050  26.721  34.186  0.00  0.00    -0.246 NA
ATOM     14  C   UNL d   1     -50.457  27.290  35.412  0.00  0.00     0.021 C 
ATOM     15  C   UNL d   1     -51.534  26.076  34.012  0.00  0.00     0.082 A 
ATOM     16  C   UNL d   1     -51.697  25.687  34.727  0.00  0.00     0.021 A 
ATOM     17  C   UNL d   1     -51.846  25.790  33.306  0.00  0.00     0.021 A 
ATOM     18  C   UNL d   1     -52.172  25.017  34.721  0.00  0.00     0.026 A 
ATOM     19  C   UNL d   1     -52.486  24.728  34.012  0.00  0.00     0.094 A 
ATOM     20  C   UNL d   1     -52.317  25.123  33.307  0.00  0.00     0.026 A 
BRANCH  19  21
ATOM     21  O   UNL d   1     -52.963  24.055  34.010  0.00  0.00    -0.328 OA
ATOM     22  C   UNL d   1     -52.797  23.438  33.480  0.00  0.00     0.181 C 
ENDBRANCH  19  21
ENDBRANCH  10  11
ENDBRANCH   9  10
ENDBRANCH   1   9
BRANCH   1  23
ATOM     23  C   UNL d   1     -51.052  26.349  37.926  0.00  0.00     0.107 C 
BRANCH  23  24
ATOM     24  C   UNL d   1     -50.983  27.076  38.327  0.00  0.00     0.118 A 
ATOM     25  O   UNL d   1     -51.606  27.587  38.523  0.00  0.00    -0.304 OA
ATOM     26  C   UNL d   1     -51.286  28.240  38.916  0.00  0.00     0.123 A 
ATOM     27  C   UNL d   1     -50.478  28.131  38.961  0.00  0.00     0.029 A 
ATOM     28  C   UNL d   1     -50.297  27.408  38.594  0.00  0.00     0.028 A 
ENDBRANCH  23  24
ENDBRANCH   1  23
TORSDOF 11
ENDMDL
MODEL 5
REMARK VINA RESULT:      76.5      4.000      5.875
REMARK  11 active torsions:
REMARK  status: ('A' for Active; 'I' for Inactive)
REMARK    1  A    between atoms: C_8  and  C_1 
REMARK    2  A    between atoms: C_6  and  N_7 
REMARK    3  A    between atoms: N_19  and  C_6 
REMARK    4  A    between atoms: N_7  and  C_14 
REMARK    5  A    between atoms: C_11  and  N_7 
REMARK    6  A    between atoms: C_14  and  C_8 
REMARK    7  A    between atoms: C_9  and  C_11 
REMARK    8  A    between atoms: C_25  and  N_19 
REMARK    9  A    between atoms: O_23  and  C_20 
REMARK   10  A    between atoms: O_24  and  C_26 
REMARK   11  A    between atoms: C_26  and  C_25 
ROOT
ATOM      1  N   UNL d   1     -52.125  25.194  34.685  0.00  0.00    -0.279 N 
ENDROOT
BRANCH   1   2
ATOM      2  C   UNL d   1     -51.724  25.393  33.994  0.00  0.00     0.206 C 
ATOM      3  S   UNL d   1     -52.152  25.565  33.306  0.00  0.00    -0.038 SA
BRANCH   2   4
ATOM      4  N   UNL d   1     -50.898  25.423  33.986  0.00  0.00    -0.215 NA
BRANCH   4   5
ATOM      5  C   UNL d   1     -50.488  25.115  33.339  0.00  0.00     0.128 C 
BRANCH   5   6
ATOM      6  C   UNL d   1     -49.887  24.567  33.452  0.00  0.00     0.137 C 
BRANCH   6   7
ATOM      7  O   UNL d   1     -50.030  23.769  33.306  0.00  0.00    -0.325 OA
ATOM      8  C   UNL d   1     -49.490  23.207  33.552  0.00  0.00     0.182 C 
ENDBRANCH   6   7
ENDBRANCH   5   6
ENDBRANCH   4   5
ENDBRANCH   2   4
ENDBRANCH   1   2
BRANCH   1   9
ATOM      9  C   UNL d   1     -52.223  25.763  35.290  0.00  0.00     0.082 C 
BRANCH   9  10
ATOM     10  C   UNL d   1     -52.295  25.524  36.080  0.00  0.00     0.021 C 
BRANCH  10  11
ATOM     11  C   UNL d   1     -51.955  25.968  36.681  0.00  0.00     0.021 A 
ATOM     12  C   UNL d   1     -51.417  26.602  36.584  0.00  0.00     0.082 A 
ATOM     13  N   UNL d   1     -51.222  26.883  37.333  0.00  0.00    -0.246 NA
ATOM     14  C   UNL d   1     -51.136  26.887  35.860  0.00  0.00     0.021 C 
ATOM     15  C   UNL d   1     -51.628  26.437  37.897  0.00  0.00     0.082 A 
ATOM     16  C   UNL d   1     -52.080  25.873  37.488  0.00  0.00     0.021 A 
ATOM     17  C   UNL d   1     -51.649  26.468  38.719  0.00  0.00     0.021 A 
ATOM     18  C   UNL d   1     -52.546  25.347  37.915  0.00  0.00     0.026 A 
ATOM     19  C   UNL d   1     -52.568  25.376  38.741  0.00  0.00     0.094 A 
ATOM     20  C   UNL d   1     -52.115  25.942  39.136  0.00  0.00     0.026 A 
BRANCH  19  21
ATOM     21  O   UNL d   1     -53.037  24.847  39.165  0.00  0.00    -0.328 OA
ATOM     22  C   UNL d   1     -52.699  24.152  39.468  0.00  0.00     0.181 C 
ENDBRANCH  19  21
ENDBRANCH  10  11
ENDBRANCH   9  10
ENDBRANCH   1   9
BRANCH   1  23
ATOM     23  C   UNL d   1     -52.427  24.437  34.779  0.00  0.00     0.107 C 
BRANCH  23  24
ATOM     24  C   UNL d   1     -52.994  24.146  34.242  0.00  0.00     0.118 A 
ATOM     25  O   UNL d   1     -53.186  23.349  34.120  0.00  0.00    -0.304 OA
ATOM     26  C   UNL d   1     -53.776  23.315  33.540  0.00  0.00     0.123 A 
ATOM     27  C   UNL d   1     -53.942  24.080  33.311  0.00  0.00     0.029 A 
ATOM     28  C   UNL d   1     -53.455  24.590  33.750  0.00  0.00     0.028 A 
ENDBRANCH  23  24
ENDBRANCH   1  23
TORSDOF 11
ENDMDL
