MODEL 1
REMARK VINA RESULT:      62.4      0.000      0.000
REMARK  5 active torsions:
REMARK  status: ('A' for Active; 'I' for Inactive)
REMARK    1  A    between atoms: C_2  and  N_1 
REMARK       I    between atoms: C_3  and  N_1 
REMARK    2  A    between atoms: N_7  and  C_2 
REMARK    3  A    between atoms: C_4  and  C_3 
REMARK    4  A    between atoms: N_5  and  C_9 
REMARK    5  A    between atoms: C_17  and  N_7 
ROOT
ATOM      1  C   UNL d   1      61.274  47.125  50.216  0.00  0.00     0.064 A 
ATOM      2  C   UNL d   1      61.151  47.343  51.001  0.00  0.00     0.019 A 
ATOM      3  C   UNL d   1      61.184  47.699  49.614  0.00  0.00     0.019 A 
ATOM      4  C   UNL d   1      60.853  48.682  50.593  0.00  0.00     0.084 A 
ATOM      5  C   UNL d   1      60.973  48.479  49.802  0.00  0.00     0.021 A 
ATOM      6  C   UNL d   1      60.944  48.108  51.193  0.00  0.00     0.021 A 
ENDROOT
BRANCH   4   7
ATOM      7  N   UNL d   1      60.648  49.438  50.788  0.00  0.00    -0.217 NA
BRANCH   7   8
ATOM      8  C   UNL d   1      59.960  49.580  51.222  0.00  0.00     0.224 C 
ATOM      9  S   UNL d   1      60.004  49.697  52.029  0.00  0.00    -0.037 SA
BRANCH   8  10
ATOM     10  N   UNL d   1      59.221  49.603  50.824  0.00  0.00    -0.178 NA
ATOM     11  C   UNL d   1      58.539  49.587  51.256  0.00  0.00     0.287 C 
ATOM     12  O   UNL d   1      58.574  49.549  52.077  0.00  0.00    -0.265 OA
BRANCH  11  13
ATOM     13  C   UNL d   1      57.821  49.608  50.883  0.00  0.00     0.087 A 
ATOM     14  S   UNL d   1      57.088  49.535  51.248  0.00  0.00    -0.082 SA
ATOM     15  C   UNL d   1      56.492  49.589  50.654  0.00  0.00     0.036 A 
ATOM     16  C   UNL d   1      56.880  49.692  49.945  0.00  0.00     0.008 A 
ATOM     17  C   UNL d   1      57.691  49.706  50.065  0.00  0.00     0.012 A 
ENDBRANCH  11  13
ENDBRANCH   8  10
ENDBRANCH   7   8
ENDBRANCH   4   7
BRANCH   1  18
ATOM     18  N   UNL d   1      61.480  46.362  50.031  0.00  0.00    -0.300 N 
ATOM     19  C   UNL d   1      62.223  46.197  49.729  0.00  0.00     0.107 A 
ATOM     20  C   UNL d   1      62.443  45.425  49.537  0.00  0.00     0.142 A 
ATOM     21  O   UNL d   1      61.912  44.811  49.649  0.00  0.00    -0.300 OA
ATOM     22  C   UNL d   1      61.160  44.965  49.953  0.00  0.00     0.142 A 
ATOM     23  C   UNL d   1      60.939  45.740  50.146  0.00  0.00     0.107 A 
ENDBRANCH   1  18
TORSDOF 5
ENDMDL
