MODEL 1
REMARK VINA RESULT:      -2.6      0.000      0.000
REMARK  2 active torsions:
REMARK  status: ('A' for Active; 'I' for Inactive)
REMARK    1  A    between atoms: C_8  and  N_1 
REMARK    2  A    between atoms: N_5  and  C_9 
ROOT
ATOM      1  N   UNL d   1      32.546  21.676 -21.300  0.00  0.00    -0.192 N 
ATOM      2  C   UNL d   1      32.833  21.692 -20.523  0.00  0.00     0.281 A 
ATOM      3  N   UNL d   1      32.154  22.307 -21.594  0.00  0.00    -0.120 NA
ATOM      4  C   UNL d   1      32.031  22.980 -21.131  0.00  0.00     0.296 A 
ATOM      5  C   UNL d   1      32.718  22.356 -20.048  0.00  0.00     0.063 A 
ATOM      6  C   UNL d   1      32.297  23.035 -20.365  0.00  0.00     0.064 A 
ATOM      7  O   UNL d   1      33.241  21.044 -20.207  0.00  0.00    -0.265 OA
ATOM      8  O   UNL d   1      31.633  23.614 -21.439  0.00  0.00    -0.264 OA
ATOM      9  C   UNL d   1      32.997  22.386 -19.277  0.00  0.00     0.005 A 
ATOM     10  C   UNL d   1      32.193  23.680 -19.884  0.00  0.00     0.005 A 
ATOM     11  C   UNL d   1      32.872  23.066 -18.811  0.00  0.00     0.000 A 
ATOM     12  C   UNL d   1      32.479  23.702 -19.101  0.00  0.00     0.000 A 
ENDROOT
BRANCH   1  13
ATOM     13  C   UNL d   1      32.655  21.030 -21.769  0.00  0.00     0.086 A 
ATOM     14  C   UNL d   1      32.295  20.311 -21.581  0.00  0.00     0.021 A 
ATOM     15  C   UNL d   1      32.422  19.648 -22.084  0.00  0.00     0.025 A 
ATOM     16  C   UNL d   1      32.908  19.732 -22.762  0.00  0.00     0.127 A 
ATOM     17  C   UNL d   1      33.241  20.451 -22.911  0.00  0.00     0.025 A 
ATOM     18  C   UNL d   1      33.137  21.105 -22.446  0.00  0.00     0.021 A 
BRANCH  16  19
ATOM     19  N   UNL d   1      33.031  19.069 -23.259  0.00  0.00    -0.114 N 
ATOM     20  O   UNL d   1      33.081  18.336 -22.914  0.00  0.00    -0.532 OA
ATOM     21  O   UNL d   1      33.105  19.119 -24.085  0.00  0.00    -0.532 OA
ENDBRANCH  16  19
ENDBRANCH   1  13
TORSDOF 2
ENDMDL
MODEL 2
REMARK VINA RESULT:      -2.1      1.337      4.282
REMARK  2 active torsions:
REMARK  status: ('A' for Active; 'I' for Inactive)
REMARK    1  A    between atoms: C_8  and  N_1 
REMARK    2  A    between atoms: N_5  and  C_9 
ROOT
ATOM      1  N   UNL d   1      32.945  20.603 -22.254  0.00  0.00    -0.192 N 
ATOM      2  C   UNL d   1      33.032  19.813 -22.020  0.00  0.00     0.281 A 
ATOM      3  N   UNL d   1      32.922  20.788 -23.030  0.00  0.00    -0.120 NA
ATOM      4  C   UNL d   1      32.983  20.200 -23.607  0.00  0.00     0.296 A 
ATOM      5  C   UNL d   1      33.094  19.213 -22.583  0.00  0.00     0.063 A 
ATOM      6  C   UNL d   1      33.069  19.414 -23.418  0.00  0.00     0.064 A 
ATOM      7  O   UNL d   1      33.057  19.607 -21.217  0.00  0.00    -0.265 OA
ATOM      8  O   UNL d   1      32.958  20.400 -24.391  0.00  0.00    -0.264 OA
ATOM      9  C   UNL d   1      33.180  18.427 -22.365  0.00  0.00     0.005 A 
ATOM     10  C   UNL d   1      33.131  18.812 -23.959  0.00  0.00     0.005 A 
ATOM     11  C   UNL d   1      33.241  17.834 -22.949  0.00  0.00     0.000 A 
ATOM     12  C   UNL d   1      33.218  18.015 -23.730  0.00  0.00     0.000 A 
ENDROOT
BRANCH   1  13
ATOM     13  C   UNL d   1      32.884  21.192 -21.708  0.00  0.00     0.086 A 
ATOM     14  C   UNL d   1      32.476  21.067 -21.001  0.00  0.00     0.021 A 
ATOM     15  C   UNL d   1      32.424  21.697 -20.445  0.00  0.00     0.025 A 
ATOM     16  C   UNL d   1      32.785  22.432 -20.619  0.00  0.00     0.127 A 
ATOM     17  C   UNL d   1      33.174  22.514 -21.321  0.00  0.00     0.025 A 
ATOM     18  C   UNL d   1      33.241  21.928 -21.874  0.00  0.00     0.021 A 
BRANCH  16  19
ATOM     19  N   UNL d   1      32.730  23.055 -20.061  0.00  0.00    -0.114 N 
ATOM     20  O   UNL d   1      32.274  23.699 -20.251  0.00  0.00    -0.532 OA
ATOM     21  O   UNL d   1      33.115  23.052 -19.325  0.00  0.00    -0.532 OA
ENDBRANCH  16  19
ENDBRANCH   1  13
TORSDOF 2
ENDMDL
MODEL 3
REMARK VINA RESULT:      -2.0      5.120      6.570
REMARK  2 active torsions:
REMARK  status: ('A' for Active; 'I' for Inactive)
REMARK    1  A    between atoms: C_8  and  N_1 
REMARK    2  A    between atoms: N_5  and  C_9 
ROOT
ATOM      1  N   UNL d   1      30.693  16.686 -23.935  0.00  0.00    -0.192 N 
ATOM      2  C   UNL d   1      30.881  17.438 -24.229  0.00  0.00     0.281 A 
ATOM      3  N   UNL d   1      31.270  16.213 -23.650  0.00  0.00    -0.120 NA
ATOM      4  C   UNL d   1      32.057  16.465 -23.644  0.00  0.00     0.296 A 
ATOM      5  C   UNL d   1      31.661  17.704 -24.230  0.00  0.00     0.063 A 
ATOM      6  C   UNL d   1      32.282  17.194 -23.923  0.00  0.00     0.064 A 
ATOM      7  O   UNL d   1      30.291  17.938 -24.527  0.00  0.00    -0.265 OA
ATOM      8  O   UNL d   1      32.634  15.977 -23.353  0.00  0.00    -0.264 OA
ATOM      9  C   UNL d   1      31.862  18.445 -24.517  0.00  0.00     0.005 A 
ATOM     10  C   UNL d   1      33.045  17.471 -23.931  0.00  0.00     0.005 A 
ATOM     11  C   UNL d   1      32.657  18.698 -24.510  0.00  0.00     0.000 A 
ATOM     12  C   UNL d   1      33.240  18.227 -24.226  0.00  0.00     0.000 A 
ENDROOT
BRANCH   1  13
ATOM     13  C   UNL d   1      29.932  16.421 -23.932  0.00  0.00     0.086 A 
ATOM     14  C   UNL d   1      29.567  16.188 -24.635  0.00  0.00     0.021 A 
ATOM     15  C   UNL d   1      28.772  15.914 -24.609  0.00  0.00     0.025 A 
ATOM     16  C   UNL d   1      28.369  15.883 -23.875  0.00  0.00     0.127 A 
ATOM     17  C   UNL d   1      28.761  16.120 -23.211  0.00  0.00     0.025 A 
ATOM     18  C   UNL d   1      29.525  16.388 -23.205  0.00  0.00     0.021 A 
BRANCH  16  19
ATOM     19  N   UNL d   1      27.578  15.610 -23.855  0.00  0.00    -0.114 N 
ATOM     20  O   UNL d   1      27.208  15.456 -24.561  0.00  0.00    -0.532 OA
ATOM     21  O   UNL d   1      27.149  15.487 -23.154  0.00  0.00    -0.532 OA
ENDBRANCH  16  19
ENDBRANCH   1  13
TORSDOF 2
ENDMDL
MODEL 4
REMARK VINA RESULT:      -1.7      2.586      5.600
REMARK  2 active torsions:
REMARK  status: ('A' for Active; 'I' for Inactive)
REMARK    1  A    between atoms: C_8  and  N_1 
REMARK    2  A    between atoms: N_5  and  C_9 
ROOT
ATOM      1  N   UNL d   1      32.555  18.224 -23.406  0.00  0.00    -0.192 N 
ATOM      2  C   UNL d   1      32.006  18.043 -24.000  0.00  0.00     0.281 A 
ATOM      3  N   UNL d   1      32.951  17.637 -23.036  0.00  0.00    -0.120 NA
ATOM      4  C   UNL d   1      32.820  16.846 -23.239  0.00  0.00     0.296 A 
ATOM      5  C   UNL d   1      31.865  17.259 -24.215  0.00  0.00     0.063 A 
ATOM      6  C   UNL d   1      32.292  16.628 -23.816  0.00  0.00     0.064 A 
ATOM      7  O   UNL d   1      31.589  18.642 -24.392  0.00  0.00    -0.265 OA
ATOM      8  O   UNL d   1      33.227  16.260 -22.858  0.00  0.00    -0.264 OA
ATOM      9  C   UNL d   1      31.325  17.065 -24.801  0.00  0.00     0.005 A 
ATOM     10  C   UNL d   1      32.140  15.863 -24.039  0.00  0.00     0.005 A 
ATOM     11  C   UNL d   1      31.194  16.266 -25.004  0.00  0.00     0.000 A 
ATOM     12  C   UNL d   1      31.589  15.674 -24.636  0.00  0.00     0.000 A 
ENDROOT
BRANCH   1  13
ATOM     13  C   UNL d   1      32.697  18.988 -23.193  0.00  0.00     0.086 A 
ATOM     14  C   UNL d   1      32.557  19.238 -22.418  0.00  0.00     0.021 A 
ATOM     15  C   UNL d   1      32.713  20.040 -22.217  0.00  0.00     0.025 A 
ATOM     16  C   UNL d   1      33.005  20.565 -22.801  0.00  0.00     0.127 A 
ATOM     17  C   UNL d   1      33.128  20.280 -23.546  0.00  0.00     0.025 A 
ATOM     18  C   UNL d   1      32.988  19.515 -23.770  0.00  0.00     0.021 A 
BRANCH  16  19
ATOM     19  N   UNL d   1      33.158  21.362 -22.595  0.00  0.00    -0.114 N 
ATOM     20  O   UNL d   1      33.239  21.904 -23.194  0.00  0.00    -0.532 OA
ATOM     21  O   UNL d   1      33.231  21.630 -21.812  0.00  0.00    -0.532 OA
ENDBRANCH  16  19
ENDBRANCH   1  13
TORSDOF 2
ENDMDL
MODEL 5
REMARK VINA RESULT:      -1.6      5.559      6.831
REMARK  2 active torsions:
REMARK  status: ('A' for Active; 'I' for Inactive)
REMARK    1  A    between atoms: C_8  and  N_1 
REMARK    2  A    between atoms: N_5  and  C_9 
ROOT
ATOM      1  N   UNL d   1      30.276  16.595 -23.981  0.00  0.00    -0.192 N 
ATOM      2  C   UNL d   1      30.905  16.188 -23.625  0.00  0.00     0.281 A 
ATOM      3  N   UNL d   1      30.420  17.252 -24.412  0.00  0.00    -0.120 NA
ATOM      4  C   UNL d   1      31.191  17.534 -24.510  0.00  0.00     0.296 A 
ATOM      5  C   UNL d   1      31.680  16.456 -23.713  0.00  0.00     0.063 A 
ATOM      6  C   UNL d   1      31.833  17.163 -24.177  0.00  0.00     0.064 A 
ATOM      7  O   UNL d   1      30.770  15.506 -23.175  0.00  0.00    -0.265 OA
ATOM      8  O   UNL d   1      31.323  18.200 -24.949  0.00  0.00    -0.264 OA
ATOM      9  C   UNL d   1      32.312  16.063 -23.367  0.00  0.00     0.005 A 
ATOM     10  C   UNL d   1      32.602  17.413 -24.253  0.00  0.00     0.005 A 
ATOM     11  C   UNL d   1      33.089  16.349 -23.466  0.00  0.00     0.000 A 
ATOM     12  C   UNL d   1      33.238  17.008 -23.898  0.00  0.00     0.000 A 
ENDROOT
BRANCH   1  13
ATOM     13  C   UNL d   1      29.517  16.338 -23.898  0.00  0.00     0.086 A 
ATOM     14  C   UNL d   1      29.236  15.711 -24.356  0.00  0.00     0.021 A 
ATOM     15  C   UNL d   1      28.440  15.459 -24.255  0.00  0.00     0.025 A 
ATOM     16  C   UNL d   1      27.952  15.846 -23.695  0.00  0.00     0.127 A 
ATOM     17  C   UNL d   1      28.265  16.455 -23.267  0.00  0.00     0.025 A 
ATOM     18  C   UNL d   1      29.026  16.719 -23.343  0.00  0.00     0.021 A 
BRANCH  16  19
ATOM     19  N   UNL d   1      27.160  15.591 -23.598  0.00  0.00    -0.114 N 
ATOM     20  O   UNL d   1      26.718  15.453 -24.264  0.00  0.00    -0.532 OA
ATOM     21  O   UNL d   1      26.801  15.470 -22.858  0.00  0.00    -0.532 OA
ENDBRANCH  16  19
ENDBRANCH   1  13
TORSDOF 2
ENDMDL
MODEL 6
REMARK VINA RESULT:      -0.0      5.387      7.012
REMARK  2 active torsions:
REMARK  status: ('A' for Active; 'I' for Inactive)
REMARK    1  A    between atoms: C_8  and  N_1 
REMARK    2  A    between atoms: N_5  and  C_9 
ROOT
ATOM      1  N   UNL d   1      29.781  16.470 -23.788  0.00  0.00    -0.192 N 
ATOM      2  C   UNL d   1      29.086  16.477 -24.239  0.00  0.00     0.281 A 
ATOM      3  N   UNL d   1      29.783  16.135 -23.063  0.00  0.00    -0.120 NA
ATOM      4  C   UNL d   1      29.096  15.793 -22.754  0.00  0.00     0.296 A 
ATOM      5  C   UNL d   1      28.393  16.140 -23.946  0.00  0.00     0.063 A 
ATOM      6  C   UNL d   1      28.396  15.780 -23.166  0.00  0.00     0.064 A 
ATOM      7  O   UNL d   1      29.072  16.821 -24.993  0.00  0.00    -0.265 OA
ATOM      8  O   UNL d   1      29.109  15.457 -22.018  0.00  0.00    -0.264 OA
ATOM      9  C   UNL d   1      27.698  16.139 -24.382  0.00  0.00     0.005 A 
ATOM     10  C   UNL d   1      27.705  15.453 -22.892  0.00  0.00     0.005 A 
ATOM     11  C   UNL d   1      27.007  15.794 -24.069  0.00  0.00     0.000 A 
ATOM     12  C   UNL d   1      27.003  15.456 -23.342  0.00  0.00     0.000 A 
ENDROOT
BRANCH   1  13
ATOM     13  C   UNL d   1      30.461  16.798 -24.069  0.00  0.00     0.086 A 
ATOM     14  C   UNL d   1      30.521  17.615 -24.171  0.00  0.00     0.021 A 
ATOM     15  C   UNL d   1      31.241  17.937 -24.466  0.00  0.00     0.025 A 
ATOM     16  C   UNL d   1      31.878  17.424 -24.649  0.00  0.00     0.127 A 
ATOM     17  C   UNL d   1      31.779  16.631 -24.536  0.00  0.00     0.025 A 
ATOM     18  C   UNL d   1      31.100  16.294 -24.254  0.00  0.00     0.021 A 
BRANCH  16  19
ATOM     19  N   UNL d   1      32.591  17.750 -24.943  0.00  0.00    -0.114 N 
ATOM     20  O   UNL d   1      33.210  17.246 -25.090  0.00  0.00    -0.532 OA
ATOM     21  O   UNL d   1      32.703  18.560 -25.091  0.00  0.00    -0.532 OA
ENDBRANCH  16  19
ENDBRANCH   1  13
TORSDOF 2
ENDMDL
