MODEL 1
REMARK VINA RESULT:      -5.1      0.000      0.000
REMARK  3 active torsions:
REMARK  status: ('A' for Active; 'I' for Inactive)
REMARK    1  A    between atoms: C_7  and  C_1 
REMARK    2  A    between atoms: C_6  and  C_3 
REMARK    3  A    between atoms: O_15  and  C_7 
ROOT
ATOM      1  C   UNL d   1      58.139  -0.490  30.059  0.00  0.00     0.167 A 
ATOM      2  C   UNL d   1      57.854  -0.794  30.774  0.00  0.00     0.047 A 
ATOM      3  C   UNL d   1      57.364  -0.225  31.115  0.00  0.00     0.105 A 
ATOM      4  N   UNL d   1      57.344   0.433  30.610  0.00  0.00    -0.148 NA
ATOM      5  N   UNL d   1      57.824   0.262  29.962  0.00  0.00    -0.143 NA
ENDROOT
BRANCH   3   6
ATOM      6  C   UNL d   1      56.961  -0.297  31.836  0.00  0.00     0.030 A 
ATOM      7  C   UNL d   1      57.194   0.158  32.484  0.00  0.00     0.060 A 
ATOM      8  C   UNL d   1      56.798   0.090  33.201  0.00  0.00     0.023 A 
ATOM      9 CL   UNL d   1      57.829   0.682  32.408  0.00  0.00    -0.082 Cl
ATOM     10  C   UNL d   1      56.159  -0.441  33.273  0.00  0.00     0.059 A 
ATOM     11  C   UNL d   1      55.931  -0.893  32.617  0.00  0.00     0.011 A 
ATOM     12 CL   UNL d   1      55.762  -0.509  33.990  0.00  0.00    -0.082 Cl
ATOM     13  C   UNL d   1      56.332  -0.821  31.901  0.00  0.00     0.003 A 
ENDBRANCH   3   6
BRANCH   1  14
ATOM     14  C   UNL d   1      58.647  -0.876  29.538  0.00  0.00     0.316 C 
ATOM     15  O   UNL d   1      59.330  -0.494  29.277  0.00  0.00    -0.257 OA
BRANCH  14  16
ATOM     16  O   UNL d   1      58.476  -1.642  29.280  0.00  0.00    -0.294 OA
ATOM     17  C   UNL d   1      59.021  -2.063  28.832  0.00  0.00     0.185 C 
ENDBRANCH  14  16
ENDBRANCH   1  14
TORSDOF 3
ENDMDL
MODEL 2
REMARK VINA RESULT:      -4.4      2.613      4.054
REMARK  3 active torsions:
REMARK  status: ('A' for Active; 'I' for Inactive)
REMARK    1  A    between atoms: C_7  and  C_1 
REMARK    2  A    between atoms: C_6  and  C_3 
REMARK    3  A    between atoms: O_15  and  C_7 
ROOT
ATOM      1  C   UNL d   1      55.908   0.040  33.117  0.00  0.00     0.167 A 
ATOM      2  C   UNL d   1      56.347   0.462  32.557  0.00  0.00     0.047 A 
ATOM      3  C   UNL d   1      56.847  -0.070  32.173  0.00  0.00     0.105 A 
ATOM      4  N   UNL d   1      56.718  -0.823  32.495  0.00  0.00    -0.148 NA
ATOM      5  N   UNL d   1      56.138  -0.747  33.076  0.00  0.00    -0.143 NA
ENDROOT
BRANCH   3   6
ATOM      6  C   UNL d   1      57.385   0.115  31.569  0.00  0.00     0.030 A 
ATOM      7  C   UNL d   1      58.106   0.471  31.757  0.00  0.00     0.060 A 
ATOM      8  C   UNL d   1      58.642   0.656  31.162  0.00  0.00     0.023 A 
ATOM      9 CL   UNL d   1      58.285   0.639  32.545  0.00  0.00    -0.082 Cl
ATOM     10  C   UNL d   1      58.456   0.484  30.367  0.00  0.00     0.059 A 
ATOM     11  C   UNL d   1      57.730   0.127  30.189  0.00  0.00     0.011 A 
ATOM     12 CL   UNL d   1      58.993   0.669  29.773  0.00  0.00    -0.082 Cl
ATOM     13  C   UNL d   1      57.197  -0.057  30.789  0.00  0.00     0.003 A 
ENDBRANCH   3   6
BRANCH   1  14
ATOM     14  C   UNL d   1      55.342   0.357  33.625  0.00  0.00     0.316 C 
ATOM     15  O   UNL d   1      54.634   0.647  33.315  0.00  0.00    -0.257 OA
BRANCH  14  16
ATOM     16  O   UNL d   1      55.480   0.384  34.439  0.00  0.00    -0.294 OA
ATOM     17  C   UNL d   1      54.906   0.674  34.950  0.00  0.00     0.185 C 
ENDBRANCH  14  16
ENDBRANCH   1  14
TORSDOF 3
ENDMDL
MODEL 3
REMARK VINA RESULT:      -4.2      1.391      1.615
REMARK  3 active torsions:
REMARK  status: ('A' for Active; 'I' for Inactive)
REMARK    1  A    between atoms: C_7  and  C_1 
REMARK    2  A    between atoms: C_6  and  C_3 
REMARK    3  A    between atoms: O_15  and  C_7 
ROOT
ATOM      1  C   UNL d   1      57.728  -0.184  30.677  0.00  0.00     0.167 A 
ATOM      2  C   UNL d   1      57.306   0.199  31.278  0.00  0.00     0.047 A 
ATOM      3  C   UNL d   1      56.856  -0.369  31.672  0.00  0.00     0.105 A 
ATOM      4  N   UNL d   1      56.998  -1.104  31.316  0.00  0.00    -0.148 NA
ATOM      5  N   UNL d   1      57.537  -0.981  30.704  0.00  0.00    -0.143 NA
ENDROOT
BRANCH   3   6
ATOM      6  C   UNL d   1      56.348  -0.229  32.313  0.00  0.00     0.030 A 
ATOM      7  C   UNL d   1      56.038  -0.865  32.738  0.00  0.00     0.060 A 
ATOM      8  C   UNL d   1      55.535  -0.732  33.374  0.00  0.00     0.023 A 
ATOM      9 CL   UNL d   1      56.237  -1.637  32.520  0.00  0.00    -0.082 Cl
ATOM     10  C   UNL d   1      55.337   0.049  33.590  0.00  0.00     0.059 A 
ATOM     11  C   UNL d   1      55.653   0.682  33.158  0.00  0.00     0.011 A 
ATOM     12 CL   UNL d   1      54.834   0.183  34.226  0.00  0.00    -0.082 Cl
ATOM     13  C   UNL d   1      56.157   0.542  32.521  0.00  0.00     0.003 A 
ENDBRANCH   3   6
BRANCH   1  14
ATOM     14  C   UNL d   1      58.248   0.176  30.148  0.00  0.00     0.316 C 
ATOM     15  O   UNL d   1      59.012   0.365  30.394  0.00  0.00    -0.257 OA
BRANCH  14  16
ATOM     16  O   UNL d   1      58.006   0.346  29.377  0.00  0.00    -0.294 OA
ATOM     17  C   UNL d   1      58.533   0.667  28.835  0.00  0.00     0.185 C 
ENDBRANCH  14  16
ENDBRANCH   1  14
TORSDOF 3
ENDMDL
MODEL 4
REMARK VINA RESULT:      -3.6      2.419      4.360
REMARK  3 active torsions:
REMARK  status: ('A' for Active; 'I' for Inactive)
REMARK    1  A    between atoms: C_7  and  C_1 
REMARK    2  A    between atoms: C_6  and  C_3 
REMARK    3  A    between atoms: O_15  and  C_7 
ROOT
ATOM      1  C   UNL d   1      58.199  -0.541  29.749  0.00  0.00     0.167 A 
ATOM      2  C   UNL d   1      58.493  -1.311  29.823  0.00  0.00     0.047 A 
ATOM      3  C   UNL d   1      58.915  -1.488  29.136  0.00  0.00     0.105 A 
ATOM      4  N   UNL d   1      58.882  -0.827  28.636  0.00  0.00    -0.148 NA
ATOM      5  N   UNL d   1      58.439  -0.248  29.021  0.00  0.00    -0.143 NA
ENDROOT
BRANCH   3   6
ATOM      6  C   UNL d   1      59.303  -2.202  28.973  0.00  0.00     0.030 A 
ATOM      7  C   UNL d   1      60.128  -2.231  28.980  0.00  0.00     0.060 A 
ATOM      8  C   UNL d   1      60.519  -2.937  28.820  0.00  0.00     0.023 A 
ATOM      9 CL   UNL d   1      60.560  -1.547  29.150  0.00  0.00    -0.082 Cl
ATOM     10  C   UNL d   1      60.079  -3.625  28.650  0.00  0.00     0.059 A 
ATOM     11  C   UNL d   1      59.251  -3.586  28.645  0.00  0.00     0.011 A 
ATOM     12 CL   UNL d   1      60.469  -4.330  28.489  0.00  0.00    -0.082 Cl
ATOM     13  C   UNL d   1      58.865  -2.876  28.806  0.00  0.00     0.003 A 
ENDBRANCH   3   6
BRANCH   1  14
ATOM     14  C   UNL d   1      57.745  -0.142  30.309  0.00  0.00     0.316 C 
ATOM     15  O   UNL d   1      57.701   0.681  30.286  0.00  0.00    -0.257 OA
BRANCH  14  16
ATOM     16  O   UNL d   1      57.337  -0.563  30.891  0.00  0.00    -0.294 OA
ATOM     17  C   UNL d   1      57.033  -0.178  31.550  0.00  0.00     0.185 C 
ENDBRANCH  14  16
ENDBRANCH   1  14
TORSDOF 3
ENDMDL
