MODEL 1
REMARK VINA RESULT:      -8.9      0.000      0.000
REMARK  0 active torsions:
REMARK  status: ('A' for Active; 'I' for Inactive)
ROOT
ATOM      1  C   UNL d   1      53.216  33.905  54.056  0.00  0.00     0.063 A 
ATOM      2  N   UNL d   1      53.724  34.806  54.895  0.00  0.00    -0.204 NA
ATOM      3  C   UNL d   1      53.785  34.024  54.632  0.00  0.00     0.099 A 
ATOM      4  C   UNL d   1      53.132  35.149  54.488  0.00  0.00     0.318 A 
ATOM      5  C   UNL d   1      52.798  34.612  53.958  0.00  0.00     0.254 A 
ATOM      6  C   UNL d   1      54.283  33.424  54.847  0.00  0.00     0.076 A 
ATOM      7  C   UNL d   1      54.218  32.680  54.482  0.00  0.00     0.024 A 
ATOM      8  C   UNL d   1      53.145  33.185  53.695  0.00  0.00     0.016 A 
ATOM      9  O   UNL d   1      52.901  35.942  54.598  0.00  0.00    -0.262 OA
ATOM     10  C   UNL d   1      53.649  32.561  53.907  0.00  0.00     0.059 A 
ATOM     11  O   UNL d   1      52.176  34.740  53.434  0.00  0.00    -0.281 OA
ATOM     12 CL   UNL d   1      54.859  33.544  55.430  0.00  0.00    -0.081 Cl
ATOM     13 CL   UNL d   1      53.577  31.801  53.529  0.00  0.00    -0.082 Cl
ENDROOT
TORSDOF 0
ENDMDL
MODEL 2
REMARK VINA RESULT:      -8.9      2.001      2.696
REMARK  0 active torsions:
REMARK  status: ('A' for Active; 'I' for Inactive)
ROOT
ATOM      1  C   UNL d   1      53.713  32.576  53.974  0.00  0.00     0.063 A 
ATOM      2  N   UNL d   1      52.764  32.919  53.105  0.00  0.00    -0.204 NA
ATOM      3  C   UNL d   1      53.259  33.201  53.704  0.00  0.00     0.099 A 
ATOM      4  C   UNL d   1      52.916  32.142  53.017  0.00  0.00     0.318 A 
ATOM      5  C   UNL d   1      53.502  31.902  53.545  0.00  0.00     0.254 A 
ATOM      6  C   UNL d   1      53.345  33.939  54.025  0.00  0.00     0.076 A 
ATOM      7  C   UNL d   1      53.897  34.066  54.632  0.00  0.00     0.024 A 
ATOM      8  C   UNL d   1      54.254  32.689  54.565  0.00  0.00     0.016 A 
ATOM      9  O   UNL d   1      52.524  31.660  52.462  0.00  0.00    -0.262 OA
ATOM     10  C   UNL d   1      54.351  33.441  54.902  0.00  0.00     0.059 A 
ATOM     11  O   UNL d   1      53.822  31.148  53.636  0.00  0.00    -0.281 OA
ATOM     12 CL   UNL d   1      52.885  34.572  53.751  0.00  0.00    -0.081 Cl
ATOM     13 CL   UNL d   1      54.919  33.564  55.525  0.00  0.00    -0.082 Cl
ENDROOT
TORSDOF 0
ENDMDL
MODEL 3
REMARK VINA RESULT:      -8.6      1.502      2.040
REMARK  0 active torsions:
REMARK  status: ('A' for Active; 'I' for Inactive)
ROOT
ATOM      1  C   UNL d   1      53.706  32.752  54.285  0.00  0.00     0.063 A 
ATOM      2  N   UNL d   1      53.115  33.937  54.145  0.00  0.00    -0.204 NA
ATOM      3  C   UNL d   1      53.144  33.162  53.856  0.00  0.00     0.099 A 
ATOM      4  C   UNL d   1      53.647  33.990  54.735  0.00  0.00     0.318 A 
ATOM      5  C   UNL d   1      54.030  33.268  54.843  0.00  0.00     0.254 A 
ATOM      6  C   UNL d   1      52.731  32.796  53.264  0.00  0.00     0.076 A 
ATOM      7  C   UNL d   1      52.877  31.997  53.089  0.00  0.00     0.024 A 
ATOM      8  C   UNL d   1      53.856  31.973  54.122  0.00  0.00     0.016 A 
ATOM      9  O   UNL d   1      53.781  34.690  55.167  0.00  0.00    -0.262 OA
ATOM     10  C   UNL d   1      53.439  31.586  53.518  0.00  0.00     0.059 A 
ATOM     11  O   UNL d   1      54.616  33.085  55.392  0.00  0.00    -0.281 OA
ATOM     12 CL   UNL d   1      52.161  33.212  52.829  0.00  0.00    -0.081 Cl
ATOM     13 CL   UNL d   1      53.595  30.767  53.344  0.00  0.00    -0.082 Cl
ENDROOT
TORSDOF 0
ENDMDL
MODEL 4
REMARK VINA RESULT:      -8.3      1.657      2.353
REMARK  0 active torsions:
REMARK  status: ('A' for Active; 'I' for Inactive)
ROOT
ATOM      1  C   UNL d   1      53.149  33.741  54.116  0.00  0.00     0.063 A 
ATOM      2  N   UNL d   1      53.874  32.649  54.352  0.00  0.00    -0.204 NA
ATOM      3  C   UNL d   1      53.276  32.969  53.878  0.00  0.00     0.099 A 
ATOM      4  C   UNL d   1      54.101  33.216  54.862  0.00  0.00     0.318 A 
ATOM      5  C   UNL d   1      53.667  33.906  54.739  0.00  0.00     0.254 A 
ATOM      6  C   UNL d   1      52.845  32.650  53.272  0.00  0.00     0.076 A 
ATOM      7  C   UNL d   1      52.269  33.107  52.887  0.00  0.00     0.024 A 
ATOM      8  C   UNL d   1      52.590  34.195  53.748  0.00  0.00     0.016 A 
ATOM      9  O   UNL d   1      54.698  33.104  55.434  0.00  0.00    -0.262 OA
ATOM     10  C   UNL d   1      52.141  33.879  53.125  0.00  0.00     0.059 A 
ATOM     11  O   UNL d   1      53.727  34.620  55.145  0.00  0.00    -0.281 OA
ATOM     12 CL   UNL d   1      52.974  31.867  53.031  0.00  0.00    -0.081 Cl
ATOM     13 CL   UNL d   1      51.551  34.354  52.735  0.00  0.00    -0.082 Cl
ENDROOT
TORSDOF 0
ENDMDL
MODEL 5
REMARK VINA RESULT:      -6.7      2.485      3.315
REMARK  0 active torsions:
REMARK  status: ('A' for Active; 'I' for Inactive)
ROOT
ATOM      1  C   UNL d   1      53.480  31.212  53.982  0.00  0.00     0.063 A 
ATOM      2  N   UNL d   1      53.215  31.888  52.865  0.00  0.00    -0.204 NA
ATOM      3  C   UNL d   1      53.210  31.138  53.213  0.00  0.00     0.099 A 
ATOM      4  C   UNL d   1      53.482  32.401  53.411  0.00  0.00     0.318 A 
ATOM      5  C   UNL d   1      53.655  32.009  54.116  0.00  0.00     0.254 A 
ATOM      6  C   UNL d   1      52.994  30.413  52.923  0.00  0.00     0.076 A 
ATOM      7  C   UNL d   1      53.047  29.740  53.406  0.00  0.00     0.024 A 
ATOM      8  C   UNL d   1      53.535  30.562  54.460  0.00  0.00     0.016 A 
ATOM      9  O   UNL d   1      53.567  33.218  53.268  0.00  0.00    -0.262 OA
ATOM     10  C   UNL d   1      53.317  29.814  54.174  0.00  0.00     0.059 A 
ATOM     11  O   UNL d   1      53.944  32.332  54.816  0.00  0.00    -0.281 OA
ATOM     12 CL   UNL d   1      52.720  30.338  52.144  0.00  0.00    -0.081 Cl
ATOM     13 CL   UNL d   1      53.374  29.128  54.675  0.00  0.00    -0.082 Cl
ENDROOT
TORSDOF 0
ENDMDL
