MODEL 1
REMARK VINA RESULT:      -7.1      0.000      0.000
REMARK  4 active torsions:
REMARK  status: ('A' for Active; 'I' for Inactive)
REMARK    1  A    between atoms: C_8  and  C_1 
REMARK    2  A    between atoms: N_5  and  C_2 
REMARK       I    between atoms: C_6  and  N_5 
REMARK    3  A    between atoms: C_10  and  C_6 
REMARK    4  A    between atoms: N_9  and  C_8 
ROOT
ATOM      1  C   UNL d   1     -47.957  12.850  22.818  0.00  0.00     0.042 A 
ATOM      2  C   UNL d   1     -48.539  13.010  22.257  0.00  0.00     0.115 A 
ATOM      3  S   UNL d   1     -49.030  12.349  22.219  0.00  0.00    -0.068 SA
ATOM      4  C   UNL d   1     -48.093  12.100  23.117  0.00  0.00     0.009 A 
ATOM      5  C   UNL d   1     -48.756  11.793  22.746  0.00  0.00     0.031 A 
ATOM      6  C   UNL d   1     -47.633  11.722  23.698  0.00  0.00     0.001 C 
ATOM      7  C   UNL d   1     -49.100  11.050  22.871  0.00  0.00     0.007 C 
ENDROOT
BRANCH   2   8
ATOM      8  N   UNL d   1     -48.621  13.702  21.813  0.00  0.00    -0.201 NA
ATOM      9  C   UNL d   1     -49.297  14.170  21.900  0.00  0.00     0.282 C 
ATOM     10  O   UNL d   1     -49.373  14.855  21.456  0.00  0.00    -0.265 OA
BRANCH   9  11
ATOM     11  C   UNL d   1     -49.890  13.945  22.431  0.00  0.00     0.085 A 
ATOM     12  C   UNL d   1     -49.966  14.349  23.148  0.00  0.00     0.145 A 
ATOM     13  F   UNL d   1     -49.494  14.977  23.398  0.00  0.00    -0.204 F 
ATOM     14  C   UNL d   1     -50.556  14.129  23.682  0.00  0.00     0.030 A 
ATOM     15  C   UNL d   1     -51.064  13.504  23.490  0.00  0.00     0.002 A 
ATOM     16  C   UNL d   1     -50.987  13.103  22.776  0.00  0.00     0.000 A 
ATOM     17  C   UNL d   1     -50.394  13.329  22.245  0.00  0.00     0.007 A 
ENDBRANCH   9  11
ENDBRANCH   2   8
BRANCH   1  18
ATOM     18  C   UNL d   1     -47.315  13.300  23.094  0.00  0.00     0.082 C 
BRANCH  18  19
ATOM     19  N   UNL d   1     -46.603  13.281  22.687  0.00  0.00    -0.304 N 
ATOM     20  C   UNL d   1     -46.068  13.918  22.762  0.00  0.00     0.064 A 
ATOM     21  C   UNL d   1     -46.259  14.559  23.241  0.00  0.00     0.019 C 
ATOM     22  C   UNL d   1     -45.348  13.905  22.354  0.00  0.00     0.018 A 
ATOM     23  C   UNL d   1     -45.161  13.265  21.876  0.00  0.00     0.003 A 
ATOM     24  C   UNL d   1     -45.691  12.634  21.803  0.00  0.00     0.019 A 
ATOM     25  C   UNL d   1     -46.406  12.645  22.206  0.00  0.00     0.080 A 
ENDBRANCH  18  19
ENDBRANCH   1  18
TORSDOF 4
ENDMDL
MODEL 2
REMARK VINA RESULT:      -6.8      1.299      3.746
REMARK  4 active torsions:
REMARK  status: ('A' for Active; 'I' for Inactive)
REMARK    1  A    between atoms: C_8  and  C_1 
REMARK    2  A    between atoms: N_5  and  C_2 
REMARK       I    between atoms: C_6  and  N_5 
REMARK    3  A    between atoms: C_10  and  C_6 
REMARK    4  A    between atoms: N_9  and  C_8 
ROOT
ATOM      1  C   UNL d   1     -48.475  12.690  22.682  0.00  0.00     0.042 A 
ATOM      2  C   UNL d   1     -47.895  13.037  23.150  0.00  0.00     0.115 A 
ATOM      3  S   UNL d   1     -47.535  12.434  23.581  0.00  0.00    -0.068 SA
ATOM      4  C   UNL d   1     -48.470  11.884  22.827  0.00  0.00     0.009 A 
ATOM      5  C   UNL d   1     -47.888  11.728  23.382  0.00  0.00     0.031 A 
ATOM      6  C   UNL d   1     -48.971  11.325  22.467  0.00  0.00     0.001 C 
ATOM      7  C   UNL d   1     -47.682  10.990  23.698  0.00  0.00     0.007 C 
ENDROOT
BRANCH   2   8
ATOM      8  N   UNL d   1     -47.702  13.840  23.185  0.00  0.00    -0.201 NA
ATOM      9  C   UNL d   1     -46.938  14.089  22.988  0.00  0.00     0.282 C 
ATOM     10  O   UNL d   1     -46.753  14.887  23.026  0.00  0.00    -0.265 OA
BRANCH   9  11
ATOM     11  C   UNL d   1     -46.369  13.536  22.756  0.00  0.00     0.085 A 
ATOM     12  C   UNL d   1     -46.170  13.471  21.957  0.00  0.00     0.145 A 
ATOM     13  F   UNL d   1     -46.493  13.918  21.343  0.00  0.00    -0.204 F 
ATOM     14  C   UNL d   1     -45.603  12.920  21.719  0.00  0.00     0.030 A 
ATOM     15  C   UNL d   1     -45.240  12.440  22.288  0.00  0.00     0.002 A 
ATOM     16  C   UNL d   1     -45.440  12.507  23.084  0.00  0.00     0.000 A 
ATOM     17  C   UNL d   1     -46.010  13.060  23.315  0.00  0.00     0.007 A 
ENDBRANCH   9  11
ENDBRANCH   2   8
BRANCH   1  18
ATOM     18  C   UNL d   1     -49.014  13.012  22.136  0.00  0.00     0.082 C 
BRANCH  18  19
ATOM     19  N   UNL d   1     -49.693  13.383  22.410  0.00  0.00    -0.304 N 
ATOM     20  C   UNL d   1     -50.116  13.893  21.901  0.00  0.00     0.064 A 
ATOM     21  C   UNL d   1     -49.851  14.020  21.133  0.00  0.00     0.019 C 
ATOM     22  C   UNL d   1     -50.802  14.270  22.171  0.00  0.00     0.018 A 
ATOM     23  C   UNL d   1     -51.064  14.141  22.937  0.00  0.00     0.003 A 
ATOM     24  C   UNL d   1     -50.644  13.636  23.439  0.00  0.00     0.019 A 
ATOM     25  C   UNL d   1     -49.965  13.261  23.175  0.00  0.00     0.080 A 
ENDBRANCH  18  19
ENDBRANCH   1  18
TORSDOF 4
ENDMDL
MODEL 3
REMARK VINA RESULT:      -6.6      1.396      2.021
REMARK  4 active torsions:
REMARK  status: ('A' for Active; 'I' for Inactive)
REMARK    1  A    between atoms: C_8  and  C_1 
REMARK    2  A    between atoms: N_5  and  C_2 
REMARK       I    between atoms: C_6  and  N_5 
REMARK    3  A    between atoms: C_10  and  C_6 
REMARK    4  A    between atoms: N_9  and  C_8 
ROOT
ATOM      1  C   UNL d   1     -47.908  13.394  22.674  0.00  0.00     0.042 A 
ATOM      2  C   UNL d   1     -48.432  13.070  22.128  0.00  0.00     0.115 A 
ATOM      3  S   UNL d   1     -48.907  13.684  21.850  0.00  0.00    -0.068 SA
ATOM      4  C   UNL d   1     -48.062  14.197  22.727  0.00  0.00     0.009 A 
ATOM      5  C   UNL d   1     -48.679  14.373  22.218  0.00  0.00     0.031 A 
ATOM      6  C   UNL d   1     -47.658  14.734  23.217  0.00  0.00     0.001 C 
ATOM      7  C   UNL d   1     -49.024  15.116  22.087  0.00  0.00     0.007 C 
ENDROOT
BRANCH   2   8
ATOM      8  N   UNL d   1     -48.479  12.278  21.898  0.00  0.00    -0.201 NA
ATOM      9  C   UNL d   1     -49.165  11.843  22.055  0.00  0.00     0.282 C 
ATOM     10  O   UNL d   1     -49.205  11.057  21.824  0.00  0.00    -0.265 OA
BRANCH   9  11
ATOM     11  C   UNL d   1     -49.802  12.201  22.443  0.00  0.00     0.085 A 
ATOM     12  C   UNL d   1     -49.954  12.011  23.232  0.00  0.00     0.145 A 
ATOM     13  F   UNL d   1     -49.520  11.481  23.691  0.00  0.00    -0.204 F 
ATOM     14  C   UNL d   1     -50.588  12.365  23.625  0.00  0.00     0.030 A 
ATOM     15  C   UNL d   1     -51.064  12.908  23.219  0.00  0.00     0.002 A 
ATOM     16  C   UNL d   1     -50.911  13.095  22.432  0.00  0.00     0.000 A 
ATOM     17  C   UNL d   1     -50.274  12.737  22.045  0.00  0.00     0.007 A 
ENDBRANCH   9  11
ENDBRANCH   2   8
BRANCH   1  18
ATOM     18  C   UNL d   1     -47.304  13.054  23.133  0.00  0.00     0.082 C 
BRANCH  18  19
ATOM     19  N   UNL d   1     -46.559  12.950  22.806  0.00  0.00    -0.304 N 
ATOM     20  C   UNL d   1     -46.065  12.340  23.093  0.00  0.00     0.064 A 
ATOM     21  C   UNL d   1     -46.329  11.849  23.698  0.00  0.00     0.019 C 
ATOM     22  C   UNL d   1     -45.312  12.230  22.768  0.00  0.00     0.018 A 
ATOM     23  C   UNL d   1     -45.052  12.721  22.165  0.00  0.00     0.003 A 
ATOM     24  C   UNL d   1     -45.541  13.324  21.882  0.00  0.00     0.019 A 
ATOM     25  C   UNL d   1     -46.288  13.435  22.202  0.00  0.00     0.080 A 
ENDBRANCH  18  19
ENDBRANCH   1  18
TORSDOF 4
ENDMDL
MODEL 4
REMARK VINA RESULT:      -6.1      8.113      9.899
REMARK  4 active torsions:
REMARK  status: ('A' for Active; 'I' for Inactive)
REMARK    1  A    between atoms: C_8  and  C_1 
REMARK    2  A    between atoms: N_5  and  C_2 
REMARK       I    between atoms: C_6  and  N_5 
REMARK    3  A    between atoms: C_10  and  C_6 
REMARK    4  A    between atoms: N_9  and  C_8 
ROOT
ATOM      1  C   UNL d   1     -39.908  14.763  18.173  0.00  0.00     0.042 A 
ATOM      2  C   UNL d   1     -39.773  15.350  18.733  0.00  0.00     0.115 A 
ATOM      3  S   UNL d   1     -40.430  15.848  18.729  0.00  0.00    -0.068 SA
ATOM      4  C   UNL d   1     -40.639  14.901  17.831  0.00  0.00     0.009 A 
ATOM      5  C   UNL d   1     -40.960  15.572  18.176  0.00  0.00     0.031 A 
ATOM      6  C   UNL d   1     -40.990  14.437  17.237  0.00  0.00     0.001 C 
ATOM      7  C   UNL d   1     -41.691  15.922  18.005  0.00  0.00     0.007 C 
ENDROOT
BRANCH   2   8
ATOM      8  N   UNL d   1     -39.106  15.431  19.214  0.00  0.00    -0.201 NA
ATOM      9  C   UNL d   1     -39.176  15.344  20.034  0.00  0.00     0.282 C 
ATOM     10  O   UNL d   1     -38.510  15.426  20.505  0.00  0.00    -0.265 OA
BRANCH   9  11
ATOM     11  C   UNL d   1     -39.912  15.175  20.370  0.00  0.00     0.085 A 
ATOM     12  C   UNL d   1     -40.066  14.412  20.646  0.00  0.00     0.145 A 
ATOM     13  F   UNL d   1     -39.541  13.776  20.620  0.00  0.00    -0.204 F 
ATOM     14  C   UNL d   1     -40.799  14.237  20.983  0.00  0.00     0.030 A 
ATOM     15  C   UNL d   1     -41.372  14.833  21.040  0.00  0.00     0.002 A 
ATOM     16  C   UNL d   1     -41.216  15.593  20.765  0.00  0.00     0.000 A 
ATOM     17  C   UNL d   1     -40.480  15.760  20.428  0.00  0.00     0.007 A 
ENDBRANCH   9  11
ENDBRANCH   2   8
BRANCH   1  18
ATOM     18  C   UNL d   1     -39.450  14.112  17.930  0.00  0.00     0.082 C 
BRANCH  18  19
ATOM     19  N   UNL d   1     -38.952  14.189  17.283  0.00  0.00    -0.304 N 
ATOM     20  C   UNL d   1     -38.535  13.521  17.003  0.00  0.00     0.064 A 
ATOM     21  C   UNL d   1     -38.628  12.794  17.376  0.00  0.00     0.019 C 
ATOM     22  C   UNL d   1     -38.031  13.591  16.351  0.00  0.00     0.018 A 
ATOM     23  C   UNL d   1     -37.940  14.317  15.981  0.00  0.00     0.003 A 
ATOM     24  C   UNL d   1     -38.353  14.978  16.259  0.00  0.00     0.019 A 
ATOM     25  C   UNL d   1     -38.853  14.911  16.905  0.00  0.00     0.080 A 
ENDBRANCH  18  19
ENDBRANCH   1  18
TORSDOF 4
ENDMDL
MODEL 5
REMARK VINA RESULT:      -6.1      8.269      9.735
REMARK  4 active torsions:
REMARK  status: ('A' for Active; 'I' for Inactive)
REMARK    1  A    between atoms: C_8  and  C_1 
REMARK    2  A    between atoms: N_5  and  C_2 
REMARK       I    between atoms: C_6  and  N_5 
REMARK    3  A    between atoms: C_10  and  C_6 
REMARK    4  A    between atoms: N_9  and  C_8 
ROOT
ATOM      1  C   UNL d   1     -39.779  14.844  20.727  0.00  0.00     0.042 A 
ATOM      2  C   UNL d   1     -39.552  15.421  20.185  0.00  0.00     0.115 A 
ATOM      3  S   UNL d   1     -40.215  15.885  20.029  0.00  0.00    -0.068 SA
ATOM      4  C   UNL d   1     -40.572  14.955  20.898  0.00  0.00     0.009 A 
ATOM      5  C   UNL d   1     -40.839  15.599  20.467  0.00  0.00     0.031 A 
ATOM      6  C   UNL d   1     -41.022  14.491  21.422  0.00  0.00     0.001 C 
ATOM      7  C   UNL d   1     -41.605  15.916  20.463  0.00  0.00     0.007 C 
ENDROOT
BRANCH   2   8
ATOM      8  N   UNL d   1     -38.801  15.522  19.856  0.00  0.00    -0.201 NA
ATOM      9  C   UNL d   1     -38.691  15.418  19.043  0.00  0.00     0.282 C 
ATOM     10  O   UNL d   1     -37.943  15.519  18.721  0.00  0.00    -0.265 OA
BRANCH   9  11
ATOM     11  C   UNL d   1     -39.331  15.213  18.561  0.00  0.00     0.085 A 
ATOM     12  C   UNL d   1     -39.394  14.439  18.279  0.00  0.00     0.145 A 
ATOM     13  F   UNL d   1     -38.864  13.826  18.434  0.00  0.00    -0.204 F 
ATOM     14  C   UNL d   1     -40.031  14.227  17.799  0.00  0.00     0.030 A 
ATOM     15  C   UNL d   1     -40.600  14.798  17.605  0.00  0.00     0.002 A 
ATOM     16  C   UNL d   1     -40.535  15.569  17.887  0.00  0.00     0.000 A 
ATOM     17  C   UNL d   1     -39.894  15.773  18.368  0.00  0.00     0.007 A 
ENDBRANCH   9  11
ENDBRANCH   2   8
BRANCH   1  18
ATOM     18  C   UNL d   1     -39.357  14.225  21.087  0.00  0.00     0.082 C 
BRANCH  18  19
ATOM     19  N   UNL d   1     -38.925  14.374  21.769  0.00  0.00    -0.304 N 
ATOM     20  C   UNL d   1     -38.378  13.805  22.043  0.00  0.00     0.064 A 
ATOM     21  C   UNL d   1     -38.276  13.102  21.629  0.00  0.00     0.019 C 
ATOM     22  C   UNL d   1     -37.940  13.950  22.730  0.00  0.00     0.018 A 
ATOM     23  C   UNL d   1     -38.044  14.652  23.141  0.00  0.00     0.003 A 
ATOM     24  C   UNL d   1     -38.586  15.214  22.869  0.00  0.00     0.019 A 
ATOM     25  C   UNL d   1     -39.022  15.073  22.189  0.00  0.00     0.080 A 
ENDBRANCH  18  19
ENDBRANCH   1  18
TORSDOF 4
ENDMDL
MODEL 6
REMARK VINA RESULT:      -6.0      8.414     10.482
REMARK  4 active torsions:
REMARK  status: ('A' for Active; 'I' for Inactive)
REMARK    1  A    between atoms: C_8  and  C_1 
REMARK    2  A    between atoms: N_5  and  C_2 
REMARK       I    between atoms: C_6  and  N_5 
REMARK    3  A    between atoms: C_10  and  C_6 
REMARK    4  A    between atoms: N_9  and  C_8 
ROOT
ATOM      1  C   UNL d   1     -39.898  14.782  18.671  0.00  0.00     0.042 A 
ATOM      2  C   UNL d   1     -39.696  14.113  18.237  0.00  0.00     0.115 A 
ATOM      3  S   UNL d   1     -40.131  14.134  17.537  0.00  0.00    -0.068 SA
ATOM      4  C   UNL d   1     -40.451  15.206  18.241  0.00  0.00     0.009 A 
ATOM      5  C   UNL d   1     -40.593  14.805  17.541  0.00  0.00     0.031 A 
ATOM      6  C   UNL d   1     -40.803  15.922  18.479  0.00  0.00     0.001 C 
ATOM      7  C   UNL d   1     -41.111  15.025  16.933  0.00  0.00     0.007 C 
ENDROOT
BRANCH   2   8
ATOM      8  N   UNL d   1     -39.158  13.526  18.456  0.00  0.00    -0.201 NA
ATOM      9  C   UNL d   1     -38.472  13.407  18.008  0.00  0.00     0.282 C 
ATOM     10  O   UNL d   1     -37.942  12.823  18.230  0.00  0.00    -0.265 OA
BRANCH   9  11
ATOM     11  C   UNL d   1     -38.327  13.877  17.343  0.00  0.00     0.085 A 
ATOM     12  C   UNL d   1     -38.429  13.554  16.589  0.00  0.00     0.145 A 
ATOM     13  F   UNL d   1     -38.670  12.782  16.425  0.00  0.00    -0.204 F 
ATOM     14  C   UNL d   1     -38.286  14.017  15.921  0.00  0.00     0.030 A 
ATOM     15  C   UNL d   1     -38.041  14.803  16.017  0.00  0.00     0.002 A 
ATOM     16  C   UNL d   1     -37.940  15.122  16.769  0.00  0.00     0.000 A 
ATOM     17  C   UNL d   1     -38.085  14.652  17.433  0.00  0.00     0.007 A 
ENDBRANCH   9  11
ENDBRANCH   2   8
BRANCH   1  18
ATOM     18  C   UNL d   1     -39.645  15.060  19.413  0.00  0.00     0.082 C 
BRANCH  18  19
ATOM     19  N   UNL d   1     -40.000  14.773  20.095  0.00  0.00    -0.304 N 
ATOM     20  C   UNL d   1     -39.641  14.913  20.836  0.00  0.00     0.064 A 
ATOM     21  C   UNL d   1     -38.938  15.337  20.878  0.00  0.00     0.019 C 
ATOM     22  C   UNL d   1     -39.995  14.627  21.528  0.00  0.00     0.018 A 
ATOM     23  C   UNL d   1     -40.697  14.205  21.483  0.00  0.00     0.003 A 
ATOM     24  C   UNL d   1     -41.050  14.066  20.749  0.00  0.00     0.019 A 
ATOM     25  C   UNL d   1     -40.702  14.349  20.062  0.00  0.00     0.080 A 
ENDBRANCH  18  19
ENDBRANCH   1  18
TORSDOF 4
ENDMDL
MODEL 7
REMARK VINA RESULT:      -5.6      1.694      4.219
REMARK  4 active torsions:
REMARK  status: ('A' for Active; 'I' for Inactive)
REMARK    1  A    between atoms: C_8  and  C_1 
REMARK    2  A    between atoms: N_5  and  C_2 
REMARK       I    between atoms: C_6  and  N_5 
REMARK    3  A    between atoms: C_10  and  C_6 
REMARK    4  A    between atoms: N_9  and  C_8 
ROOT
ATOM      1  C   UNL d   1     -48.419  13.674  22.443  0.00  0.00     0.042 A 
ATOM      2  C   UNL d   1     -47.820  13.553  22.995  0.00  0.00     0.115 A 
ATOM      3  S   UNL d   1     -47.427  14.272  23.089  0.00  0.00    -0.068 SA
ATOM      4  C   UNL d   1     -48.391  14.456  22.205  0.00  0.00     0.009 A 
ATOM      5  C   UNL d   1     -47.778  14.824  22.605  0.00  0.00     0.031 A 
ATOM      6  C   UNL d   1     -48.901  14.811  21.651  0.00  0.00     0.001 C 
ATOM      7  C   UNL d   1     -47.543  15.616  22.541  0.00  0.00     0.007 C 
ENDROOT
BRANCH   2   8
ATOM      8  N   UNL d   1     -47.641  12.848  23.384  0.00  0.00    -0.201 NA
ATOM      9  C   UNL d   1     -46.888  12.513  23.305  0.00  0.00     0.282 C 
ATOM     10  O   UNL d   1     -46.715  11.813  23.695  0.00  0.00    -0.265 OA
BRANCH   9  11
ATOM     11  C   UNL d   1     -46.317  12.886  22.837  0.00  0.00     0.085 A 
ATOM     12  C   UNL d   1     -46.075  12.529  22.132  0.00  0.00     0.145 A 
ATOM     13  F   UNL d   1     -46.355  11.811  21.837  0.00  0.00    -0.204 F 
ATOM     14  C   UNL d   1     -45.506  12.895  21.660  0.00  0.00     0.030 A 
ATOM     15  C   UNL d   1     -45.185  13.620  21.901  0.00  0.00     0.002 A 
ATOM     16  C   UNL d   1     -45.427  13.974  22.604  0.00  0.00     0.000 A 
ATOM     17  C   UNL d   1     -45.998  13.600  23.072  0.00  0.00     0.007 A 
ENDBRANCH   9  11
ENDBRANCH   2   8
BRANCH   1  18
ATOM     18  C   UNL d   1     -48.991  13.161  22.126  0.00  0.00     0.082 C 
BRANCH  18  19
ATOM     19  N   UNL d   1     -49.675  13.005  22.553  0.00  0.00    -0.304 N 
ATOM     20  C   UNL d   1     -50.242  12.474  22.243  0.00  0.00     0.064 A 
ATOM     21  C   UNL d   1     -50.111  12.113  21.516  0.00  0.00     0.019 C 
ATOM     22  C   UNL d   1     -50.933  12.313  22.668  0.00  0.00     0.018 A 
ATOM     23  C   UNL d   1     -51.061  12.675  23.393  0.00  0.00     0.003 A 
ATOM     24  C   UNL d   1     -50.500  13.200  23.698  0.00  0.00     0.019 A 
ATOM     25  C   UNL d   1     -49.813  13.362  23.279  0.00  0.00     0.080 A 
ENDBRANCH  18  19
ENDBRANCH   1  18
TORSDOF 4
ENDMDL
MODEL 8
REMARK VINA RESULT:      -5.2      8.153      9.753
REMARK  4 active torsions:
REMARK  status: ('A' for Active; 'I' for Inactive)
REMARK    1  A    between atoms: C_8  and  C_1 
REMARK    2  A    between atoms: N_5  and  C_2 
REMARK       I    between atoms: C_6  and  N_5 
REMARK    3  A    between atoms: C_10  and  C_6 
REMARK    4  A    between atoms: N_9  and  C_8 
ROOT
ATOM      1  C   UNL d   1     -39.153  15.023  18.801  0.00  0.00     0.042 A 
ATOM      2  C   UNL d   1     -39.539  14.483  19.286  0.00  0.00     0.115 A 
ATOM      3  S   UNL d   1     -39.123  14.452  19.998  0.00  0.00    -0.068 SA
ATOM      4  C   UNL d   1     -38.508  15.317  19.212  0.00  0.00     0.009 A 
ATOM      5  C   UNL d   1     -38.492  14.963  19.950  0.00  0.00     0.031 A 
ATOM      6  C   UNL d   1     -37.967  15.880  18.922  0.00  0.00     0.001 C 
ATOM      7  C   UNL d   1     -37.940  15.090  20.555  0.00  0.00     0.007 C 
ENDROOT
BRANCH   2   8
ATOM      8  N   UNL d   1     -40.218  14.049  19.102  0.00  0.00    -0.201 NA
ATOM      9  C   UNL d   1     -40.899  14.134  19.565  0.00  0.00     0.282 C 
ATOM     10  O   UNL d   1     -41.570  13.701  19.377  0.00  0.00    -0.265 OA
BRANCH   9  11
ATOM     11  C   UNL d   1     -40.899  14.652  20.209  0.00  0.00     0.085 A 
ATOM     12  C   UNL d   1     -41.274  15.385  20.140  0.00  0.00     0.145 A 
ATOM     13  F   UNL d   1     -41.663  15.664  19.468  0.00  0.00    -0.204 F 
ATOM     14  C   UNL d   1     -41.278  15.906  20.780  0.00  0.00     0.030 A 
ATOM     15  C   UNL d   1     -40.904  15.685  21.485  0.00  0.00     0.002 A 
ATOM     16  C   UNL d   1     -40.532  14.954  21.552  0.00  0.00     0.000 A 
ATOM     17  C   UNL d   1     -40.532  14.437  20.907  0.00  0.00     0.007 A 
ENDBRANCH   9  11
ENDBRANCH   2   8
BRANCH   1  18
ATOM     18  C   UNL d   1     -39.310  15.285  18.028  0.00  0.00     0.082 C 
BRANCH  18  19
ATOM     19  N   UNL d   1     -39.116  14.805  17.391  0.00  0.00    -0.304 N 
ATOM     20  C   UNL d   1     -39.436  14.972  16.637  0.00  0.00     0.064 A 
ATOM     21  C   UNL d   1     -39.940  15.614  16.539  0.00  0.00     0.019 C 
ATOM     22  C   UNL d   1     -39.244  14.492  15.991  0.00  0.00     0.018 A 
ATOM     23  C   UNL d   1     -38.741  13.852  16.092  0.00  0.00     0.003 A 
ATOM     24  C   UNL d   1     -38.426  13.688  16.839  0.00  0.00     0.019 A 
ATOM     25  C   UNL d   1     -38.614  14.163  17.481  0.00  0.00     0.080 A 
ENDBRANCH  18  19
ENDBRANCH   1  18
TORSDOF 4
ENDMDL
MODEL 9
REMARK VINA RESULT:      -4.7      7.793     10.216
REMARK  4 active torsions:
REMARK  status: ('A' for Active; 'I' for Inactive)
REMARK    1  A    between atoms: C_8  and  C_1 
REMARK    2  A    between atoms: N_5  and  C_2 
REMARK       I    between atoms: C_6  and  N_5 
REMARK    3  A    between atoms: C_10  and  C_6 
REMARK    4  A    between atoms: N_9  and  C_8 
ROOT
ATOM      1  C   UNL d   1     -39.492  14.405  19.026  0.00  0.00     0.042 A 
ATOM      2  C   UNL d   1     -39.704  14.211  18.255  0.00  0.00     0.115 A 
ATOM      3  S   UNL d   1     -39.145  13.672  17.976  0.00  0.00    -0.068 SA
ATOM      4  C   UNL d   1     -38.813  13.990  19.215  0.00  0.00     0.009 A 
ATOM      5  C   UNL d   1     -38.600  13.537  18.566  0.00  0.00     0.031 A 
ATOM      6  C   UNL d   1     -38.412  14.025  19.943  0.00  0.00     0.001 C 
ATOM      7  C   UNL d   1     -37.950  13.028  18.501  0.00  0.00     0.007 C 
ENDROOT
BRANCH   2   8
ATOM      8  N   UNL d   1     -40.353  14.498  17.832  0.00  0.00    -0.201 NA
ATOM      9  C   UNL d   1     -40.233  14.972  17.165  0.00  0.00     0.282 C 
ATOM     10  O   UNL d   1     -40.881  15.254  16.749  0.00  0.00    -0.265 OA
BRANCH   9  11
ATOM     11  C   UNL d   1     -39.465  15.157  16.922  0.00  0.00     0.085 A 
ATOM     12  C   UNL d   1     -39.133  14.752  16.282  0.00  0.00     0.145 A 
ATOM     13  F   UNL d   1     -39.504  14.159  15.845  0.00  0.00    -0.204 F 
ATOM     14  C   UNL d   1     -38.367  14.932  16.035  0.00  0.00     0.030 A 
ATOM     15  C   UNL d   1     -37.940  15.519  16.433  0.00  0.00     0.002 A 
ATOM     16  C   UNL d   1     -38.272  15.922  17.070  0.00  0.00     0.000 A 
ATOM     17  C   UNL d   1     -39.040  15.736  17.312  0.00  0.00     0.007 A 
ENDBRANCH   9  11
ENDBRANCH   2   8
BRANCH   1  18
ATOM     18  C   UNL d   1     -39.839  14.915  19.584  0.00  0.00     0.082 C 
BRANCH  18  19
ATOM     19  N   UNL d   1     -40.441  14.636  20.067  0.00  0.00    -0.304 N 
ATOM     20  C   UNL d   1     -40.785  15.146  20.632  0.00  0.00     0.064 A 
ATOM     21  C   UNL d   1     -40.520  15.922  20.700  0.00  0.00     0.019 C 
ATOM     22  C   UNL d   1     -41.392  14.871  21.122  0.00  0.00     0.018 A 
ATOM     23  C   UNL d   1     -41.655  14.097  21.052  0.00  0.00     0.003 A 
ATOM     24  C   UNL d   1     -41.313  13.594  20.493  0.00  0.00     0.019 A 
ATOM     25  C   UNL d   1     -40.711  13.864  20.006  0.00  0.00     0.080 A 
ENDBRANCH  18  19
ENDBRANCH   1  18
TORSDOF 4
ENDMDL
