MODEL 1
REMARK VINA RESULT:      30.6      0.000      0.000
REMARK  1 active torsions:
REMARK  status: ('A' for Active; 'I' for Inactive)
REMARK    1  A    between atoms: C_10  and  C_4 
ROOT
ATOM      1  N   UNL d   1      14.681  13.957  -1.228  0.00  0.00    -0.202 N 
ATOM      2  C   UNL d   1      14.339  13.326  -1.634  0.00  0.00     0.166 A 
ATOM      3  N   UNL d   1      14.720  14.606  -1.750  0.00  0.00    -0.163 NA
ATOM      4  C   UNL d   1      14.167  13.583  -2.409  0.00  0.00     0.055 A 
ATOM      5  C   UNL d   1      14.912  13.863  -0.438  0.00  0.00     0.143 A 
ATOM      6  C   UNL d   1      14.404  14.367  -2.466  0.00  0.00     0.104 A 
ATOM      7  N   UNL d   1      14.228  12.605  -1.257  0.00  0.00    -0.227 NA
ATOM      8  C   UNL d   1      14.799  13.136  -0.059  0.00  0.00     0.050 A 
ATOM      9  C   UNL d   1      14.455  12.501  -0.472  0.00  0.00     0.086 A 
ATOM     10 CL   UNL d   1      15.254  14.491  -0.028  0.00  0.00    -0.061 Cl
ATOM     11  C   UNL d   1      14.335  14.838  -3.139  0.00  0.00     0.023 C 
ATOM     12  C   UNL d   1      14.343  11.780  -0.094  0.00  0.00     0.021 C 
ENDROOT
BRANCH   4  13
ATOM     13  C   UNL d   1      13.820  13.131  -3.006  0.00  0.00     0.004 A 
ATOM     14  C   UNL d   1      13.428  13.502  -3.630  0.00  0.00     0.001 A 
ATOM     15  C   UNL d   1      13.084  13.050  -4.223  0.00  0.00     0.011 A 
ATOM     16  C   UNL d   1      13.128  12.227  -4.200  0.00  0.00     0.058 A 
ATOM     17  C   UNL d   1      13.519  11.855  -3.581  0.00  0.00     0.011 A 
ATOM     18 CL   UNL d   1      12.784  11.779  -4.793  0.00  0.00    -0.082 Cl
ATOM     19  C   UNL d   1      13.867  12.303  -2.980  0.00  0.00     0.001 A 
ENDBRANCH   4  13
TORSDOF 1
ENDMDL
MODEL 2
REMARK VINA RESULT:      30.7      1.038      3.795
REMARK  1 active torsions:
REMARK  status: ('A' for Active; 'I' for Inactive)
REMARK    1  A    between atoms: C_10  and  C_4 
ROOT
ATOM      1  N   UNL d   1      13.525  12.479  -3.169  0.00  0.00    -0.202 N 
ATOM      2  C   UNL d   1      13.785  13.187  -2.834  0.00  0.00     0.166 A 
ATOM      3  N   UNL d   1      13.724  11.861  -2.646  0.00  0.00    -0.163 NA
ATOM      4  C   UNL d   1      14.145  13.008  -2.103  0.00  0.00     0.055 A 
ATOM      5  C   UNL d   1      13.142  12.486  -3.904  0.00  0.00     0.143 A 
ATOM      6  C   UNL d   1      14.102  12.195  -2.001  0.00  0.00     0.104 A 
ATOM      7  N   UNL d   1      13.664  13.898  -3.228  0.00  0.00    -0.227 NA
ATOM      8  C   UNL d   1      13.021  13.203  -4.299  0.00  0.00     0.050 A 
ATOM      9  C   UNL d   1      13.284  13.915  -3.959  0.00  0.00     0.086 A 
ATOM     10 CL   UNL d   1      12.881  11.781  -4.241  0.00  0.00    -0.061 Cl
ATOM     11  C   UNL d   1      14.392  11.780  -1.350  0.00  0.00     0.023 C 
ATOM     12  C   UNL d   1      13.163  14.626  -4.353  0.00  0.00     0.021 C 
ENDROOT
BRANCH   4  13
ATOM     13  C   UNL d   1      14.483  13.551  -1.581  0.00  0.00     0.004 A 
ATOM     14  C   UNL d   1      14.661  13.324  -0.808  0.00  0.00     0.001 A 
ATOM     15  C   UNL d   1      14.997  13.866  -0.291  0.00  0.00     0.011 A 
ATOM     16  C   UNL d   1      15.159  14.636  -0.538  0.00  0.00     0.058 A 
ATOM     17  C   UNL d   1      14.983  14.864  -1.307  0.00  0.00     0.011 A 
ATOM     18 CL   UNL d   1      15.494  15.173  -0.019  0.00  0.00    -0.082 Cl
ATOM     19  C   UNL d   1      14.645  14.325  -1.834  0.00  0.00     0.001 A 
ENDBRANCH   4  13
TORSDOF 1
ENDMDL
MODEL 3
REMARK VINA RESULT:      32.5      1.147      2.027
REMARK  1 active torsions:
REMARK  status: ('A' for Active; 'I' for Inactive)
REMARK    1  A    between atoms: C_10  and  C_4 
ROOT
ATOM      1  N   UNL d   1      14.427  12.472  -1.210  0.00  0.00    -0.202 N 
ATOM      2  C   UNL d   1      14.367  13.174  -1.639  0.00  0.00     0.166 A 
ATOM      3  N   UNL d   1      14.112  11.859  -1.679  0.00  0.00    -0.163 NA
ATOM      4  C   UNL d   1      14.015  12.997  -2.374  0.00  0.00     0.055 A 
ATOM      5  C   UNL d   1      14.759  12.479  -0.451  0.00  0.00     0.143 A 
ATOM      6  C   UNL d   1      13.864  12.191  -2.385  0.00  0.00     0.104 A 
ATOM      7  N   UNL d   1      14.636  13.880  -1.314  0.00  0.00    -0.227 NA
ATOM      8  C   UNL d   1      15.029  13.189  -0.125  0.00  0.00     0.050 A 
ATOM      9  C   UNL d   1      14.968  13.896  -0.560  0.00  0.00     0.086 A 
ATOM     10 CL   UNL d   1      14.821  11.779  -0.020  0.00  0.00    -0.061 Cl
ATOM     11  C   UNL d   1      13.517  11.779  -3.010  0.00  0.00     0.023 C 
ATOM     12  C   UNL d   1      15.237  14.601  -0.235  0.00  0.00     0.021 C 
ENDROOT
BRANCH   4  13
ATOM     13  C   UNL d   1      13.850  13.536  -2.977  0.00  0.00     0.004 A 
ATOM     14  C   UNL d   1      14.201  14.283  -2.970  0.00  0.00     0.001 A 
ATOM     15  C   UNL d   1      14.034  14.817  -3.572  0.00  0.00     0.011 A 
ATOM     16  C   UNL d   1      13.519  14.613  -4.182  0.00  0.00     0.058 A 
ATOM     17  C   UNL d   1      13.168  13.870  -4.191  0.00  0.00     0.011 A 
ATOM     18 CL   UNL d   1      13.356  15.148  -4.780  0.00  0.00    -0.082 Cl
ATOM     19  C   UNL d   1      13.330  13.326  -3.590  0.00  0.00     0.001 A 
ENDBRANCH   4  13
TORSDOF 1
ENDMDL
