MODEL 1
REMARK VINA RESULT:      -8.0      0.000      0.000
REMARK  1 active torsions:
REMARK  status: ('A' for Active; 'I' for Inactive)
REMARK    1  A    between atoms: C_7  and  C_4 
ROOT
ATOM      1  N   UNL d   1     -47.532  13.835  22.771  0.00  0.00    -0.211 NA
ATOM      2  C   UNL d   1     -46.835  13.411  22.890  0.00  0.00     0.140 A 
ATOM      3  C   UNL d   1     -46.870  12.632  23.161  0.00  0.00     0.051 A 
ATOM      4  C   UNL d   1     -48.268  13.479  22.922  0.00  0.00     0.183 A 
ATOM      5  C   UNL d   1     -47.605  12.276  23.312  0.00  0.00     0.104 A 
ATOM      6  O   UNL d   1     -48.302  12.701  23.193  0.00  0.00    -0.289 OA
ATOM      7  S   UNL d   1     -46.102  13.761  22.740  0.00  0.00    -0.057 SA
ATOM      8  C   UNL d   1     -46.176  12.205  23.281  0.00  0.00     0.004 A 
ATOM      9  C   UNL d   1     -47.632  11.509  23.579  0.00  0.00     0.025 A 
ATOM     10  C   UNL d   1     -46.213  11.439  23.547  0.00  0.00     0.000 A 
ATOM     11  C   UNL d   1     -46.935  11.085  23.698  0.00  0.00     0.002 A 
ENDROOT
BRANCH   4  12
ATOM     12  C   UNL d   1     -48.965  13.904  22.803  0.00  0.00     0.041 A 
ATOM     13  C   UNL d   1     -49.423  13.757  22.130  0.00  0.00     0.004 A 
ATOM     14  C   UNL d   1     -50.118  14.176  22.005  0.00  0.00     0.007 A 
ATOM     15  C   UNL d   1     -50.364  14.753  22.557  0.00  0.00     0.035 A 
ATOM     16  C   UNL d   1     -49.905  14.897  23.227  0.00  0.00     0.007 A 
ATOM     17 BR   UNL d   1     -51.064  15.178  22.435  0.00  0.00    -0.049 Br
ATOM     18  C   UNL d   1     -49.202  14.473  23.354  0.00  0.00     0.004 A 
ENDBRANCH   4  12
TORSDOF 1
ENDMDL
MODEL 2
REMARK VINA RESULT:      -7.9      1.974      3.923
REMARK  1 active torsions:
REMARK  status: ('A' for Active; 'I' for Inactive)
REMARK    1  A    between atoms: C_7  and  C_4 
ROOT
ATOM      1  N   UNL d   1     -49.136  12.981  22.270  0.00  0.00    -0.211 NA
ATOM      2  C   UNL d   1     -49.779  13.459  22.070  0.00  0.00     0.140 A 
ATOM      3  C   UNL d   1     -49.921  14.153  22.493  0.00  0.00     0.051 A 
ATOM      4  C   UNL d   1     -48.634  13.198  22.895  0.00  0.00     0.183 A 
ATOM      5  C   UNL d   1     -49.419  14.370  23.119  0.00  0.00     0.104 A 
ATOM      6  O   UNL d   1     -48.777  13.892  23.318  0.00  0.00    -0.289 OA
ATOM      7  S   UNL d   1     -50.280  13.246  21.449  0.00  0.00    -0.057 SA
ATOM      8  C   UNL d   1     -50.561  14.632  22.297  0.00  0.00     0.004 A 
ATOM      9  C   UNL d   1     -49.565  15.054  23.531  0.00  0.00     0.025 A 
ATOM     10  C   UNL d   1     -50.699  15.314  22.714  0.00  0.00     0.000 A 
ATOM     11  C   UNL d   1     -50.208  15.532  23.331  0.00  0.00     0.002 A 
ENDROOT
BRANCH   4  12
ATOM     12  C   UNL d   1     -47.992  12.721  23.095  0.00  0.00     0.041 A 
ATOM     13  C   UNL d   1     -48.120  12.009  23.495  0.00  0.00     0.004 A 
ATOM     14  C   UNL d   1     -47.486  11.529  23.696  0.00  0.00     0.007 A 
ATOM     15  C   UNL d   1     -46.708  11.757  23.497  0.00  0.00     0.035 A 
ATOM     16  C   UNL d   1     -46.583  12.468  23.098  0.00  0.00     0.007 A 
ATOM     17 BR   UNL d   1     -46.064  11.276  23.698  0.00  0.00    -0.049 Br
ATOM     18  C   UNL d   1     -47.224  12.954  22.894  0.00  0.00     0.004 A 
ENDBRANCH   4  12
TORSDOF 1
ENDMDL
MODEL 3
REMARK VINA RESULT:      -7.8      1.879      3.805
REMARK  1 active torsions:
REMARK  status: ('A' for Active; 'I' for Inactive)
REMARK    1  A    between atoms: C_7  and  C_4 
ROOT
ATOM      1  N   UNL d   1     -48.621  14.051  23.118  0.00  0.00    -0.211 NA
ATOM      2  C   UNL d   1     -49.255  14.534  22.904  0.00  0.00     0.140 A 
ATOM      3  C   UNL d   1     -49.848  14.239  22.412  0.00  0.00     0.051 A 
ATOM      4  C   UNL d   1     -48.580  13.269  22.838  0.00  0.00     0.183 A 
ATOM      5  C   UNL d   1     -49.807  13.457  22.132  0.00  0.00     0.104 A 
ATOM      6  O   UNL d   1     -49.173  12.975  22.346  0.00  0.00    -0.289 OA
ATOM      7  S   UNL d   1     -49.299  15.311  23.181  0.00  0.00    -0.057 SA
ATOM      8  C   UNL d   1     -50.482  14.718  22.197  0.00  0.00     0.004 A 
ATOM      9  C   UNL d   1     -50.394  13.174  21.649  0.00  0.00     0.025 A 
ATOM     10  C   UNL d   1     -51.064  14.425  21.714  0.00  0.00     0.000 A 
ATOM     11  C   UNL d   1     -51.028  13.657  21.436  0.00  0.00     0.002 A 
ENDROOT
BRANCH   4  12
ATOM     12  C   UNL d   1     -47.946  12.787  23.051  0.00  0.00     0.041 A 
ATOM     13  C   UNL d   1     -48.086  12.091  23.476  0.00  0.00     0.004 A 
ATOM     14  C   UNL d   1     -47.459  11.607  23.691  0.00  0.00     0.007 A 
ATOM     15  C   UNL d   1     -46.678  11.814  23.483  0.00  0.00     0.035 A 
ATOM     16  C   UNL d   1     -46.542  12.509  23.059  0.00  0.00     0.007 A 
ATOM     17 BR   UNL d   1     -46.043  11.329  23.698  0.00  0.00    -0.049 Br
ATOM     18  C   UNL d   1     -47.175  12.999  22.841  0.00  0.00     0.004 A 
ENDBRANCH   4  12
TORSDOF 1
ENDMDL
MODEL 4
REMARK VINA RESULT:      -7.7      2.225      3.422
REMARK  1 active torsions:
REMARK  status: ('A' for Active; 'I' for Inactive)
REMARK    1  A    between atoms: C_7  and  C_4 
ROOT
ATOM      1  N   UNL d   1     -48.725  13.959  22.969  0.00  0.00    -0.211 NA
ATOM      2  C   UNL d   1     -49.529  13.949  23.155  0.00  0.00     0.140 A 
ATOM      3  C   UNL d   1     -49.900  13.234  23.335  0.00  0.00     0.051 A 
ATOM      4  C   UNL d   1     -48.291  13.251  22.963  0.00  0.00     0.183 A 
ATOM      5  C   UNL d   1     -49.465  12.526  23.329  0.00  0.00     0.104 A 
ATOM      6  O   UNL d   1     -48.662  12.536  23.143  0.00  0.00    -0.289 OA
ATOM      7  S   UNL d   1     -49.965  14.651  23.161  0.00  0.00    -0.057 SA
ATOM      8  C   UNL d   1     -50.702  13.221  23.521  0.00  0.00     0.004 A 
ATOM      9  C   UNL d   1     -49.837  11.826  23.508  0.00  0.00     0.025 A 
ATOM     10  C   UNL d   1     -51.064  12.517  23.698  0.00  0.00     0.000 A 
ATOM     11  C   UNL d   1     -50.641  11.817  23.694  0.00  0.00     0.002 A 
ENDROOT
BRANCH   4  12
ATOM     12  C   UNL d   1     -47.487  13.261  22.777  0.00  0.00     0.041 A 
ATOM     13  C   UNL d   1     -47.227  12.923  22.069  0.00  0.00     0.004 A 
ATOM     14  C   UNL d   1     -46.428  12.930  21.878  0.00  0.00     0.007 A 
ATOM     15  C   UNL d   1     -45.876  13.278  22.398  0.00  0.00     0.035 A 
ATOM     16  C   UNL d   1     -46.139  13.614  23.104  0.00  0.00     0.007 A 
ATOM     17 BR   UNL d   1     -45.069  13.288  22.210  0.00  0.00    -0.049 Br
ATOM     18  C   UNL d   1     -46.946  13.607  23.298  0.00  0.00     0.004 A 
ENDBRANCH   4  12
TORSDOF 1
ENDMDL
MODEL 5
REMARK VINA RESULT:      -6.5      1.526      2.034
REMARK  1 active torsions:
REMARK  status: ('A' for Active; 'I' for Inactive)
REMARK    1  A    between atoms: C_7  and  C_4 
ROOT
ATOM      1  N   UNL d   1     -48.094  13.966  22.866  0.00  0.00    -0.211 NA
ATOM      2  C   UNL d   1     -47.365  14.312  22.692  0.00  0.00     0.140 A 
ATOM      3  C   UNL d   1     -46.688  13.842  22.649  0.00  0.00     0.051 A 
ATOM      4  C   UNL d   1     -48.146  13.147  22.998  0.00  0.00     0.183 A 
ATOM      5  C   UNL d   1     -46.740  13.023  22.781  0.00  0.00     0.104 A 
ATOM      6  O   UNL d   1     -47.468  12.678  22.955  0.00  0.00    -0.289 OA
ATOM      7  S   UNL d   1     -47.310  15.125  22.560  0.00  0.00    -0.057 SA
ATOM      8  C   UNL d   1     -45.960  14.183  22.475  0.00  0.00     0.004 A 
ATOM      9  C   UNL d   1     -46.070  12.567  22.738  0.00  0.00     0.025 A 
ATOM     10  C   UNL d   1     -45.295  13.719  22.434  0.00  0.00     0.000 A 
ATOM     11  C   UNL d   1     -45.341  12.913  22.563  0.00  0.00     0.002 A 
ENDROOT
BRANCH   4  12
ATOM     12  C   UNL d   1     -48.874  12.802  23.172  0.00  0.00     0.041 A 
ATOM     13  C   UNL d   1     -48.915  11.993  23.340  0.00  0.00     0.004 A 
ATOM     14  C   UNL d   1     -49.637  11.644  23.514  0.00  0.00     0.007 A 
ATOM     15  C   UNL d   1     -50.334  12.104  23.523  0.00  0.00     0.035 A 
ATOM     16  C   UNL d   1     -50.290  12.910  23.355  0.00  0.00     0.007 A 
ATOM     17 BR   UNL d   1     -51.064  11.756  23.698  0.00  0.00    -0.049 Br
ATOM     18  C   UNL d   1     -49.560  13.264  23.179  0.00  0.00     0.004 A 
ENDBRANCH   4  12
TORSDOF 1
ENDMDL
MODEL 6
REMARK VINA RESULT:      -6.1      2.280      4.127
REMARK  1 active torsions:
REMARK  status: ('A' for Active; 'I' for Inactive)
REMARK    1  A    between atoms: C_7  and  C_4 
ROOT
ATOM      1  N   UNL d   1     -47.847  12.278  23.060  0.00  0.00    -0.211 NA
ATOM      2  C   UNL d   1     -48.465  12.814  22.944  0.00  0.00     0.140 A 
ATOM      3  C   UNL d   1     -48.297  13.612  22.816  0.00  0.00     0.051 A 
ATOM      4  C   UNL d   1     -47.059  12.542  23.049  0.00  0.00     0.183 A 
ATOM      5  C   UNL d   1     -47.509  13.875  22.805  0.00  0.00     0.104 A 
ATOM      6  O   UNL d   1     -46.892  13.339  22.921  0.00  0.00    -0.289 OA
ATOM      7  S   UNL d   1     -49.249  12.556  22.955  0.00  0.00    -0.057 SA
ATOM      8  C   UNL d   1     -48.909  14.149  22.700  0.00  0.00     0.004 A 
ATOM      9  C   UNL d   1     -47.350  14.661  22.678  0.00  0.00     0.025 A 
ATOM     10  C   UNL d   1     -48.742  14.933  22.575  0.00  0.00     0.000 A 
ATOM     11  C   UNL d   1     -47.968  15.197  22.562  0.00  0.00     0.002 A 
ENDROOT
BRANCH   4  12
ATOM     12  C   UNL d   1     -46.443  12.006  23.165  0.00  0.00     0.041 A 
ATOM     13  C   UNL d   1     -45.693  12.173  22.860  0.00  0.00     0.004 A 
ATOM     14  C   UNL d   1     -45.075  11.644  22.972  0.00  0.00     0.007 A 
ATOM     15  C   UNL d   1     -45.202  10.935  23.395  0.00  0.00     0.035 A 
ATOM     16  C   UNL d   1     -45.952  10.772  23.698  0.00  0.00     0.007 A 
ATOM     17 BR   UNL d   1     -44.582  10.398  23.510  0.00  0.00    -0.049 Br
ATOM     18  C   UNL d   1     -46.576  11.306  23.585  0.00  0.00     0.004 A 
ENDBRANCH   4  12
TORSDOF 1
ENDMDL
MODEL 7
REMARK VINA RESULT:      -6.1      9.085      9.839
REMARK  1 active torsions:
REMARK  status: ('A' for Active; 'I' for Inactive)
REMARK    1  A    between atoms: C_7  and  C_4 
ROOT
ATOM      1  N   UNL d   1     -39.376  14.513  19.005  0.00  0.00    -0.211 NA
ATOM      2  C   UNL d   1     -39.557  14.383  18.210  0.00  0.00     0.140 A 
ATOM      3  C   UNL d   1     -40.120  14.856  17.836  0.00  0.00     0.051 A 
ATOM      4  C   UNL d   1     -39.759  15.117  19.427  0.00  0.00     0.183 A 
ATOM      5  C   UNL d   1     -40.504  15.460  18.258  0.00  0.00     0.104 A 
ATOM      6  O   UNL d   1     -40.323  15.589  19.052  0.00  0.00    -0.289 OA
ATOM      7  S   UNL d   1     -39.177  13.784  17.787  0.00  0.00    -0.057 SA
ATOM      8  C   UNL d   1     -40.304  14.731  17.044  0.00  0.00     0.004 A 
ATOM      9  C   UNL d   1     -41.058  15.922  17.884  0.00  0.00     0.025 A 
ATOM     10  C   UNL d   1     -40.859  15.197  16.678  0.00  0.00     0.000 A 
ATOM     11  C   UNL d   1     -41.239  15.792  17.089  0.00  0.00     0.002 A 
ENDROOT
BRANCH   4  12
ATOM     12  C   UNL d   1     -39.578  15.246  20.221  0.00  0.00     0.041 A 
ATOM     13  C   UNL d   1     -39.978  14.820  20.807  0.00  0.00     0.004 A 
ATOM     14  C   UNL d   1     -39.802  14.944  21.599  0.00  0.00     0.007 A 
ATOM     15  C   UNL d   1     -39.218  15.499  21.817  0.00  0.00     0.035 A 
ATOM     16  C   UNL d   1     -38.820  15.922  21.230  0.00  0.00     0.007 A 
ATOM     17 BR   UNL d   1     -39.037  15.627  22.615  0.00  0.00    -0.049 Br
ATOM     18  C   UNL d   1     -38.998  15.797  20.429  0.00  0.00     0.004 A 
ENDBRANCH   4  12
TORSDOF 1
ENDMDL
MODEL 8
REMARK VINA RESULT:      -5.7      9.258     10.288
REMARK  1 active torsions:
REMARK  status: ('A' for Active; 'I' for Inactive)
REMARK    1  A    between atoms: C_7  and  C_4 
ROOT
ATOM      1  N   UNL d   1     -39.406  15.216  17.677  0.00  0.00    -0.211 NA
ATOM      2  C   UNL d   1     -39.033  14.924  17.001  0.00  0.00     0.140 A 
ATOM      3  C   UNL d   1     -38.692  14.173  17.013  0.00  0.00     0.051 A 
ATOM      4  C   UNL d   1     -39.440  14.754  18.367  0.00  0.00     0.183 A 
ATOM      5  C   UNL d   1     -38.725  13.711  17.703  0.00  0.00     0.104 A 
ATOM      6  O   UNL d   1     -39.099  14.003  18.378  0.00  0.00    -0.289 OA
ATOM      7  S   UNL d   1     -38.997  15.380  16.313  0.00  0.00    -0.057 SA
ATOM      8  C   UNL d   1     -38.318  13.878  16.342  0.00  0.00     0.004 A 
ATOM      9  C   UNL d   1     -38.388  12.973  17.709  0.00  0.00     0.025 A 
ATOM     10  C   UNL d   1     -37.984  13.139  16.356  0.00  0.00     0.000 A 
ATOM     11  C   UNL d   1     -38.014  12.681  17.033  0.00  0.00     0.002 A 
ENDROOT
BRANCH   4  12
ATOM     12  C   UNL d   1     -39.813  15.047  19.041  0.00  0.00     0.041 A 
ATOM     13  C   UNL d   1     -40.559  14.759  19.254  0.00  0.00     0.004 A 
ATOM     14  C   UNL d   1     -40.936  15.045  19.924  0.00  0.00     0.007 A 
ATOM     15  C   UNL d   1     -40.569  15.629  20.394  0.00  0.00     0.035 A 
ATOM     16  C   UNL d   1     -39.825  15.915  20.180  0.00  0.00     0.007 A 
ATOM     17 BR   UNL d   1     -40.946  15.922  21.071  0.00  0.00    -0.049 Br
ATOM     18  C   UNL d   1     -39.443  15.625  19.502  0.00  0.00     0.004 A 
ENDBRANCH   4  12
TORSDOF 1
ENDMDL
MODEL 9
REMARK VINA RESULT:      -5.6      9.087      9.550
REMARK  1 active torsions:
REMARK  status: ('A' for Active; 'I' for Inactive)
REMARK    1  A    between atoms: C_7  and  C_4 
ROOT
ATOM      1  N   UNL d   1     -38.945  14.101  19.214  0.00  0.00    -0.211 NA
ATOM      2  C   UNL d   1     -38.586  13.799  19.893  0.00  0.00     0.140 A 
ATOM      3  C   UNL d   1     -38.874  14.010  20.637  0.00  0.00     0.051 A 
ATOM      4  C   UNL d   1     -39.595  14.615  19.279  0.00  0.00     0.183 A 
ATOM      5  C   UNL d   1     -39.523  14.524  20.703  0.00  0.00     0.104 A 
ATOM      6  O   UNL d   1     -39.882  14.825  20.023  0.00  0.00    -0.289 OA
ATOM      7  S   UNL d   1     -37.940  13.288  19.833  0.00  0.00    -0.057 SA
ATOM      8  C   UNL d   1     -38.518  13.712  21.317  0.00  0.00     0.004 A 
ATOM      9  C   UNL d   1     -39.802  14.727  21.438  0.00  0.00     0.025 A 
ATOM     10  C   UNL d   1     -38.803  13.920  22.048  0.00  0.00     0.000 A 
ATOM     11  C   UNL d   1     -39.443  14.426  22.117  0.00  0.00     0.002 A 
ENDROOT
BRANCH   4  12
ATOM     12  C   UNL d   1     -39.953  14.915  18.600  0.00  0.00     0.041 A 
ATOM     13  C   UNL d   1     -40.580  14.504  18.252  0.00  0.00     0.004 A 
ATOM     14  C   UNL d   1     -40.941  14.797  17.576  0.00  0.00     0.007 A 
ATOM     15  C   UNL d   1     -40.677  15.513  17.237  0.00  0.00     0.035 A 
ATOM     16  C   UNL d   1     -40.051  15.922  17.587  0.00  0.00     0.007 A 
ATOM     17 BR   UNL d   1     -41.038  15.814  16.555  0.00  0.00    -0.049 Br
ATOM     18  C   UNL d   1     -39.686  15.625  18.270  0.00  0.00     0.004 A 
ENDBRANCH   4  12
TORSDOF 1
ENDMDL
