MODEL 1
REMARK VINA RESULT:      -9.2      0.000      0.000
REMARK  4 active torsions:
REMARK  status: ('A' for Active; 'I' for Inactive)
REMARK    1  A    between atoms: N_5  and  C_1 
REMARK    2  A    between atoms: N_8  and  C_3 
REMARK    3  A    between atoms: C_13  and  N_8 
REMARK    4  A    between atoms: C_12  and  C_13 
ROOT
ATOM      1  C   UNL d   1      53.368  34.352  54.202  0.00  0.00     0.200 A 
ATOM      2  C   UNL d   1      53.925  34.099  54.755  0.00  0.00     0.288 A 
ATOM      3  C   UNL d   1      53.015  33.810  53.677  0.00  0.00     0.109 A 
ATOM      4  N   UNL d   1      54.134  33.296  54.786  0.00  0.00    -0.270 N 
ATOM      5  C   UNL d   1      53.230  33.008  53.716  0.00  0.00     0.036 A 
ATOM      6  C   UNL d   1      53.788  32.753  54.270  0.00  0.00     0.069 A 
ATOM      7  O   UNL d   1      54.270  34.641  55.271  0.00  0.00    -0.265 OA
ATOM      8  C   UNL d   1      54.690  33.043  55.338  0.00  0.00     0.102 C 
ATOM      9  C   UNL d   1      52.885  32.466  53.199  0.00  0.00     0.003 A 
ATOM     10  C   UNL d   1      53.999  31.958  54.305  0.00  0.00     0.018 A 
ATOM     11  C   UNL d   1      53.098  31.668  53.236  0.00  0.00     0.000 A 
ATOM     12  C   UNL d   1      53.654  31.415  53.788  0.00  0.00     0.002 A 
ENDROOT
BRANCH   3  13
ATOM     13  N   UNL d   1      52.459  34.062  53.125  0.00  0.00    -0.242 NA
BRANCH  13  14
ATOM     14  C   UNL d   1      51.654  33.941  53.264  0.00  0.00     0.100 C 
BRANCH  14  15
ATOM     15  C   UNL d   1      51.104  34.118  52.677  0.00  0.00     0.030 A 
ATOM     16  C   UNL d   1      50.307  34.188  52.876  0.00  0.00     0.059 A 
ATOM     17 CL   UNL d   1      50.058  34.083  53.654  0.00  0.00    -0.082 Cl
ATOM     18  C   UNL d   1      49.756  34.365  52.290  0.00  0.00     0.011 A 
ATOM     19  C   UNL d   1      50.004  34.472  51.504  0.00  0.00     0.001 A 
ATOM     20  C   UNL d   1      50.803  34.400  51.313  0.00  0.00     0.000 A 
ATOM     21  C   UNL d   1      51.353  34.223  51.900  0.00  0.00     0.002 A 
ENDBRANCH  14  15
ENDBRANCH  13  14
ENDBRANCH   3  13
BRANCH   1  22
ATOM     22  N   UNL d   1      53.153  35.153  54.164  0.00  0.00    -0.107 N 
ATOM     23  O   UNL d   1      53.421  35.620  53.540  0.00  0.00    -0.531 OA
ATOM     24  O   UNL d   1      52.672  35.483  54.751  0.00  0.00    -0.531 OA
ENDBRANCH   1  22
TORSDOF 4
ENDMDL
MODEL 2
REMARK VINA RESULT:      -9.2      1.499      3.486
REMARK  4 active torsions:
REMARK  status: ('A' for Active; 'I' for Inactive)
REMARK    1  A    between atoms: N_5  and  C_1 
REMARK    2  A    between atoms: N_8  and  C_3 
REMARK    3  A    between atoms: C_13  and  N_8 
REMARK    4  A    between atoms: C_12  and  C_13 
ROOT
ATOM      1  C   UNL d   1      53.711  33.527  54.455  0.00  0.00     0.200 A 
ATOM      2  C   UNL d   1      53.716  34.348  54.381  0.00  0.00     0.288 A 
ATOM      3  C   UNL d   1      53.072  33.079  54.163  0.00  0.00     0.109 A 
ATOM      4  N   UNL d   1      53.077  34.729  54.011  0.00  0.00    -0.270 N 
ATOM      5  C   UNL d   1      52.437  33.468  53.795  0.00  0.00     0.036 A 
ATOM      6  C   UNL d   1      52.441  34.292  53.720  0.00  0.00     0.069 A 
ATOM      7  O   UNL d   1      54.352  34.784  54.671  0.00  0.00    -0.265 OA
ATOM      8  C   UNL d   1      53.082  35.549  53.937  0.00  0.00     0.102 C 
ATOM      9  C   UNL d   1      51.801  33.031  53.504  0.00  0.00     0.003 A 
ATOM     10  C   UNL d   1      51.809  34.675  53.355  0.00  0.00     0.018 A 
ATOM     11  C   UNL d   1      51.169  33.417  53.138  0.00  0.00     0.000 A 
ATOM     12  C   UNL d   1      51.173  34.237  53.064  0.00  0.00     0.002 A 
ENDROOT
BRANCH   3  13
ATOM     13  N   UNL d   1      53.066  32.259  54.237  0.00  0.00    -0.242 NA
BRANCH  13  14
ATOM     14  C   UNL d   1      53.219  31.783  53.580  0.00  0.00     0.100 C 
BRANCH  14  15
ATOM     15  C   UNL d   1      53.194  30.963  53.651  0.00  0.00     0.030 A 
ATOM     16  C   UNL d   1      53.215  30.497  52.971  0.00  0.00     0.059 A 
ATOM     17 CL   UNL d   1      53.261  30.843  52.225  0.00  0.00    -0.082 Cl
ATOM     18  C   UNL d   1      53.190  29.677  53.040  0.00  0.00     0.011 A 
ATOM     19  C   UNL d   1      53.143  29.323  53.790  0.00  0.00     0.001 A 
ATOM     20  C   UNL d   1      53.123  29.797  54.466  0.00  0.00     0.000 A 
ATOM     21  C   UNL d   1      53.148  30.617  54.395  0.00  0.00     0.002 A 
ENDBRANCH  14  15
ENDBRANCH  13  14
ENDBRANCH   3  13
BRANCH   1  22
ATOM     22  N   UNL d   1      54.345  33.138  54.822  0.00  0.00    -0.107 N 
ATOM     23  O   UNL d   1      55.037  32.992  54.399  0.00  0.00    -0.531 OA
ATOM     24  O   UNL d   1      54.285  32.897  55.611  0.00  0.00    -0.531 OA
ENDBRANCH   1  22
TORSDOF 4
ENDMDL
MODEL 3
REMARK VINA RESULT:      -9.0      1.935      3.422
REMARK  4 active torsions:
REMARK  status: ('A' for Active; 'I' for Inactive)
REMARK    1  A    between atoms: N_5  and  C_1 
REMARK    2  A    between atoms: N_8  and  C_3 
REMARK    3  A    between atoms: C_13  and  N_8 
REMARK    4  A    between atoms: C_12  and  C_13 
ROOT
ATOM      1  C   UNL d   1      52.484  33.558  53.486  0.00  0.00     0.200 A 
ATOM      2  C   UNL d   1      52.424  34.327  53.776  0.00  0.00     0.288 A 
ATOM      3  C   UNL d   1      53.146  33.086  53.668  0.00  0.00     0.109 A 
ATOM      4  N   UNL d   1      53.030  34.632  54.255  0.00  0.00    -0.270 N 
ATOM      5  C   UNL d   1      53.748  33.399  54.147  0.00  0.00     0.036 A 
ATOM      6  C   UNL d   1      53.689  34.170  54.439  0.00  0.00     0.069 A 
ATOM      7  O   UNL d   1      51.766  34.788  53.592  0.00  0.00    -0.265 OA
ATOM      8  C   UNL d   1      52.971  35.400  54.545  0.00  0.00     0.102 C 
ATOM      9  C   UNL d   1      54.407  32.938  54.332  0.00  0.00     0.003 A 
ATOM     10  C   UNL d   1      54.288  34.477  54.915  0.00  0.00     0.018 A 
ATOM     11  C   UNL d   1      55.006  33.248  54.809  0.00  0.00     0.000 A 
ATOM     12  C   UNL d   1      54.947  34.016  55.099  0.00  0.00     0.002 A 
ENDROOT
BRANCH   3  13
ATOM     13  N   UNL d   1      53.207  32.318  53.378  0.00  0.00    -0.242 NA
BRANCH  13  14
ATOM     14  C   UNL d   1      53.187  31.677  53.897  0.00  0.00     0.100 C 
BRANCH  14  15
ATOM     15  C   UNL d   1      53.185  30.909  53.602  0.00  0.00     0.030 A 
ATOM     16  C   UNL d   1      53.136  30.273  54.126  0.00  0.00     0.059 A 
ATOM     17 CL   UNL d   1      53.090  30.402  54.939  0.00  0.00    -0.082 Cl
ATOM     18  C   UNL d   1      53.134  29.504  53.833  0.00  0.00     0.011 A 
ATOM     19  C   UNL d   1      53.181  29.371  53.014  0.00  0.00     0.001 A 
ATOM     20  C   UNL d   1      53.230  30.011  52.496  0.00  0.00     0.000 A 
ATOM     21  C   UNL d   1      53.232  30.780  52.791  0.00  0.00     0.002 A 
ENDBRANCH  14  15
ENDBRANCH  13  14
ENDBRANCH   3  13
BRANCH   1  22
ATOM     22  N   UNL d   1      51.882  33.246  53.007  0.00  0.00    -0.107 N 
ATOM     23  O   UNL d   1      51.969  33.246  52.187  0.00  0.00    -0.531 OA
ATOM     24  O   UNL d   1      51.196  32.935  53.349  0.00  0.00    -0.531 OA
ENDBRANCH   1  22
TORSDOF 4
ENDMDL
MODEL 4
REMARK VINA RESULT:      -8.4      1.518      2.136
REMARK  4 active torsions:
REMARK  status: ('A' for Active; 'I' for Inactive)
REMARK    1  A    between atoms: N_5  and  C_1 
REMARK    2  A    between atoms: N_8  and  C_3 
REMARK    3  A    between atoms: C_13  and  N_8 
REMARK    4  A    between atoms: C_12  and  C_13 
ROOT
ATOM      1  C   UNL d   1      52.886  32.582  53.512  0.00  0.00     0.200 A 
ATOM      2  C   UNL d   1      53.438  32.365  54.084  0.00  0.00     0.288 A 
ATOM      3  C   UNL d   1      52.660  33.378  53.422  0.00  0.00     0.109 A 
ATOM      4  N   UNL d   1      53.771  32.948  54.573  0.00  0.00    -0.270 N 
ATOM      5  C   UNL d   1      52.997  33.955  53.915  0.00  0.00     0.036 A 
ATOM      6  C   UNL d   1      53.552  33.739  54.489  0.00  0.00     0.069 A 
ATOM      7  O   UNL d   1      53.657  31.575  54.167  0.00  0.00    -0.265 OA
ATOM      8  C   UNL d   1      54.323  32.732  55.144  0.00  0.00     0.102 C 
ATOM      9  C   UNL d   1      52.778  34.746  53.831  0.00  0.00     0.003 A 
ATOM     10  C   UNL d   1      53.885  34.313  54.976  0.00  0.00     0.018 A 
ATOM     11  C   UNL d   1      53.113  35.320  54.321  0.00  0.00     0.000 A 
ATOM     12  C   UNL d   1      53.665  35.104  54.893  0.00  0.00     0.002 A 
ENDROOT
BRANCH   3  13
ATOM     13  N   UNL d   1      52.108  33.596  52.851  0.00  0.00    -0.242 NA
BRANCH  13  14
ATOM     14  C   UNL d   1      51.368  33.881  53.078  0.00  0.00     0.100 C 
BRANCH  14  15
ATOM     15  C   UNL d   1      50.817  34.099  52.506  0.00  0.00     0.030 A 
ATOM     16  C   UNL d   1      50.045  34.281  52.734  0.00  0.00     0.059 A 
ATOM     17 CL   UNL d   1      49.822  34.245  53.527  0.00  0.00    -0.082 Cl
ATOM     18  C   UNL d   1      49.494  34.500  52.164  0.00  0.00     0.011 A 
ATOM     19  C   UNL d   1      49.715  34.537  51.364  0.00  0.00     0.001 A 
ATOM     20  C   UNL d   1      50.489  34.354  51.143  0.00  0.00     0.000 A 
ATOM     21  C   UNL d   1      51.039  34.135  51.715  0.00  0.00     0.002 A 
ENDBRANCH  14  15
ENDBRANCH  13  14
ENDBRANCH   3  13
BRANCH   1  22
ATOM     22  N   UNL d   1      52.549  32.005  53.019  0.00  0.00    -0.107 N 
ATOM     23  O   UNL d   1      52.848  31.888  52.261  0.00  0.00    -0.531 OA
ATOM     24  O   UNL d   1      51.913  31.548  53.288  0.00  0.00    -0.531 OA
ENDBRANCH   1  22
TORSDOF 4
ENDMDL
MODEL 5
REMARK VINA RESULT:      -6.2      2.188      3.773
REMARK  4 active torsions:
REMARK  status: ('A' for Active; 'I' for Inactive)
REMARK    1  A    between atoms: N_5  and  C_1 
REMARK    2  A    between atoms: N_8  and  C_3 
REMARK    3  A    between atoms: C_13  and  N_8 
REMARK    4  A    between atoms: C_12  and  C_13 
ROOT
ATOM      1  C   UNL d   1      52.258  32.378  53.291  0.00  0.00     0.200 A 
ATOM      2  C   UNL d   1      51.601  31.894  53.179  0.00  0.00     0.288 A 
ATOM      3  C   UNL d   1      53.010  32.049  53.431  0.00  0.00     0.109 A 
ATOM      4  N   UNL d   1      51.693  31.069  53.206  0.00  0.00    -0.270 N 
ATOM      5  C   UNL d   1      53.092  31.222  53.456  0.00  0.00     0.036 A 
ATOM      6  C   UNL d   1      52.434  30.735  53.344  0.00  0.00     0.069 A 
ATOM      7  O   UNL d   1      50.860  32.227  53.041  0.00  0.00    -0.265 OA
ATOM      8  C   UNL d   1      51.037  30.584  53.094  0.00  0.00     0.102 C 
ATOM      9  C   UNL d   1      53.834  30.888  53.594  0.00  0.00     0.003 A 
ATOM     10  C   UNL d   1      52.520  29.916  53.370  0.00  0.00     0.018 A 
ATOM     11  C   UNL d   1      53.918  30.067  53.620  0.00  0.00     0.000 A 
ATOM     12  C   UNL d   1      53.262  29.582  53.508  0.00  0.00     0.002 A 
ENDROOT
BRANCH   3  13
ATOM     13  N   UNL d   1      53.666  32.532  53.543  0.00  0.00    -0.242 NA
BRANCH  13  14
ATOM     14  C   UNL d   1      53.982  32.634  54.299  0.00  0.00     0.100 C 
BRANCH  14  15
ATOM     15  C   UNL d   1      54.634  33.123  54.410  0.00  0.00     0.030 A 
ATOM     16  C   UNL d   1      54.811  33.398  55.168  0.00  0.00     0.059 A 
ATOM     17 CL   UNL d   1      54.341  33.186  55.811  0.00  0.00    -0.082 Cl
ATOM     18  C   UNL d   1      55.463  33.887  55.281  0.00  0.00     0.011 A 
ATOM     19  C   UNL d   1      55.939  34.102  54.635  0.00  0.00     0.001 A 
ATOM     20  C   UNL d   1      55.756  33.824  53.880  0.00  0.00     0.000 A 
ATOM     21  C   UNL d   1      55.104  33.334  53.769  0.00  0.00     0.002 A 
ENDBRANCH  14  15
ENDBRANCH  13  14
ENDBRANCH   3  13
BRANCH   1  22
ATOM     22  N   UNL d   1      52.175  33.204  53.265  0.00  0.00    -0.107 N 
ATOM     23  O   UNL d   1      52.391  33.617  52.586  0.00  0.00    -0.531 OA
ATOM     24  O   UNL d   1      51.876  33.613  53.920  0.00  0.00    -0.531 OA
ENDBRANCH   1  22
TORSDOF 4
ENDMDL
