MODEL 1
REMARK VINA RESULT:      -7.2      0.000      0.000
REMARK  6 active torsions:
REMARK  status: ('A' for Active; 'I' for Inactive)
REMARK    1  A    between atoms: S_5  and  C_2 
REMARK    2  A    between atoms: C_16  and  S_5 
REMARK    3  A    between atoms: N_11  and  C_8 
REMARK    4  A    between atoms: C_18  and  N_11 
REMARK    5  A    between atoms: C_19  and  N_12 
REMARK    6  A    between atoms: C_27  and  C_19 
ROOT
ATOM      1  C   UNL d   1      53.414  32.790  54.080  0.00  0.00     0.197 A 
ATOM      2  C   UNL d   1      53.801  33.338  54.557  0.00  0.00     0.227 A 
ATOM      3  N   UNL d   1      53.739  32.048  54.229  0.00  0.00    -0.192 N 
ATOM      4  N   UNL d   1      52.803  32.872  53.525  0.00  0.00    -0.206 NA
ATOM      5  N   UNL d   1      54.373  32.930  55.007  0.00  0.00    -0.115 NA
ATOM      6  N   UNL d   1      54.330  32.128  54.798  0.00  0.00    -0.058 NA
ATOM      7  C   UNL d   1      52.514  32.213  53.117  0.00  0.00     0.166 A 
ATOM      8  C   UNL d   1      52.845  31.470  53.272  0.00  0.00     0.054 A 
ATOM      9  C   UNL d   1      53.453  31.385  53.823  0.00  0.00     0.089 A 
ATOM     10  C   UNL d   1      53.781  30.642  53.975  0.00  0.00     0.020 A 
ATOM     11  C   UNL d   1      52.562  30.806  52.868  0.00  0.00     0.016 A 
ATOM     12  C   UNL d   1      52.887  30.064  53.017  0.00  0.00     0.058 A 
ATOM     13  C   UNL d   1      53.498  29.982  53.571  0.00  0.00     0.013 A 
ATOM     14 CL   UNL d   1      52.604  29.404  52.614  0.00  0.00    -0.082 Cl
ENDROOT
BRANCH   7  15
ATOM     15  N   UNL d   1      51.906  32.295  52.566  0.00  0.00    -0.227 NA
BRANCH  15  16
ATOM     16  C   UNL d   1      51.407  32.949  52.594  0.00  0.00     0.086 A 
ATOM     17  C   UNL d   1      50.784  32.971  53.134  0.00  0.00     0.038 A 
ATOM     18  C   UNL d   1      50.291  33.626  53.158  0.00  0.00     0.082 A 
ATOM     19  N   UNL d   1      50.414  34.266  52.643  0.00  0.00    -0.302 N 
ATOM     20  C   UNL d   1      51.039  34.237  52.105  0.00  0.00     0.082 A 
ATOM     21  C   UNL d   1      51.532  33.582  52.082  0.00  0.00     0.038 A 
BRANCH  19  22
ATOM     22  C   UNL d   1      49.918  34.921  52.668  0.00  0.00     0.080 C 
BRANCH  22  23
ATOM     23  C   UNL d   1      49.239  34.944  52.200  0.00  0.00     0.018 A 
ATOM     24  C   UNL d   1      49.265  34.693  51.416  0.00  0.00     0.002 A 
ATOM     25  C   UNL d   1      48.588  34.714  50.945  0.00  0.00     0.000 A 
ATOM     26  C   UNL d   1      47.880  34.989  51.264  0.00  0.00     0.000 A 
ATOM     27  C   UNL d   1      47.850  35.243  52.055  0.00  0.00     0.000 A 
ATOM     28  C   UNL d   1      48.531  35.219  52.520  0.00  0.00     0.002 A 
ENDBRANCH  22  23
ENDBRANCH  19  22
ENDBRANCH  15  16
ENDBRANCH   7  15
BRANCH   2  29
ATOM     29  S   UNL d   1      53.658  34.154  54.593  0.00  0.00     0.231 S 
ATOM     30  O   UNL d   1      54.164  34.298  53.962  0.00  0.00    -0.215 OA
ATOM     31  O   UNL d   1      53.149  34.005  55.228  0.00  0.00    -0.215 OA
BRANCH  29  32
ATOM     32  C   UNL d   1      53.480  34.955  54.673  0.00  0.00     0.090 A 
ATOM     33  C   UNL d   1      52.961  35.200  55.258  0.00  0.00     0.011 A 
ATOM     34  C   UNL d   1      52.783  36.001  55.339  0.00  0.00     0.001 A 
ATOM     35  C   UNL d   1      53.130  36.549  54.828  0.00  0.00     0.000 A 
ATOM     36  C   UNL d   1      53.655  36.299  54.238  0.00  0.00     0.001 A 
ATOM     37  C   UNL d   1      53.825  35.501  54.165  0.00  0.00     0.011 A 
ENDBRANCH  29  32
ENDBRANCH   2  29
TORSDOF 6
ENDMDL
MODEL 2
REMARK VINA RESULT:      -6.2      1.657      3.517
REMARK  6 active torsions:
REMARK  status: ('A' for Active; 'I' for Inactive)
REMARK    1  A    between atoms: S_5  and  C_2 
REMARK    2  A    between atoms: C_16  and  S_5 
REMARK    3  A    between atoms: N_11  and  C_8 
REMARK    4  A    between atoms: C_18  and  N_11 
REMARK    5  A    between atoms: C_19  and  N_12 
REMARK    6  A    between atoms: C_27  and  C_19 
ROOT
ATOM      1  C   UNL d   1      53.474  32.971  54.196  0.00  0.00     0.197 A 
ATOM      2  C   UNL d   1      53.645  32.184  54.366  0.00  0.00     0.227 A 
ATOM      3  N   UNL d   1      53.752  33.433  54.818  0.00  0.00    -0.192 N 
ATOM      4  N   UNL d   1      53.098  33.328  53.549  0.00  0.00    -0.206 NA
ATOM      5  N   UNL d   1      54.035  32.159  55.104  0.00  0.00    -0.115 NA
ATOM      6  N   UNL d   1      54.098  32.939  55.380  0.00  0.00    -0.058 NA
ATOM      7  C   UNL d   1      52.998  34.149  53.520  0.00  0.00     0.166 A 
ATOM      8  C   UNL d   1      53.279  34.608  54.149  0.00  0.00     0.054 A 
ATOM      9  C   UNL d   1      53.654  34.256  54.795  0.00  0.00     0.089 A 
ATOM     10  C   UNL d   1      53.934  34.717  55.421  0.00  0.00     0.020 A 
ATOM     11  C   UNL d   1      53.183  35.429  54.129  0.00  0.00     0.016 A 
ATOM     12  C   UNL d   1      53.462  35.892  54.752  0.00  0.00     0.058 A 
ATOM     13  C   UNL d   1      53.838  35.535  55.399  0.00  0.00     0.013 A 
ATOM     14 CL   UNL d   1      53.365  36.709  54.730  0.00  0.00    -0.082 Cl
ENDROOT
BRANCH   7  15
ATOM     15  N   UNL d   1      52.623  34.504  52.877  0.00  0.00    -0.227 NA
BRANCH  15  16
ATOM     16  C   UNL d   1      51.834  34.337  52.714  0.00  0.00     0.086 A 
ATOM     17  C   UNL d   1      51.260  34.439  53.299  0.00  0.00     0.038 A 
ATOM     18  C   UNL d   1      50.476  34.271  53.130  0.00  0.00     0.082 A 
ATOM     19  N   UNL d   1      50.254  33.999  52.377  0.00  0.00    -0.302 N 
ATOM     20  C   UNL d   1      50.833  33.900  51.797  0.00  0.00     0.082 A 
ATOM     21  C   UNL d   1      51.617  34.068  51.966  0.00  0.00     0.038 A 
BRANCH  19  22
ATOM     22  C   UNL d   1      49.467  33.832  52.210  0.00  0.00     0.080 C 
BRANCH  22  23
ATOM     23  C   UNL d   1      48.961  34.432  51.958  0.00  0.00     0.018 A 
ATOM     24  C   UNL d   1      48.688  34.998  52.491  0.00  0.00     0.002 A 
ATOM     25  C   UNL d   1      48.182  35.600  52.243  0.00  0.00     0.000 A 
ATOM     26  C   UNL d   1      47.948  35.634  51.454  0.00  0.00     0.000 A 
ATOM     27  C   UNL d   1      48.221  35.066  50.913  0.00  0.00     0.000 A 
ATOM     28  C   UNL d   1      48.727  34.466  51.169  0.00  0.00     0.002 A 
ENDBRANCH  22  23
ENDBRANCH  19  22
ENDBRANCH  15  16
ENDBRANCH   7  15
BRANCH   2  29
ATOM     29  S   UNL d   1      53.468  31.524  53.897  0.00  0.00     0.231 S 
ATOM     30  O   UNL d   1      54.139  31.637  53.437  0.00  0.00    -0.215 OA
ATOM     31  O   UNL d   1      52.793  31.413  54.363  0.00  0.00    -0.215 OA
BRANCH  29  32
ATOM     32  C   UNL d   1      53.245  30.859  53.463  0.00  0.00     0.090 A 
ATOM     33  C   UNL d   1      53.210  30.127  53.829  0.00  0.00     0.011 A 
ATOM     34  C   UNL d   1      52.987  29.462  53.395  0.00  0.00     0.001 A 
ATOM     35  C   UNL d   1      52.802  29.542  52.594  0.00  0.00     0.000 A 
ATOM     36  C   UNL d   1      52.838  30.283  52.226  0.00  0.00     0.001 A 
ATOM     37  C   UNL d   1      53.060  30.938  52.666  0.00  0.00     0.011 A 
ENDBRANCH  29  32
ENDBRANCH   2  29
TORSDOF 6
ENDMDL
MODEL 3
REMARK VINA RESULT:      -5.1      1.589      4.508
REMARK  6 active torsions:
REMARK  status: ('A' for Active; 'I' for Inactive)
REMARK    1  A    between atoms: S_5  and  C_2 
REMARK    2  A    between atoms: C_16  and  S_5 
REMARK    3  A    between atoms: N_11  and  C_8 
REMARK    4  A    between atoms: C_18  and  N_11 
REMARK    5  A    between atoms: C_19  and  N_12 
REMARK    6  A    between atoms: C_27  and  C_19 
ROOT
ATOM      1  C   UNL d   1      52.146  34.383  53.714  0.00  0.00     0.197 A 
ATOM      2  C   UNL d   1      52.672  34.745  54.235  0.00  0.00     0.227 A 
ATOM      3  N   UNL d   1      51.498  34.881  53.619  0.00  0.00    -0.192 N 
ATOM      4  N   UNL d   1      52.177  33.659  53.312  0.00  0.00    -0.206 NA
ATOM      5  N   UNL d   1      52.343  35.477  54.465  0.00  0.00    -0.115 NA
ATOM      6  N   UNL d   1      51.613  35.556  54.079  0.00  0.00    -0.058 NA
ATOM      7  C   UNL d   1      51.559  33.428  52.812  0.00  0.00     0.166 A 
ATOM      8  C   UNL d   1      50.909  33.934  52.721  0.00  0.00     0.054 A 
ATOM      9  C   UNL d   1      50.876  34.655  53.120  0.00  0.00     0.089 A 
ATOM     10  C   UNL d   1      50.226  35.157  53.027  0.00  0.00     0.020 A 
ATOM     11  C   UNL d   1      50.286  33.711  52.224  0.00  0.00     0.016 A 
ATOM     12  C   UNL d   1      49.637  34.210  52.129  0.00  0.00     0.058 A 
ATOM     13  C   UNL d   1      49.607  34.934  52.531  0.00  0.00     0.013 A 
ATOM     14 CL   UNL d   1      49.019  33.987  51.633  0.00  0.00    -0.082 Cl
ENDROOT
BRANCH   7  15
ATOM     15  N   UNL d   1      51.589  32.708  52.412  0.00  0.00    -0.227 NA
BRANCH  15  16
ATOM     16  C   UNL d   1      52.109  32.119  52.659  0.00  0.00     0.086 A 
ATOM     17  C   UNL d   1      51.873  31.569  53.226  0.00  0.00     0.038 A 
ATOM     18  C   UNL d   1      52.396  30.986  53.467  0.00  0.00     0.082 A 
ATOM     19  N   UNL d   1      53.161  30.945  53.145  0.00  0.00    -0.302 N 
ATOM     20  C   UNL d   1      53.391  31.499  52.578  0.00  0.00     0.082 A 
ATOM     21  C   UNL d   1      52.867  32.082  52.337  0.00  0.00     0.038 A 
BRANCH  19  22
ATOM     22  C   UNL d   1      53.684  30.360  53.388  0.00  0.00     0.080 C 
BRANCH  22  23
ATOM     23  C   UNL d   1      53.499  29.883  54.036  0.00  0.00     0.018 A 
ATOM     24  C   UNL d   1      53.517  30.192  54.799  0.00  0.00     0.002 A 
ATOM     25  C   UNL d   1      53.332  29.719  55.449  0.00  0.00     0.000 A 
ATOM     26  C   UNL d   1      53.128  28.929  55.331  0.00  0.00     0.000 A 
ATOM     27  C   UNL d   1      53.108  28.614  54.563  0.00  0.00     0.000 A 
ATOM     28  C   UNL d   1      53.294  29.094  53.918  0.00  0.00     0.002 A 
ENDBRANCH  22  23
ENDBRANCH  19  22
ENDBRANCH  15  16
ENDBRANCH   7  15
BRANCH   2  29
ATOM     29  S   UNL d   1      53.401  34.446  54.493  0.00  0.00     0.231 S 
ATOM     30  O   UNL d   1      53.792  34.770  53.847  0.00  0.00    -0.215 OA
ATOM     31  O   UNL d   1      53.003  34.122  55.142  0.00  0.00    -0.215 OA
BRANCH  29  32
ATOM     32  C   UNL d   1      54.099  34.127  54.795  0.00  0.00     0.090 A 
ATOM     33  C   UNL d   1      54.078  33.683  55.483  0.00  0.00     0.011 A 
ATOM     34  C   UNL d   1      54.776  33.363  55.785  0.00  0.00     0.001 A 
ATOM     35  C   UNL d   1      55.488  33.495  55.390  0.00  0.00     0.000 A 
ATOM     36  C   UNL d   1      55.507  33.944  54.694  0.00  0.00     0.001 A 
ATOM     37  C   UNL d   1      54.808  34.257  54.402  0.00  0.00     0.011 A 
ENDBRANCH  29  32
ENDBRANCH   2  29
TORSDOF 6
ENDMDL
MODEL 4
REMARK VINA RESULT:      -4.5      1.839      4.958
REMARK  6 active torsions:
REMARK  status: ('A' for Active; 'I' for Inactive)
REMARK    1  A    between atoms: S_5  and  C_2 
REMARK    2  A    between atoms: C_16  and  S_5 
REMARK    3  A    between atoms: N_11  and  C_8 
REMARK    4  A    between atoms: C_18  and  N_11 
REMARK    5  A    between atoms: C_19  and  N_12 
REMARK    6  A    between atoms: C_27  and  C_19 
ROOT
ATOM      1  C   UNL d   1      52.576  34.401  53.760  0.00  0.00     0.197 A 
ATOM      2  C   UNL d   1      51.860  34.789  53.636  0.00  0.00     0.227 A 
ATOM      3  N   UNL d   1      52.977  34.794  54.362  0.00  0.00    -0.192 N 
ATOM      4  N   UNL d   1      52.915  33.737  53.399  0.00  0.00    -0.206 NA
ATOM      5  N   UNL d   1      51.818  35.430  54.169  0.00  0.00    -0.115 NA
ATOM      6  N   UNL d   1      52.516  35.427  54.618  0.00  0.00    -0.058 NA
ATOM      7  C   UNL d   1      53.657  33.460  53.638  0.00  0.00     0.166 A 
ATOM      8  C   UNL d   1      54.056  33.859  54.244  0.00  0.00     0.054 A 
ATOM      9  C   UNL d   1      53.721  34.521  54.606  0.00  0.00     0.089 A 
ATOM     10  C   UNL d   1      54.121  34.917  55.211  0.00  0.00     0.020 A 
ATOM     11  C   UNL d   1      54.798  33.590  54.490  0.00  0.00     0.016 A 
ATOM     12  C   UNL d   1      55.200  33.982  55.093  0.00  0.00     0.058 A 
ATOM     13  C   UNL d   1      54.861  34.647  55.454  0.00  0.00     0.013 A 
ATOM     14 CL   UNL d   1      55.939  33.713  55.335  0.00  0.00    -0.082 Cl
ENDROOT
BRANCH   7  15
ATOM     15  N   UNL d   1      53.995  32.799  53.278  0.00  0.00    -0.227 NA
BRANCH  15  16
ATOM     16  C   UNL d   1      53.652  32.057  53.373  0.00  0.00     0.086 A 
ATOM     17  C   UNL d   1      53.648  31.694  54.113  0.00  0.00     0.038 A 
ATOM     18  C   UNL d   1      53.304  30.954  54.200  0.00  0.00     0.082 A 
ATOM     19  N   UNL d   1      52.960  30.569  53.550  0.00  0.00    -0.302 N 
ATOM     20  C   UNL d   1      52.967  30.939  52.812  0.00  0.00     0.082 A 
ATOM     21  C   UNL d   1      53.311  31.678  52.725  0.00  0.00     0.038 A 
BRANCH  19  22
ATOM     22  C   UNL d   1      52.616  29.829  53.640  0.00  0.00     0.080 C 
BRANCH  22  23
ATOM     23  C   UNL d   1      52.969  29.265  54.127  0.00  0.00     0.018 A 
ATOM     24  C   UNL d   1      52.748  29.201  54.918  0.00  0.00     0.002 A 
ATOM     25  C   UNL d   1      53.100  28.639  55.409  0.00  0.00     0.000 A 
ATOM     26  C   UNL d   1      53.677  28.137  55.103  0.00  0.00     0.000 A 
ATOM     27  C   UNL d   1      53.903  28.199  54.306  0.00  0.00     0.000 A 
ATOM     28  C   UNL d   1      53.547  28.763  53.821  0.00  0.00     0.002 A 
ENDBRANCH  22  23
ENDBRANCH  19  22
ENDBRANCH  15  16
ENDBRANCH   7  15
BRANCH   2  29
ATOM     29  S   UNL d   1      51.276  34.589  53.083  0.00  0.00     0.231 S 
ATOM     30  O   UNL d   1      50.917  34.071  53.609  0.00  0.00    -0.215 OA
ATOM     31  O   UNL d   1      51.640  35.112  52.555  0.00  0.00    -0.215 OA
BRANCH  29  32
ATOM     32  C   UNL d   1      50.719  34.427  52.496  0.00  0.00     0.090 A 
ATOM     33  C   UNL d   1      50.969  34.264  51.733  0.00  0.00     0.011 A 
ATOM     34  C   UNL d   1      50.414  34.101  51.145  0.00  0.00     0.001 A 
ATOM     35  C   UNL d   1      49.610  34.104  51.334  0.00  0.00     0.000 A 
ATOM     36  C   UNL d   1      49.359  34.269  52.106  0.00  0.00     0.001 A 
ATOM     37  C   UNL d   1      49.919  34.429  52.682  0.00  0.00     0.011 A 
ENDBRANCH  29  32
ENDBRANCH   2  29
TORSDOF 6
ENDMDL
