MODEL 1
REMARK VINA RESULT:      77.6      0.000      0.000
REMARK  7 active torsions:
REMARK  status: ('A' for Active; 'I' for Inactive)
REMARK    1  A    between atoms: N_6  and  C_1 
REMARK    2  A    between atoms: C_10  and  C_2 
REMARK       I    between atoms: C_8  and  N_6 
REMARK       I    between atoms: C_9  and  N_7 
REMARK    3  A    between atoms: C_12  and  C_8 
REMARK    4  A    between atoms: O_22  and  C_9 
REMARK    5  A    between atoms: O_23  and  C_10 
REMARK    6  A    between atoms: C_24  and  O_22 
REMARK    7  A    between atoms: C_25  and  O_23 
ROOT
ATOM      1  C   UNL d   1     -48.421  30.145  34.452  0.00  0.00     0.119 A 
ATOM      2  C   UNL d   1     -48.120  29.489  34.854  0.00  0.00     0.088 A 
ATOM      3  C   UNL d   1     -49.181  29.093  34.155  0.00  0.00     0.049 A 
ATOM      4  C   UNL d   1     -48.601  28.838  34.662  0.00  0.00     0.016 A 
ATOM      5  S   UNL d   1     -49.084  29.897  34.015  0.00  0.00    -0.066 SA
ATOM      6  N   UNL d   1     -49.715  27.764  34.102  0.00  0.00    -0.251 N 
ATOM      7  C   UNL d   1     -50.274  27.224  33.821  0.00  0.00     0.378 C 
ATOM      8  C   UNL d   1     -49.752  28.548  33.866  0.00  0.00     0.091 A 
ATOM      9  C   UNL d   1     -48.558  28.042  34.906  0.00  0.00     0.020 A 
ATOM     10  C   UNL d   1     -49.123  27.513  34.618  0.00  0.00     0.085 A 
ATOM     11  O   UNL d   1     -50.866  27.474  33.306  0.00  0.00    -0.237 OA
ENDROOT
BRANCH   1  12
ATOM     12  N   UNL d   1     -48.116  30.919  34.479  0.00  0.00    -0.201 NA
ATOM     13  C   UNL d   1     -48.345  31.463  33.911  0.00  0.00     0.286 C 
ATOM     14  O   UNL d   1     -48.873  31.257  33.311  0.00  0.00    -0.265 OA
BRANCH  13  15
ATOM     15  C   UNL d   1     -48.042  32.230  33.937  0.00  0.00     0.087 A 
ATOM     16  S   UNL d   1     -47.341  32.474  34.301  0.00  0.00    -0.082 SA
ATOM     17  C   UNL d   1     -47.259  33.292  34.188  0.00  0.00     0.036 A 
ATOM     18  C   UNL d   1     -47.903  33.538  33.759  0.00  0.00     0.008 A 
ATOM     19  C   UNL d   1     -48.389  32.897  33.601  0.00  0.00     0.012 A 
ENDBRANCH  13  15
ENDBRANCH   1  12
BRANCH   2  20
ATOM     20  C   UNL d   1     -47.463  29.491  35.352  0.00  0.00     0.302 C 
ATOM     21  O   UNL d   1     -46.748  29.200  35.056  0.00  0.00    -0.259 OA
BRANCH  20  22
ATOM     22  O   UNL d   1     -47.527  29.779  36.132  0.00  0.00    -0.271 OA
BRANCH  22  23
ATOM     23  C   UNL d   1     -46.848  29.935  36.569  0.00  0.00     0.126 C 
ATOM     24  C   UNL d   1     -46.891  30.028  37.392  0.00  0.00     0.029 C 
ENDBRANCH  22  23
ENDBRANCH  20  22
ENDBRANCH   2  20
BRANCH   7  25
ATOM     25  O   UNL d   1     -50.239  26.436  34.057  0.00  0.00    -0.257 OA
BRANCH  25  26
ATOM     26  C   UNL d   1     -50.409  25.830  33.523  0.00  0.00     0.128 C 
ATOM     27  C   UNL d   1     -51.169  25.514  33.469  0.00  0.00     0.029 C 
ENDBRANCH  25  26
ENDBRANCH   7  25
TORSDOF 7
ENDMDL
MODEL 2
REMARK VINA RESULT:      80.6      2.263      5.703
REMARK  7 active torsions:
REMARK  status: ('A' for Active; 'I' for Inactive)
REMARK    1  A    between atoms: N_6  and  C_1 
REMARK    2  A    between atoms: C_10  and  C_2 
REMARK       I    between atoms: C_8  and  N_6 
REMARK       I    between atoms: C_9  and  N_7 
REMARK    3  A    between atoms: C_12  and  C_8 
REMARK    4  A    between atoms: O_22  and  C_9 
REMARK    5  A    between atoms: O_23  and  C_10 
REMARK    6  A    between atoms: C_24  and  O_22 
REMARK    7  A    between atoms: C_25  and  O_23 
ROOT
ATOM      1  C   UNL d   1     -50.522  26.514  34.896  0.00  0.00     0.119 A 
ATOM      2  C   UNL d   1     -50.520  26.900  35.626  0.00  0.00     0.088 A 
ATOM      3  C   UNL d   1     -49.535  27.407  34.889  0.00  0.00     0.049 A 
ATOM      4  C   UNL d   1     -49.901  27.454  35.612  0.00  0.00     0.016 A 
ATOM      5  S   UNL d   1     -49.907  26.831  34.436  0.00  0.00    -0.066 SA
ATOM      6  N   UNL d   1     -48.625  28.441  35.283  0.00  0.00    -0.251 N 
ATOM      7  C   UNL d   1     -47.984  28.937  35.120  0.00  0.00     0.378 C 
ATOM      8  C   UNL d   1     -48.883  27.908  34.717  0.00  0.00     0.091 A 
ATOM      9  C   UNL d   1     -49.643  27.994  36.192  0.00  0.00     0.020 A 
ATOM     10  C   UNL d   1     -49.002  28.483  36.015  0.00  0.00     0.085 A 
ATOM     11  O   UNL d   1     -47.608  28.894  34.388  0.00  0.00    -0.237 OA
ENDROOT
BRANCH   1  12
ATOM     12  N   UNL d   1     -51.048  25.912  34.660  0.00  0.00    -0.201 NA
ATOM     13  C   UNL d   1     -50.998  25.606  33.903  0.00  0.00     0.286 C 
ATOM     14  O   UNL d   1     -50.434  25.883  33.367  0.00  0.00    -0.265 OA
BRANCH  13  15
ATOM     15  C   UNL d   1     -51.519  25.010  33.669  0.00  0.00     0.087 A 
ATOM     16  S   UNL d   1     -51.335  24.215  33.540  0.00  0.00    -0.082 SA
ATOM     17  C   UNL d   1     -52.028  23.820  33.313  0.00  0.00     0.036 A 
ATOM     18  C   UNL d   1     -52.624  24.371  33.306  0.00  0.00     0.008 A 
ATOM     19  C   UNL d   1     -52.324  25.102  33.522  0.00  0.00     0.012 A 
ENDBRANCH  13  15
ENDBRANCH   1  12
BRANCH   2  20
ATOM     20  C   UNL d   1     -51.041  26.754  36.248  0.00  0.00     0.302 C 
ATOM     21  O   UNL d   1     -51.852  26.751  36.086  0.00  0.00    -0.259 OA
BRANCH  20  22
ATOM     22  O   UNL d   1     -50.749  26.614  37.017  0.00  0.00    -0.271 OA
BRANCH  22  23
ATOM     23  C   UNL d   1     -51.257  26.656  37.663  0.00  0.00     0.126 C 
ATOM     24  C   UNL d   1     -51.289  26.036  38.213  0.00  0.00     0.029 C 
ENDBRANCH  22  23
ENDBRANCH  20  22
ENDBRANCH   2  20
BRANCH   7  25
ATOM     25  O   UNL d   1     -47.723  29.472  35.687  0.00  0.00    -0.257 OA
BRANCH  25  26
ATOM     26  C   UNL d   1     -47.021  29.891  35.578  0.00  0.00     0.128 C 
ATOM     27  C   UNL d   1     -46.925  30.647  35.893  0.00  0.00     0.029 C 
ENDBRANCH  25  26
ENDBRANCH   7  25
TORSDOF 7
ENDMDL
