MODEL 1
REMARK VINA RESULT:      10.5      0.000      0.000
REMARK  7 active torsions:
REMARK  status: ('A' for Active; 'I' for Inactive)
REMARK    1  A    between atoms: N_3  and  S_1 
REMARK    2  A    between atoms: C_7  and  S_1 
REMARK    3  A    between atoms: N_2  and  C_6 
REMARK    4  A    between atoms: C_5  and  N_3 
REMARK    5  A    between atoms: C_10  and  N_4 
REMARK    6  A    between atoms: C_6  and  C_5 
REMARK    7  A    between atoms: C_11  and  C_6 
ROOT
ATOM      1  C   UNL d   1     -42.503-122.175 -51.038  0.00  0.00     0.086 C 
ENDROOT
BRANCH   1   2
ATOM      2  N   UNL d   1     -42.312-122.173 -51.856  0.00  0.00    -0.300 N 
ATOM      3  C   UNL d   1     -42.113-122.879 -52.243  0.00  0.00     0.100 A 
ATOM      4  C   UNL d   1     -41.927-122.873 -53.044  0.00  0.00     0.100 A 
ATOM      5  N   UNL d   1     -41.939-122.163 -53.462  0.00  0.00    -0.301 N 
ATOM      6  C   UNL d   1     -42.138-121.457 -53.076  0.00  0.00     0.100 A 
ATOM      7  C   UNL d   1     -42.324-121.464 -52.274  0.00  0.00     0.100 A 
BRANCH   5   8
ATOM      8  C   UNL d   1     -41.753-122.157 -54.264  0.00  0.00     0.064 A 
ATOM      9  C   UNL d   1     -41.784-121.451 -54.687  0.00  0.00     0.020 A 
ATOM     10  C   UNL d   1     -41.598-121.443 -55.492  0.00  0.00     0.031 A 
ATOM     11  C   UNL d   1     -41.380-122.142 -55.871  0.00  0.00     0.140 A 
ATOM     12  C   UNL d   1     -41.350-122.850 -55.446  0.00  0.00     0.031 A 
ATOM     13  F   UNL d   1     -41.190-122.142 -56.686  0.00  0.00    -0.204 F 
ATOM     14  C   UNL d   1     -41.536-122.857 -54.644  0.00  0.00     0.020 A 
ENDBRANCH   5   8
ENDBRANCH   1   2
BRANCH   1  15
ATOM     15  C   UNL d   1     -41.922-122.349 -50.471  0.00  0.00     0.130 C 
BRANCH  15  16
ATOM     16  N   UNL d   1     -42.136-122.720 -49.755  0.00  0.00    -0.155 NA
BRANCH  16  17
ATOM     17  S   UNL d   1     -41.634-123.263 -49.403  0.00  0.00     0.285 S 
ATOM     18  O   UNL d   1     -41.123-123.816 -49.044  0.00  0.00    -0.198 OA
ATOM     19  O   UNL d   1     -41.157-123.269 -50.079  0.00  0.00    -0.198 OA
BRANCH  17  20
ATOM     20  C   UNL d   1     -42.111-123.260 -48.719  0.00  0.00     0.105 A 
ATOM     21  C   UNL d   1     -41.975-122.699 -48.130  0.00  0.00     0.015 A 
ATOM     22  C   UNL d   1     -42.443-122.691 -47.452  0.00  0.00     0.030 A 
ATOM     23  C   UNL d   1     -43.058-123.254 -47.364  0.00  0.00     0.140 A 
ATOM     24  C   UNL d   1     -43.192-123.816 -47.959  0.00  0.00     0.030 A 
ATOM     25  F   UNL d   1     -43.546-123.259 -46.676  0.00  0.00    -0.204 F 
ATOM     26  C   UNL d   1     -42.716-123.817 -48.638  0.00  0.00     0.015 A 
ENDBRANCH  17  20
ENDBRANCH  16  17
ENDBRANCH  15  16
ENDBRANCH   1  15
BRANCH   1  27
ATOM     27  C   UNL d   1     -43.281-122.002 -50.797  0.00  0.00     0.037 A 
ATOM     28  C   UNL d   1     -43.877-122.553 -50.931  0.00  0.00     0.100 A 
ATOM     29  N   UNL d   1     -44.650-122.388 -50.695  0.00  0.00    -0.242 NA
ATOM     30  C   UNL d   1     -44.818-121.669 -50.325  0.00  0.00     0.099 A 
ATOM     31  C   UNL d   1     -44.223-121.117 -50.190  0.00  0.00     0.021 A 
ATOM     32  C   UNL d   1     -43.451-121.285 -50.428  0.00  0.00     0.005 A 
ENDBRANCH   1  27
TORSDOF 7
ENDMDL
