MODEL 1
REMARK VINA RESULT:      -4.3      0.000      0.000
REMARK  6 active torsions:
REMARK  status: ('A' for Active; 'I' for Inactive)
REMARK    1  A    between atoms: C_7  and  S_1 
REMARK    2  A    between atoms: N_11  and  S_1 
REMARK    3  A    between atoms: C_5  and  C_21 
REMARK    4  A    between atoms: C_22  and  N_11 
REMARK    5  A    between atoms: C_20  and  C_13 
REMARK    6  A    between atoms: C_21  and  C_22 
ROOT
ATOM      1  S   UNL d   1      57.583   0.096  29.986  0.00  0.00     0.285 S 
ATOM      2  O   UNL d   1      57.028   0.671  30.196  0.00  0.00    -0.198 OA
ATOM      3  O   UNL d   1      57.558   0.361  29.205  0.00  0.00    -0.198 OA
ENDROOT
BRANCH   1   4
ATOM      4  C   UNL d   1      58.133  -0.474  29.775  0.00  0.00     0.105 A 
ATOM      5  C   UNL d   1      58.793  -0.255  29.323  0.00  0.00     0.013 A 
ATOM      6  C   UNL d   1      59.348  -0.836  29.112  0.00  0.00     0.001 A 
ATOM      7  C   UNL d   1      59.246  -1.613  29.344  0.00  0.00     0.000 A 
ATOM      8  C   UNL d   1      58.585  -1.828  29.795  0.00  0.00     0.001 A 
ATOM      9  C   UNL d   1      58.028  -1.259  30.010  0.00  0.00     0.013 A 
BRANCH   7  10
ATOM     10  C   UNL d   1      59.793  -2.187  29.135  0.00  0.00     0.000 A 
ATOM     11  C   UNL d   1      60.584  -1.990  29.031  0.00  0.00     0.000 A 
ATOM     12  C   UNL d   1      61.126  -2.575  28.822  0.00  0.00     0.000 A 
ATOM     13  C   UNL d   1      60.877  -3.353  28.717  0.00  0.00     0.000 A 
ATOM     14  C   UNL d   1      60.081  -3.553  28.821  0.00  0.00     0.000 A 
ATOM     15  C   UNL d   1      59.544  -2.964  29.030  0.00  0.00     0.000 A 
ENDBRANCH   7  10
ENDBRANCH   1   4
BRANCH   1  16
ATOM     16  N   UNL d   1      57.604  -0.167  30.768  0.00  0.00    -0.157 NA
BRANCH  16  17
ATOM     17  C   UNL d   1      57.287   0.290  31.362  0.00  0.00     0.114 C 
BRANCH  17  18
ATOM     18  C   UNL d   1      57.454   0.118  32.158  0.00  0.00     0.042 C 
BRANCH  18  19
ATOM     19  C   UNL d   1      56.861   0.238  32.735  0.00  0.00     0.102 A 
ATOM     20  N   UNL d   1      56.986   0.391  33.533  0.00  0.00    -0.227 NA
ATOM     21  C   UNL d   1      56.256   0.475  33.906  0.00  0.00     0.148 A 
ATOM     22  C   UNL d   1      56.043   0.628  34.683  0.00  0.00     0.037 A 
ATOM     23  N   UNL d   1      55.663   0.372  33.334  0.00  0.00    -0.288 N 
ATOM     24  C   UNL d   1      55.243   0.682  34.898  0.00  0.00     0.005 A 
ATOM     25  C   UNL d   1      54.660   0.581  34.334  0.00  0.00     0.019 A 
ATOM     26  C   UNL d   1      54.864   0.425  33.549  0.00  0.00     0.082 A 
ATOM     27  C   UNL d   1      56.029   0.225  32.605  0.00  0.00     0.101 A 
ENDBRANCH  18  19
ENDBRANCH  17  18
ENDBRANCH  16  17
ENDBRANCH   1  16
TORSDOF 6
ENDMDL
MODEL 2
REMARK VINA RESULT:      -2.7      1.692      5.490
REMARK  6 active torsions:
REMARK  status: ('A' for Active; 'I' for Inactive)
REMARK    1  A    between atoms: C_7  and  S_1 
REMARK    2  A    between atoms: N_11  and  S_1 
REMARK    3  A    between atoms: C_5  and  C_21 
REMARK    4  A    between atoms: C_22  and  N_11 
REMARK    5  A    between atoms: C_20  and  C_13 
REMARK    6  A    between atoms: C_21  and  C_22 
ROOT
ATOM      1  S   UNL d   1      58.339   0.262  29.185  0.00  0.00     0.285 S 
ATOM      2  O   UNL d   1      58.720   0.351  28.456  0.00  0.00    -0.198 OA
ATOM      3  O   UNL d   1      57.648   0.573  28.859  0.00  0.00    -0.198 OA
ENDROOT
BRANCH   1   4
ATOM      4  C   UNL d   1      57.959   0.175  29.906  0.00  0.00     0.105 A 
ATOM      5  C   UNL d   1      58.232   0.600  30.564  0.00  0.00     0.013 A 
ATOM      6  C   UNL d   1      57.843   0.508  31.292  0.00  0.00     0.001 A 
ATOM      7  C   UNL d   1      57.202   0.007  31.362  0.00  0.00     0.000 A 
ATOM      8  C   UNL d   1      56.933  -0.417  30.702  0.00  0.00     0.001 A 
ATOM      9  C   UNL d   1      57.312  -0.333  29.974  0.00  0.00     0.013 A 
BRANCH   7  10
ATOM     10  C   UNL d   1      56.818  -0.085  32.080  0.00  0.00     0.000 A 
ATOM     11  C   UNL d   1      56.903   0.479  32.672  0.00  0.00     0.000 A 
ATOM     12  C   UNL d   1      56.513   0.377  33.391  0.00  0.00     0.000 A 
ATOM     13  C   UNL d   1      56.040  -0.285  33.517  0.00  0.00     0.000 A 
ATOM     14  C   UNL d   1      55.952  -0.853  32.922  0.00  0.00     0.000 A 
ATOM     15  C   UNL d   1      56.345  -0.746  32.205  0.00  0.00     0.000 A 
ENDBRANCH   7  10
ENDBRANCH   1   4
BRANCH   1  16
ATOM     16  N   UNL d   1      59.032  -0.048  29.507  0.00  0.00    -0.157 NA
BRANCH  16  17
ATOM     17  C   UNL d   1      59.571  -0.430  29.031  0.00  0.00     0.114 C 
BRANCH  17  18
ATOM     18  C   UNL d   1      60.265  -0.751  29.357  0.00  0.00     0.042 C 
BRANCH  18  19
ATOM     19  C   UNL d   1      60.399  -1.574  29.300  0.00  0.00     0.102 A 
ATOM     20  N   UNL d   1      60.808  -2.037  29.842  0.00  0.00    -0.227 NA
ATOM     21  C   UNL d   1      60.813  -2.818  29.578  0.00  0.00     0.148 A 
ATOM     22  C   UNL d   1      61.132  -3.507  29.886  0.00  0.00     0.037 A 
ATOM     23  N   UNL d   1      60.402  -2.846  28.857  0.00  0.00    -0.288 N 
ATOM     24  C   UNL d   1      61.046  -4.228  29.484  0.00  0.00     0.005 A 
ATOM     25  C   UNL d   1      60.641  -4.255  28.775  0.00  0.00     0.019 A 
ATOM     26  C   UNL d   1      60.316  -3.566  28.455  0.00  0.00     0.082 A 
ATOM     27  C   UNL d   1      60.142  -2.080  28.677  0.00  0.00     0.101 A 
ENDBRANCH  18  19
ENDBRANCH  17  18
ENDBRANCH  16  17
ENDBRANCH   1  16
TORSDOF 6
ENDMDL
MODEL 3
REMARK VINA RESULT:      -2.4      1.878      6.010
REMARK  6 active torsions:
REMARK  status: ('A' for Active; 'I' for Inactive)
REMARK    1  A    between atoms: C_7  and  S_1 
REMARK    2  A    between atoms: N_11  and  S_1 
REMARK    3  A    between atoms: C_5  and  C_21 
REMARK    4  A    between atoms: C_22  and  N_11 
REMARK    5  A    between atoms: C_20  and  C_13 
REMARK    6  A    between atoms: C_21  and  C_22 
ROOT
ATOM      1  S   UNL d   1      56.712  -0.746  31.700  0.00  0.00     0.285 S 
ATOM      2  O   UNL d   1      57.079  -0.989  31.000  0.00  0.00    -0.198 OA
ATOM      3  O   UNL d   1      56.336  -1.478  31.754  0.00  0.00    -0.198 OA
ENDROOT
BRANCH   1   4
ATOM      4  C   UNL d   1      56.348  -0.508  32.394  0.00  0.00     0.105 A 
ATOM      5  C   UNL d   1      56.362   0.294  32.607  0.00  0.00     0.013 A 
ATOM      6  C   UNL d   1      55.991   0.530  33.312  0.00  0.00     0.001 A 
ATOM      7  C   UNL d   1      55.617  -0.017  33.790  0.00  0.00     0.000 A 
ATOM      8  C   UNL d   1      55.605  -0.817  33.574  0.00  0.00     0.001 A 
ATOM      9  C   UNL d   1      55.971  -1.063  32.876  0.00  0.00     0.013 A 
BRANCH   7  10
ATOM     10  C   UNL d   1      55.251   0.216  34.485  0.00  0.00     0.000 A 
ATOM     11  C   UNL d   1      54.454   0.415  34.490  0.00  0.00     0.000 A 
ATOM     12  C   UNL d   1      54.097   0.648  35.196  0.00  0.00     0.000 A 
ATOM     13  C   UNL d   1      54.533   0.681  35.892  0.00  0.00     0.000 A 
ATOM     14  C   UNL d   1      55.336   0.481  35.889  0.00  0.00     0.000 A 
ATOM     15  C   UNL d   1      55.689   0.249  35.181  0.00  0.00     0.000 A 
ENDBRANCH   7  10
ENDBRANCH   1   4
BRANCH   1  16
ATOM     16  N   UNL d   1      57.090  -0.016  31.642  0.00  0.00    -0.157 NA
BRANCH  16  17
ATOM     17  C   UNL d   1      57.498   0.183  30.966  0.00  0.00     0.114 C 
BRANCH  17  18
ATOM     18  C   UNL d   1      58.182   0.652  31.011  0.00  0.00     0.042 C 
BRANCH  18  19
ATOM     19  C   UNL d   1      58.817   0.499  30.489  0.00  0.00     0.102 A 
ATOM     20  N   UNL d   1      59.597   0.351  30.703  0.00  0.00    -0.227 NA
ATOM     21  C   UNL d   1      60.043   0.230  30.022  0.00  0.00     0.148 A 
ATOM     22  C   UNL d   1      60.836   0.064  29.899  0.00  0.00     0.037 A 
ATOM     23  N   UNL d   1      59.537   0.302  29.368  0.00  0.00    -0.288 N 
ATOM     24  C   UNL d   1      61.133  -0.031  29.130  0.00  0.00     0.005 A 
ATOM     25  C   UNL d   1      60.634   0.040  28.487  0.00  0.00     0.019 A 
ATOM     26  C   UNL d   1      59.833   0.207  28.599  0.00  0.00     0.082 A 
ATOM     27  C   UNL d   1      58.775   0.469  29.648  0.00  0.00     0.101 A 
ENDBRANCH  18  19
ENDBRANCH  17  18
ENDBRANCH  16  17
ENDBRANCH   1  16
TORSDOF 6
ENDMDL
MODEL 4
REMARK VINA RESULT:      -1.6      1.352      5.891
REMARK  6 active torsions:
REMARK  status: ('A' for Active; 'I' for Inactive)
REMARK    1  A    between atoms: C_7  and  S_1 
REMARK    2  A    between atoms: N_11  and  S_1 
REMARK    3  A    between atoms: C_5  and  C_21 
REMARK    4  A    between atoms: C_22  and  N_11 
REMARK    5  A    between atoms: C_20  and  C_13 
REMARK    6  A    between atoms: C_21  and  C_22 
ROOT
ATOM      1  S   UNL d   1      58.601   0.463  32.203  0.00  0.00     0.285 S 
ATOM      2  O   UNL d   1      59.333   0.428  31.819  0.00  0.00    -0.198 OA
ATOM      3  O   UNL d   1      58.981   0.681  32.902  0.00  0.00    -0.198 OA
ENDROOT
BRANCH   1   4
ATOM      4  C   UNL d   1      57.877   0.498  32.586  0.00  0.00     0.105 A 
ATOM      5  C   UNL d   1      57.180   0.514  32.136  0.00  0.00     0.013 A 
ATOM      6  C   UNL d   1      56.448   0.550  32.529  0.00  0.00     0.001 A 
ATOM      7  C   UNL d   1      56.414   0.569  33.345  0.00  0.00     0.000 A 
ATOM      8  C   UNL d   1      57.113   0.553  33.790  0.00  0.00     0.001 A 
ATOM      9  C   UNL d   1      57.845   0.517  33.410  0.00  0.00     0.013 A 
BRANCH   7  10
ATOM     10  C   UNL d   1      55.693   0.604  33.733  0.00  0.00     0.000 A 
ATOM     11  C   UNL d   1      54.992   0.646  33.306  0.00  0.00     0.000 A 
ATOM     12  C   UNL d   1      54.272   0.681  33.707  0.00  0.00     0.000 A 
ATOM     13  C   UNL d   1      54.254   0.674  34.529  0.00  0.00     0.000 A 
ATOM     14  C   UNL d   1      54.958   0.632  34.961  0.00  0.00     0.000 A 
ATOM     15  C   UNL d   1      55.675   0.597  34.555  0.00  0.00     0.000 A 
ENDBRANCH   7  10
ENDBRANCH   1   4
BRANCH   1  16
ATOM     16  N   UNL d   1      58.226   0.244  31.502  0.00  0.00    -0.157 NA
BRANCH  16  17
ATOM     17  C   UNL d   1      58.662   0.107  30.829  0.00  0.00     0.114 C 
BRANCH  17  18
ATOM     18  C   UNL d   1      58.292  -0.175  30.140  0.00  0.00     0.042 C 
BRANCH  18  19
ATOM     19  C   UNL d   1      58.571  -0.879  29.785  0.00  0.00     0.102 A 
ATOM     20  N   UNL d   1      58.120  -1.541  29.603  0.00  0.00    -0.227 NA
ATOM     21  C   UNL d   1      58.607  -2.110  29.260  0.00  0.00     0.148 A 
ATOM     22  C   UNL d   1      58.464  -2.865  28.974  0.00  0.00     0.037 A 
ATOM     23  N   UNL d   1      59.376  -1.800  29.225  0.00  0.00    -0.288 N 
ATOM     24  C   UNL d   1      59.081  -3.317  28.652  0.00  0.00     0.005 A 
ATOM     25  C   UNL d   1      59.838  -3.012  28.618  0.00  0.00     0.019 A 
ATOM     26  C   UNL d   1      59.993  -2.253  28.903  0.00  0.00     0.082 A 
ATOM     27  C   UNL d   1      59.364  -1.037  29.548  0.00  0.00     0.101 A 
ENDBRANCH  18  19
ENDBRANCH  17  18
ENDBRANCH  16  17
ENDBRANCH   1  16
TORSDOF 6
ENDMDL
