MODEL 1
REMARK VINA RESULT:       4.1      0.000      0.000
REMARK  11 active torsions:
REMARK  status: ('A' for Active; 'I' for Inactive)
REMARK    1  A    between atoms: N_2  and  S_1 
REMARK    2  A    between atoms: C_4  and  S_1 
REMARK    3  A    between atoms: C_22  and  N_2 
REMARK    4  A    between atoms: C_3  and  C_8 
REMARK       I    between atoms: N_16  and  C_3 
REMARK    5  A    between atoms: O_28  and  C_7 
REMARK    6  A    between atoms: C_9  and  C_10 
REMARK    7  A    between atoms: O_29  and  C_11 
REMARK    8  A    between atoms: C_30  and  N_16 
REMARK    9  A    between atoms: C_24  and  C_22 
REMARK   10  A    between atoms: C_23  and  C_34 
REMARK   11  A    between atoms: C_34  and  C_30 
ROOT
ATOM      1  C   UNL d   1      58.616  -1.937  29.537  0.00  0.00     0.058 A 
ATOM      2  C   UNL d   1      59.296  -2.292  29.820  0.00  0.00     0.005 A 
ATOM      3  C   UNL d   1      58.198  -2.299  28.913  0.00  0.00     0.005 A 
ATOM      4  C   UNL d   1      59.157  -3.360  28.876  0.00  0.00     0.020 A 
ATOM      5  C   UNL d   1      59.572  -3.003  29.495  0.00  0.00     0.002 A 
ATOM      6  C   UNL d   1      58.474  -3.010  28.588  0.00  0.00     0.002 A 
ENDROOT
BRANCH   1   7
ATOM      7  C   UNL d   1      58.341  -1.234  29.857  0.00  0.00     0.279 C 
ATOM      8  O   UNL d   1      58.666  -0.514  29.606  0.00  0.00    -0.265 OA
ATOM      9  N   UNL d   1      57.746  -1.242  30.424  0.00  0.00    -0.206 NA
BRANCH   9  10
ATOM     10  C   UNL d   1      57.473  -0.532  30.743  0.00  0.00     0.102 C 
BRANCH  10  11
ATOM     11  C   UNL d   1      57.674  -0.335  31.510  0.00  0.00     0.021 C 
BRANCH  11  12
ATOM     12  C   UNL d   1      57.092  -0.274  32.074  0.00  0.00     0.004 A 
ATOM     13  C   UNL d   1      56.508  -0.851  32.143  0.00  0.00     0.026 A 
ATOM     14  C   UNL d   1      55.927  -0.781  32.713  0.00  0.00     0.116 A 
ATOM     15  C   UNL d   1      55.925  -0.125  33.226  0.00  0.00     0.116 A 
ATOM     16  C   UNL d   1      56.499   0.447  33.161  0.00  0.00     0.026 A 
ATOM     17  C   UNL d   1      57.088   0.376  32.584  0.00  0.00     0.002 A 
BRANCH  14  18
ATOM     18  O   UNL d   1      55.343  -1.363  32.779  0.00  0.00    -0.326 OA
ATOM     19  C   UNL d   1      55.421  -2.163  33.119  0.00  0.00     0.181 C 
ENDBRANCH  14  18
BRANCH  15  20
ATOM     20  O   UNL d   1      55.355  -0.040  33.797  0.00  0.00    -0.326 OA
ATOM     21  C   UNL d   1      55.245   0.675  34.164  0.00  0.00     0.181 C 
ENDBRANCH  15  20
ENDBRANCH  11  12
ENDBRANCH  10  11
ENDBRANCH   9  10
ENDBRANCH   1   7
BRANCH   4  22
ATOM     22  C   UNL d   1      59.432  -4.070  28.551  0.00  0.00     0.112 C 
BRANCH  22  23
ATOM     23  N   UNL d   1      58.940  -4.724  28.508  0.00  0.00    -0.157 NA
BRANCH  23  24
ATOM     24  S   UNL d   1      59.240  -5.491  28.585  0.00  0.00     0.285 S 
ATOM     25  O   UNL d   1      58.479  -5.795  28.561  0.00  0.00    -0.198 OA
ATOM     26  O   UNL d   1      60.005  -5.177  28.608  0.00  0.00    -0.198 OA
BRANCH  24  27
ATOM     27  C   UNL d   1      59.550  -6.246  28.661  0.00  0.00     0.105 A 
ATOM     28  C   UNL d   1      59.040  -6.893  28.636  0.00  0.00     0.013 A 
ATOM     29  C   UNL d   1      59.348  -7.664  28.714  0.00  0.00    -0.004 A 
ATOM     30  C   UNL d   1      60.165  -7.770  28.814  0.00  0.00    -0.023 A 
ATOM     31  C   UNL d   1      60.668  -7.121  28.838  0.00  0.00    -0.004 A 
ATOM     32  C   UNL d   1      60.357  -6.357  28.761  0.00  0.00     0.013 A 
BRANCH  30  33
ATOM     33  C   UNL d   1      60.472  -8.533  28.891  0.00  0.00     0.019 C 
ATOM     34  C   UNL d   1      59.830  -8.834  28.471  0.00  0.00     0.004 C 
ATOM     35  C   UNL d   1      61.110  -8.224  29.309  0.00  0.00     0.004 C 
ATOM     36  C   UNL d   1      60.777  -9.293  28.966  0.00  0.00     0.004 C 
ENDBRANCH  30  33
ENDBRANCH  24  27
ENDBRANCH  23  24
ENDBRANCH  22  23
ENDBRANCH   4  22
TORSDOF 11
ENDMDL
MODEL 2
REMARK VINA RESULT:       4.3      1.540      7.532
REMARK  11 active torsions:
REMARK  status: ('A' for Active; 'I' for Inactive)
REMARK    1  A    between atoms: N_2  and  S_1 
REMARK    2  A    between atoms: C_4  and  S_1 
REMARK    3  A    between atoms: C_22  and  N_2 
REMARK    4  A    between atoms: C_3  and  C_8 
REMARK       I    between atoms: N_16  and  C_3 
REMARK    5  A    between atoms: O_28  and  C_7 
REMARK    6  A    between atoms: C_9  and  C_10 
REMARK    7  A    between atoms: O_29  and  C_11 
REMARK    8  A    between atoms: C_30  and  N_16 
REMARK    9  A    between atoms: C_24  and  C_22 
REMARK   10  A    between atoms: C_23  and  C_34 
REMARK   11  A    between atoms: C_34  and  C_30 
ROOT
ATOM      1  C   UNL d   1      59.748  -3.485  28.894  0.00  0.00     0.058 A 
ATOM      2  C   UNL d   1      59.840  -2.800  28.457  0.00  0.00     0.005 A 
ATOM      3  C   UNL d   1      59.123  -3.534  29.445  0.00  0.00     0.005 A 
ATOM      4  C   UNL d   1      58.705  -2.210  29.101  0.00  0.00     0.020 A 
ATOM      5  C   UNL d   1      59.324  -2.160  28.555  0.00  0.00     0.002 A 
ATOM      6  C   UNL d   1      58.606  -2.894  29.543  0.00  0.00     0.002 A 
ENDROOT
BRANCH   1   7
ATOM      7  C   UNL d   1      60.257  -4.120  28.799  0.00  0.00     0.279 C 
ATOM      8  O   UNL d   1      61.073  -4.010  28.898  0.00  0.00    -0.265 OA
ATOM      9  N   UNL d   1      59.962  -4.862  28.607  0.00  0.00    -0.206 NA
BRANCH   9  10
ATOM     10  C   UNL d   1      60.480  -5.498  28.513  0.00  0.00     0.102 C 
BRANCH  10  11
ATOM     11  C   UNL d   1      60.549  -6.049  29.113  0.00  0.00     0.021 C 
BRANCH  11  12
ATOM     12  C   UNL d   1      60.429  -6.836  28.950  0.00  0.00     0.004 A 
ATOM     13  C   UNL d   1      59.667  -7.138  28.860  0.00  0.00     0.026 A 
ATOM     14  C   UNL d   1      59.556  -7.930  28.697  0.00  0.00     0.116 A 
ATOM     15  C   UNL d   1      60.214  -8.436  28.622  0.00  0.00     0.116 A 
ATOM     16  C   UNL d   1      60.967  -8.142  28.710  0.00  0.00     0.026 A 
ATOM     17  C   UNL d   1      61.079  -7.339  28.875  0.00  0.00     0.002 A 
BRANCH  14  18
ATOM     18  O   UNL d   1      58.790  -8.228  28.608  0.00  0.00    -0.326 OA
ATOM     19  C   UNL d   1      58.056  -7.780  28.457  0.00  0.00     0.181 C 
ENDBRANCH  14  18
BRANCH  15  20
ATOM     20  O   UNL d   1      60.121  -9.225  28.460  0.00  0.00    -0.326 OA
ATOM     21  C   UNL d   1      60.317  -9.784  29.015  0.00  0.00     0.181 C 
ENDBRANCH  15  20
ENDBRANCH  11  12
ENDBRANCH  10  11
ENDBRANCH   9  10
ENDBRANCH   1   7
BRANCH   4  22
ATOM     22  C   UNL d   1      58.189  -1.570  29.199  0.00  0.00     0.112 C 
BRANCH  22  23
ATOM     23  N   UNL d   1      58.381  -0.958  29.709  0.00  0.00    -0.157 NA
BRANCH  23  24
ATOM     24  S   UNL d   1      57.910  -0.787  30.368  0.00  0.00     0.285 S 
ATOM     25  O   UNL d   1      57.248  -0.738  29.886  0.00  0.00    -0.198 OA
ATOM     26  O   UNL d   1      58.583  -0.838  30.847  0.00  0.00    -0.198 OA
BRANCH  24  27
ATOM     27  C   UNL d   1      57.455  -0.618  31.029  0.00  0.00     0.105 A 
ATOM     28  C   UNL d   1      57.444   0.153  31.320  0.00  0.00     0.013 A 
ATOM     29  C   UNL d   1      56.984   0.334  31.992  0.00  0.00    -0.004 A 
ATOM     30  C   UNL d   1      56.543  -0.267  32.359  0.00  0.00    -0.023 A 
ATOM     31  C   UNL d   1      56.559  -1.033  32.063  0.00  0.00    -0.004 A 
ATOM     32  C   UNL d   1      57.017  -1.207  31.396  0.00  0.00     0.013 A 
BRANCH  30  33
ATOM     33  C   UNL d   1      56.087  -0.090  33.025  0.00  0.00     0.019 C 
ATOM     34  C   UNL d   1      56.426  -0.726  33.426  0.00  0.00     0.004 C 
ATOM     35  C   UNL d   1      55.754   0.542  32.617  0.00  0.00     0.004 C 
ATOM     36  C   UNL d   1      55.634   0.084  33.688  0.00  0.00     0.004 C 
ENDBRANCH  30  33
ENDBRANCH  24  27
ENDBRANCH  23  24
ENDBRANCH  22  23
ENDBRANCH   4  22
TORSDOF 11
ENDMDL
