MODEL 1
REMARK VINA RESULT:      41.6      0.000      0.000
REMARK  5 active torsions:
REMARK  status: ('A' for Active; 'I' for Inactive)
REMARK    1  A    between atoms: N_8  and  C_1 
REMARK    2  A    between atoms: C_11  and  C_2 
REMARK    3  A    between atoms: C_4  and  C_6 
REMARK       I    between atoms: C_6  and  N_8 
REMARK    4  A    between atoms: O_17  and  C_11 
REMARK    5  A    between atoms: C_19  and  O_17 
ROOT
ATOM      1  C   UNL d   1     -56.319 -99.113 -43.697  0.00  0.00     0.114 A 
ATOM      2  C   UNL d   1     -57.404 -99.096 -44.458  0.00  0.00     0.094 A 
ATOM      3  S   UNL d   1     -57.135 -99.209 -43.709  0.00  0.00    -0.062 SA
ATOM      4  C   UNL d   1     -56.724 -98.924 -44.919  0.00  0.00     0.013 A 
ATOM      5  C   UNL d   1     -56.092 -98.937 -44.460  0.00  0.00     0.027 A 
ATOM      6  C   UNL d   1     -56.718 -98.765 -45.729  0.00  0.00     0.001 C 
ENDROOT
BRANCH   1   7
ATOM      7  N   UNL d   1     -55.797 -99.181 -43.022  0.00  0.00    -0.201 NA
ATOM      8  C   UNL d   1     -55.217 -99.756 -43.017  0.00  0.00     0.286 C 
ATOM      9  O   UNL d   1     -54.717 -99.816 -42.361  0.00  0.00    -0.265 OA
BRANCH   8  10
ATOM     10  C   UNL d   1     -55.135-100.265 -43.659  0.00  0.00     0.088 A 
ATOM     11  S   UNL d   1     -55.293-101.063 -43.654  0.00  0.00    -0.071 SA
ATOM     12  C   UNL d   1     -55.140-101.358 -44.402  0.00  0.00     0.087 A 
ATOM     13 CL   UNL d   1     -55.234-102.131 -44.605  0.00  0.00    -0.075 Cl
ATOM     14  C   UNL d   1     -54.878-100.710 -44.878  0.00  0.00     0.019 A 
ATOM     15  C   UNL d   1     -54.879-100.054 -44.419  0.00  0.00     0.013 A 
ENDBRANCH   8  10
ENDBRANCH   1   7
BRANCH   2  16
ATOM     16  C   UNL d   1     -58.191 -99.140 -44.725  0.00  0.00     0.306 C 
ATOM     17  O   UNL d   1     -58.333 -99.042 -45.520  0.00  0.00    -0.258 OA
BRANCH  16  18
ATOM     18  O   UNL d   1     -58.810 -99.276 -44.213  0.00  0.00    -0.271 OA
BRANCH  18  19
ATOM     19  C   UNL d   1     -59.456 -98.771 -44.198  0.00  0.00     0.126 C 
ATOM     20  C   UNL d   1     -59.933 -98.757 -43.525  0.00  0.00     0.029 C 
ENDBRANCH  18  19
ENDBRANCH  16  18
ENDBRANCH   2  16
TORSDOF 5
ENDMDL
MODEL 2
REMARK VINA RESULT:      42.2      1.960      3.726
REMARK  5 active torsions:
REMARK  status: ('A' for Active; 'I' for Inactive)
REMARK    1  A    between atoms: N_8  and  C_1 
REMARK    2  A    between atoms: C_11  and  C_2 
REMARK    3  A    between atoms: C_4  and  C_6 
REMARK       I    between atoms: C_6  and  N_8 
REMARK    4  A    between atoms: O_17  and  C_11 
REMARK    5  A    between atoms: C_19  and  O_17 
ROOT
ATOM      1  C   UNL d   1     -57.526 -99.492 -43.631  0.00  0.00     0.114 A 
ATOM      2  C   UNL d   1     -56.485-100.043 -44.240  0.00  0.00     0.094 A 
ATOM      3  S   UNL d   1     -57.160-100.200 -43.833  0.00  0.00    -0.062 SA
ATOM      4  C   UNL d   1     -56.439 -99.206 -44.287  0.00  0.00     0.013 A 
ATOM      5  C   UNL d   1     -57.056 -98.894 -43.925  0.00  0.00     0.027 A 
ATOM      6  C   UNL d   1     -55.838 -98.777 -44.656  0.00  0.00     0.001 C 
ENDROOT
BRANCH   1   7
ATOM      7  N   UNL d   1     -58.256 -99.389 -43.197  0.00  0.00    -0.201 NA
ATOM      8  C   UNL d   1     -58.931 -99.156 -43.594  0.00  0.00     0.286 C 
ATOM      9  O   UNL d   1     -59.634 -99.059 -43.168  0.00  0.00    -0.265 OA
BRANCH   8  10
ATOM     10  C   UNL d   1     -58.907 -99.022 -44.405  0.00  0.00     0.088 A 
ATOM     11  S   UNL d   1     -59.548 -99.031 -44.907  0.00  0.00    -0.071 SA
ATOM     12  C   UNL d   1     -59.282 -98.871 -45.664  0.00  0.00     0.087 A 
ATOM     13 CL   UNL d   1     -59.762 -98.835 -46.309  0.00  0.00    -0.075 Cl
ATOM     14  C   UNL d   1     -58.444 -98.761 -45.617  0.00  0.00     0.019 A 
ATOM     15  C   UNL d   1     -58.228 -98.854 -44.852  0.00  0.00     0.013 A 
ENDBRANCH   8  10
ENDBRANCH   1   7
BRANCH   2  16
ATOM     16  C   UNL d   1     -55.943-100.592 -44.551  0.00  0.00     0.306 C 
ATOM     17  O   UNL d   1     -55.357-100.317 -45.044  0.00  0.00    -0.258 OA
BRANCH  16  18
ATOM     18  O   UNL d   1     -55.988-101.386 -44.374  0.00  0.00    -0.271 OA
BRANCH  18  19
ATOM     19  C   UNL d   1     -55.617-101.941 -44.850  0.00  0.00     0.126 C 
ATOM     20  C   UNL d   1     -54.947-102.327 -44.564  0.00  0.00     0.029 C 
ENDBRANCH  18  19
ENDBRANCH  16  18
ENDBRANCH   2  16
TORSDOF 5
ENDMDL
