MODEL 1
REMARK VINA RESULT:      -4.7      0.000      0.000
REMARK  1 active torsions:
REMARK  status: ('A' for Active; 'I' for Inactive)
REMARK    1  A    between atoms: C_6  and  C_1 
ROOT
ATOM      1  C   UNL d   1      56.605  -0.209  32.056  0.00  0.00     0.085 A 
ATOM      2  C   UNL d   1      56.640  -1.036  31.994  0.00  0.00     0.137 A 
ATOM      3  S   UNL d   1      56.187  -1.349  32.559  0.00  0.00    -0.066 SA
ATOM      4  C   UNL d   1      56.109  -0.031  32.686  0.00  0.00     0.013 A 
ATOM      5  C   UNL d   1      55.849  -0.741  32.999  0.00  0.00     0.031 A 
ATOM      6  N   UNL d   1      57.081  -1.474  31.427  0.00  0.00    -0.141 N 
ATOM      7  C   UNL d   1      55.857   0.681  33.020  0.00  0.00     0.001 A 
ATOM      8  C   UNL d   1      55.336  -0.740  33.646  0.00  0.00     0.006 A 
ATOM      9  C   UNL d   1      55.345   0.682  33.666  0.00  0.00     0.000 A 
ATOM     10  C   UNL d   1      55.085  -0.028  33.979  0.00  0.00     0.001 A 
ENDROOT
BRANCH   1  11
ATOM     11  C   UNL d   1      57.011   0.365  31.556  0.00  0.00     0.299 C 
ATOM     12  O   UNL d   1      56.624   0.681  30.887  0.00  0.00    -0.264 OA
ATOM     13  N   UNL d   1      57.786   0.606  31.735  0.00  0.00    -0.102 N 
ENDBRANCH   1  11
TORSDOF 1
ENDMDL
MODEL 2
REMARK VINA RESULT:      -4.3      1.208      1.519
REMARK  1 active torsions:
REMARK  status: ('A' for Active; 'I' for Inactive)
REMARK    1  A    between atoms: C_6  and  C_1 
ROOT
ATOM      1  C   UNL d   1      56.973   0.211  32.485  0.00  0.00     0.085 A 
ATOM      2  C   UNL d   1      57.602   0.533  32.920  0.00  0.00     0.137 A 
ATOM      3  S   UNL d   1      57.351   0.680  33.653  0.00  0.00    -0.066 SA
ATOM      4  C   UNL d   1      56.325   0.168  32.988  0.00  0.00     0.013 A 
ATOM      5  C   UNL d   1      56.561   0.460  33.715  0.00  0.00     0.031 A 
ATOM      6  N   UNL d   1      58.379   0.680  32.634  0.00  0.00    -0.141 N 
ATOM      7  C   UNL d   1      55.550  -0.097  32.885  0.00  0.00     0.001 A 
ATOM      8  C   UNL d   1      56.022   0.488  34.340  0.00  0.00     0.006 A 
ATOM      9  C   UNL d   1      55.012  -0.070  33.510  0.00  0.00     0.000 A 
ATOM     10  C   UNL d   1      55.247   0.223  34.236  0.00  0.00     0.001 A 
ENDROOT
BRANCH   1  11
ATOM     11  C   UNL d   1      56.987  -0.036  31.659  0.00  0.00     0.299 C 
ATOM     12  O   UNL d   1      57.007  -0.850  31.468  0.00  0.00    -0.264 OA
ATOM     13  N   UNL d   1      56.982   0.529  31.050  0.00  0.00    -0.102 N 
ENDBRANCH   1  11
TORSDOF 1
ENDMDL
MODEL 3
REMARK VINA RESULT:      -4.2      1.745      2.801
REMARK  1 active torsions:
REMARK  status: ('A' for Active; 'I' for Inactive)
REMARK    1  A    between atoms: C_6  and  C_1 
ROOT
ATOM      1  C   UNL d   1      56.490  -0.420  32.820  0.00  0.00     0.085 A 
ATOM      2  C   UNL d   1      56.660   0.195  33.352  0.00  0.00     0.137 A 
ATOM      3  S   UNL d   1      57.180   0.682  33.015  0.00  0.00    -0.066 SA
ATOM      4  C   UNL d   1      56.933  -0.285  32.142  0.00  0.00     0.013 A 
ATOM      5  C   UNL d   1      57.362   0.401  32.263  0.00  0.00     0.031 A 
ATOM      6  N   UNL d   1      56.335   0.289  34.122  0.00  0.00    -0.141 N 
ATOM      7  C   UNL d   1      57.004  -0.692  31.427  0.00  0.00     0.001 A 
ATOM      8  C   UNL d   1      57.864   0.681  31.669  0.00  0.00     0.006 A 
ATOM      9  C   UNL d   1      57.506  -0.413  30.835  0.00  0.00     0.000 A 
ATOM     10  C   UNL d   1      57.935   0.273  30.956  0.00  0.00     0.001 A 
ENDROOT
BRANCH   1  11
ATOM     11  C   UNL d   1      55.952  -1.081  32.948  0.00  0.00     0.299 C 
ATOM     12  O   UNL d   1      56.251  -1.860  32.984  0.00  0.00    -0.264 OA
ATOM     13  N   UNL d   1      55.136  -0.949  33.037  0.00  0.00    -0.102 N 
ENDBRANCH   1  11
TORSDOF 1
ENDMDL
MODEL 4
REMARK VINA RESULT:      -2.7      1.361      1.824
REMARK  1 active torsions:
REMARK  status: ('A' for Active; 'I' for Inactive)
REMARK    1  A    between atoms: C_6  and  C_1 
ROOT
ATOM      1  C   UNL d   1      57.760  -0.195  30.647  0.00  0.00     0.085 A 
ATOM      2  C   UNL d   1      57.767  -1.021  30.557  0.00  0.00     0.137 A 
ATOM      3  S   UNL d   1      57.331  -1.339  31.131  0.00  0.00    -0.066 SA
ATOM      4  C   UNL d   1      57.299  -0.025  31.305  0.00  0.00     0.013 A 
ATOM      5  C   UNL d   1      57.031  -0.737  31.606  0.00  0.00     0.031 A 
ATOM      6  N   UNL d   1      58.169  -1.451  29.956  0.00  0.00    -0.141 N 
ATOM      7  C   UNL d   1      57.084   0.682  31.674  0.00  0.00     0.001 A 
ATOM      8  C   UNL d   1      56.549  -0.744  32.277  0.00  0.00     0.006 A 
ATOM      9  C   UNL d   1      56.602   0.675  32.343  0.00  0.00     0.000 A 
ATOM     10  C   UNL d   1      56.334  -0.037  32.644  0.00  0.00     0.001 A 
ENDROOT
BRANCH   1  11
ATOM     11  C   UNL d   1      58.160   0.383  30.149  0.00  0.00     0.299 C 
ATOM     12  O   UNL d   1      57.797   0.646  29.444  0.00  0.00    -0.264 OA
ATOM     13  N   UNL d   1      58.905   0.682  30.364  0.00  0.00    -0.102 N 
ENDBRANCH   1  11
TORSDOF 1
ENDMDL
MODEL 5
REMARK VINA RESULT:      -2.7      4.343      5.335
REMARK  1 active torsions:
REMARK  status: ('A' for Active; 'I' for Inactive)
REMARK    1  A    between atoms: C_6  and  C_1 
ROOT
ATOM      1  C   UNL d   1      59.322  -1.026  29.119  0.00  0.00     0.085 A 
ATOM      2  C   UNL d   1      60.103  -0.745  29.092  0.00  0.00     0.137 A 
ATOM      3  S   UNL d   1      60.588  -1.359  29.003  0.00  0.00    -0.066 SA
ATOM      4  C   UNL d   1      59.355  -1.843  29.041  0.00  0.00     0.013 A 
ATOM      5  C   UNL d   1      60.143  -2.050  28.969  0.00  0.00     0.031 A 
ATOM      6  N   UNL d   1      60.342   0.060  29.150  0.00  0.00    -0.141 N 
ATOM      7  C   UNL d   1      58.774  -2.430  29.026  0.00  0.00     0.001 A 
ATOM      8  C   UNL d   1      60.352  -2.845  28.882  0.00  0.00     0.006 A 
ATOM      9  C   UNL d   1      58.983  -3.224  28.939  0.00  0.00     0.000 A 
ATOM     10  C   UNL d   1      59.771  -3.431  28.867  0.00  0.00     0.001 A 
ENDROOT
BRANCH   1  11
ATOM     11  C   UNL d   1      58.605  -0.557  29.210  0.00  0.00     0.299 C 
ATOM     12  O   UNL d   1      58.196  -0.286  28.534  0.00  0.00    -0.264 OA
ATOM     13  N   UNL d   1      58.317  -0.371  29.967  0.00  0.00    -0.102 N 
ENDBRANCH   1  11
TORSDOF 1
ENDMDL
MODEL 6
REMARK VINA RESULT:      -2.5      9.794     10.061
REMARK  1 active torsions:
REMARK  status: ('A' for Active; 'I' for Inactive)
REMARK    1  A    between atoms: C_6  and  C_1 
ROOT
ATOM      1  C   UNL d   1      59.705  -9.236  33.990  0.00  0.00     0.085 A 
ATOM      2  C   UNL d   1      60.514  -9.187  33.807  0.00  0.00     0.137 A 
ATOM      3  S   UNL d   1      60.607  -9.344  33.041  0.00  0.00    -0.066 SA
ATOM      4  C   UNL d   1      59.310  -9.431  33.297  0.00  0.00     0.013 A 
ATOM      5  C   UNL d   1      59.871  -9.498  32.706  0.00  0.00     0.031 A 
ATOM      6  N   UNL d   1      61.133  -9.001  34.345  0.00  0.00    -0.141 N 
ATOM      7  C   UNL d   1      58.513  -9.558  33.122  0.00  0.00     0.001 A 
ATOM      8  C   UNL d   1      59.637  -9.692  31.938  0.00  0.00     0.006 A 
ATOM      9  C   UNL d   1      58.279  -9.751  32.354  0.00  0.00     0.000 A 
ATOM     10  C   UNL d   1      58.841  -9.818  31.763  0.00  0.00     0.001 A 
ENDROOT
BRANCH   1  11
ATOM     11  C   UNL d   1      59.340  -9.109  34.761  0.00  0.00     0.299 C 
ATOM     12  O   UNL d   1      59.147  -8.334  35.006  0.00  0.00    -0.264 OA
ATOM     13  N   UNL d   1      59.178  -9.751  35.262  0.00  0.00    -0.102 N 
ENDBRANCH   1  11
TORSDOF 1
ENDMDL
MODEL 7
REMARK VINA RESULT:      -2.5      2.708      3.594
REMARK  1 active torsions:
REMARK  status: ('A' for Active; 'I' for Inactive)
REMARK    1  A    between atoms: C_6  and  C_1 
ROOT
ATOM      1  C   UNL d   1      58.616  -0.609  29.564  0.00  0.00     0.085 A 
ATOM      2  C   UNL d   1      58.873   0.144  29.324  0.00  0.00     0.137 A 
ATOM      3  S   UNL d   1      58.554   0.682  29.803  0.00  0.00    -0.066 SA
ATOM      4  C   UNL d   1      58.124  -0.503  30.213  0.00  0.00     0.013 A 
ATOM      5  C   UNL d   1      58.085   0.300  30.362  0.00  0.00     0.031 A 
ATOM      6  N   UNL d   1      59.387   0.310  28.680  0.00  0.00    -0.141 N 
ATOM      7  C   UNL d   1      57.704  -1.030  30.692  0.00  0.00     0.001 A 
ATOM      8  C   UNL d   1      57.626   0.579  30.989  0.00  0.00     0.006 A 
ATOM      9  C   UNL d   1      57.246  -0.750  31.318  0.00  0.00     0.000 A 
ATOM     10  C   UNL d   1      57.207   0.053  31.467  0.00  0.00     0.001 A 
ENDROOT
BRANCH   1  11
ATOM     11  C   UNL d   1      58.823  -1.365  29.205  0.00  0.00     0.299 C 
ATOM     12  O   UNL d   1      58.316  -1.707  28.636  0.00  0.00    -0.264 OA
ATOM     13  N   UNL d   1      59.523  -1.757  29.421  0.00  0.00    -0.102 N 
ENDBRANCH   1  11
TORSDOF 1
ENDMDL
MODEL 8
REMARK VINA RESULT:      -2.2      5.269      5.851
REMARK  1 active torsions:
REMARK  status: ('A' for Active; 'I' for Inactive)
REMARK    1  A    between atoms: C_6  and  C_1 
ROOT
ATOM      1  C   UNL d   1      60.081  -2.877  29.020  0.00  0.00     0.085 A 
ATOM      2  C   UNL d   1      59.283  -3.050  28.869  0.00  0.00     0.137 A 
ATOM      3  S   UNL d   1      58.884  -2.373  28.819  0.00  0.00    -0.066 SA
ATOM      4  C   UNL d   1      60.149  -2.059  29.060  0.00  0.00     0.013 A 
ATOM      5  C   UNL d   1      59.404  -1.745  28.935  0.00  0.00     0.031 A 
ATOM      6  N   UNL d   1      58.950  -3.818  28.782  0.00  0.00    -0.141 N 
ATOM      7  C   UNL d   1      60.789  -1.554  29.194  0.00  0.00     0.001 A 
ATOM      8  C   UNL d   1      59.297  -0.927  28.943  0.00  0.00     0.006 A 
ATOM      9  C   UNL d   1      60.682  -0.736  29.202  0.00  0.00     0.000 A 
ATOM     10  C   UNL d   1      59.937  -0.423  29.077  0.00  0.00     0.001 A 
ENDROOT
BRANCH   1  11
ATOM     11  C   UNL d   1      60.724  -3.442  29.118  0.00  0.00     0.299 C 
ATOM     12  O   UNL d   1      60.950  -3.686  29.884  0.00  0.00    -0.264 OA
ATOM     13  N   UNL d   1      61.122  -3.747  28.455  0.00  0.00    -0.102 N 
ENDBRANCH   1  11
TORSDOF 1
ENDMDL
MODEL 9
REMARK VINA RESULT:      -1.9      3.561      4.905
REMARK  1 active torsions:
REMARK  status: ('A' for Active; 'I' for Inactive)
REMARK    1  A    between atoms: C_6  and  C_1 
ROOT
ATOM      1  C   UNL d   1      58.806  -0.282  29.595  0.00  0.00     0.085 A 
ATOM      2  C   UNL d   1      58.752  -1.111  29.578  0.00  0.00     0.137 A 
ATOM      3  S   UNL d   1      59.393  -1.396  29.219  0.00  0.00    -0.066 SA
ATOM      4  C   UNL d   1      59.512  -0.076  29.230  0.00  0.00     0.013 A 
ATOM      5  C   UNL d   1      59.877  -0.769  28.995  0.00  0.00     0.031 A 
ATOM      6  N   UNL d   1      58.122  -1.574  29.888  0.00  0.00    -0.141 N 
ATOM      7  C   UNL d   1      59.874   0.651  29.077  0.00  0.00     0.001 A 
ATOM      8  C   UNL d   1      60.606  -0.737  28.608  0.00  0.00     0.006 A 
ATOM      9  C   UNL d   1      60.601   0.682  28.689  0.00  0.00     0.000 A 
ATOM     10  C   UNL d   1      60.967  -0.011  28.455  0.00  0.00     0.001 A 
ENDROOT
BRANCH   1  11
ATOM     11  C   UNL d   1      58.233   0.266  29.933  0.00  0.00     0.299 C 
ATOM     12  O   UNL d   1      57.634   0.591  29.449  0.00  0.00    -0.264 OA
ATOM     13  N   UNL d   1      58.271   0.475  30.736  0.00  0.00    -0.102 N 
ENDBRANCH   1  11
TORSDOF 1
ENDMDL
