MODEL 1
REMARK VINA RESULT:      31.3      0.000      0.000
REMARK  4 active torsions:
REMARK  status: ('A' for Active; 'I' for Inactive)
REMARK    1  A    between atoms: C_2  and  S_1 
REMARK    2  A    between atoms: N_4  and  S_1 
REMARK    3  A    between atoms: O_12  and  C_5 
REMARK    4  A    between atoms: O_13  and  C_7 
ROOT
ATOM      1  C   UNL d   1      14.350  13.367  -2.125  0.00  0.00     0.128 A 
ATOM      2  C   UNL d   1      14.439  12.804  -1.528  0.00  0.00     0.040 A 
ATOM      3  C   UNL d   1      14.635  14.131  -2.020  0.00  0.00     0.107 A 
ATOM      4  C   UNL d   1      15.011  14.336  -1.317  0.00  0.00     0.034 A 
ATOM      5  C   UNL d   1      14.814  13.010  -0.825  0.00  0.00     0.101 A 
ATOM      6  C   UNL d   1      15.103  13.779  -0.715  0.00  0.00     0.059 A 
ATOM      7 BR   UNL d   1      15.478  13.983  -0.014  0.00  0.00    -0.047 Br
ENDROOT
BRANCH   1   8
ATOM      8  S   UNL d   1      13.972  13.161  -2.832  0.00  0.00     0.273 S 
ATOM      9  O   UNL d   1      14.225  12.382  -2.740  0.00  0.00    -0.200 OA
ATOM     10  O   UNL d   1      13.718  13.943  -2.925  0.00  0.00    -0.200 OA
BRANCH   8  11
ATOM     11  N   UNL d   1      13.596  12.955  -3.536  0.00  0.00    -0.229 N 
ATOM     12  C   UNL d   1      13.437  13.576  -4.053  0.00  0.00     0.092 A 
ATOM     13  C   UNL d   1      13.071  13.554  -4.792  0.00  0.00     0.020 A 
ATOM     14  C   UNL d   1      12.772  12.904  -5.203  0.00  0.00     0.002 A 
ATOM     15  C   UNL d   1      12.769  12.112  -4.966  0.00  0.00     0.002 A 
ATOM     16  C   UNL d   1      13.058  11.779  -4.272  0.00  0.00     0.020 A 
ATOM     17  C   UNL d   1      13.428  12.147  -3.632  0.00  0.00     0.092 A 
ENDBRANCH   8  11
ENDBRANCH   1   8
BRANCH   3  18
ATOM     18  O   UNL d   1      14.545  14.686  -2.614  0.00  0.00    -0.327 OA
ATOM     19  C   UNL d   1      14.659  15.487  -2.453  0.00  0.00     0.181 C 
ENDBRANCH   3  18
BRANCH   5  20
ATOM     20  O   UNL d   1      14.904  12.454  -0.231  0.00  0.00    -0.328 OA
ATOM     21  C   UNL d   1      14.301  11.925  -0.069  0.00  0.00     0.181 C 
ENDBRANCH   5  20
TORSDOF 4
ENDMDL
MODEL 2
REMARK VINA RESULT:      32.1      1.686      3.872
REMARK  4 active torsions:
REMARK  status: ('A' for Active; 'I' for Inactive)
REMARK    1  A    between atoms: C_2  and  S_1 
REMARK    2  A    between atoms: N_4  and  S_1 
REMARK    3  A    between atoms: O_12  and  C_5 
REMARK    4  A    between atoms: O_13  and  C_7 
ROOT
ATOM      1  C   UNL d   1      13.960  12.965  -2.603  0.00  0.00     0.128 A 
ATOM      2  C   UNL d   1      13.869  13.346  -3.329  0.00  0.00     0.040 A 
ATOM      3  C   UNL d   1      13.657  12.209  -2.491  0.00  0.00     0.107 A 
ATOM      4  C   UNL d   1      13.262  11.830  -3.105  0.00  0.00     0.034 A 
ATOM      5  C   UNL d   1      13.475  12.966  -3.944  0.00  0.00     0.101 A 
ATOM      6  C   UNL d   1      13.167  12.204  -3.835  0.00  0.00     0.059 A 
ATOM      7 BR   UNL d   1      12.774  11.826  -4.447  0.00  0.00    -0.047 Br
ENDROOT
BRANCH   1   8
ATOM      8  S   UNL d   1      14.357  13.347  -1.985  0.00  0.00     0.273 S 
ATOM      9  O   UNL d   1      14.802  12.666  -1.851  0.00  0.00    -0.200 OA
ATOM     10  O   UNL d   1      13.909  14.030  -2.119  0.00  0.00    -0.200 OA
BRANCH   8  11
ATOM     11  N   UNL d   1      14.752  13.726  -1.370  0.00  0.00    -0.229 N 
ATOM     12  C   UNL d   1      14.419  14.433  -1.109  0.00  0.00     0.092 A 
ATOM     13  C   UNL d   1      14.677  14.939  -0.512  0.00  0.00     0.020 A 
ATOM     14  C   UNL d   1      15.337  14.867  -0.021  0.00  0.00     0.002 A 
ATOM     15  C   UNL d   1      15.900  14.262  -0.014  0.00  0.00     0.002 A 
ATOM     16  C   UNL d   1      15.943  13.591  -0.488  0.00  0.00     0.020 A 
ATOM     17  C   UNL d   1      15.437  13.346  -1.092  0.00  0.00     0.092 A 
ENDBRANCH   8  11
ENDBRANCH   1   8
BRANCH   3  18
ATOM     18  O   UNL d   1      13.748  11.835  -1.769  0.00  0.00    -0.327 OA
ATOM     19  C   UNL d   1      13.113  11.786  -1.245  0.00  0.00     0.181 C 
ENDBRANCH   3  18
BRANCH   5  20
ATOM     20  O   UNL d   1      13.383  13.341  -4.665  0.00  0.00    -0.328 OA
ATOM     21  C   UNL d   1      13.247  14.148  -4.695  0.00  0.00     0.181 C 
ENDBRANCH   5  20
TORSDOF 4
ENDMDL
