MODEL 1
REMARK VINA RESULT:      -3.0      0.000      0.000
REMARK  4 active torsions:
REMARK  status: ('A' for Active; 'I' for Inactive)
REMARK    1  A    between atoms: S_10  and  C_6 
REMARK    2  A    between atoms: C_16  and  S_10 
REMARK    3  A    between atoms: C_11  and  C_16 
REMARK       I    between atoms: N_13  and  C_11 
REMARK    4  A    between atoms: C_14  and  N_13 
ROOT
ATOM      1  C   UNL d   1      33.086  22.787 -22.338  0.00  0.00     0.155 A 
ATOM      2  C   UNL d   1      33.086  22.119 -21.848  0.00  0.00     0.107 A 
ATOM      3  N   UNL d   1      33.189  21.941 -23.487  0.00  0.00    -0.250 N 
ATOM      4  C   UNL d   1      33.137  22.699 -23.154  0.00  0.00     0.285 A 
ATOM      5  N   UNL d   1      33.138  21.360 -22.183  0.00  0.00    -0.220 NA
ATOM      6  C   UNL d   1      33.189  21.282 -23.000  0.00  0.00     0.182 A 
ATOM      7  N   UNL d   1      33.030  23.457 -21.860  0.00  0.00    -0.239 NA
ATOM      8  C   UNL d   1      33.030  22.369 -21.066  0.00  0.00     0.037 A 
ATOM      9  C   UNL d   1      32.995  23.203 -21.070  0.00  0.00     0.083 A 
ATOM     10  O   UNL d   1      33.138  23.365 -23.652  0.00  0.00    -0.265 OA
ATOM     11  C   UNL d   1      33.241  21.851 -24.311  0.00  0.00     0.104 C 
ATOM     12  C   UNL d   1      33.006  21.961 -20.351  0.00  0.00     0.003 A 
ATOM     13  C   UNL d   1      32.935  23.621 -20.355  0.00  0.00     0.019 A 
ATOM     14  C   UNL d   1      32.946  22.378 -19.637  0.00  0.00     0.000 A 
ATOM     15  C   UNL d   1      32.911  23.201 -19.642  0.00  0.00     0.002 A 
ENDROOT
BRANCH   6  16
ATOM     16  S   UNL d   1      33.240  20.527 -23.336  0.00  0.00    -0.044 SA
BRANCH  16  17
ATOM     17  C   UNL d   1      33.059  19.858 -22.887  0.00  0.00     0.101 C 
BRANCH  17  18
ATOM     18  C   UNL d   1      32.978  19.124 -23.253  0.00  0.00     0.286 C 
ATOM     19  N   UNL d   1      32.633  18.505 -22.840  0.00  0.00    -0.208 NA
ATOM     20  O   UNL d   1      33.236  19.004 -24.022  0.00  0.00    -0.265 OA
BRANCH  19  21
ATOM     21  C   UNL d   1      32.549  17.763 -23.204  0.00  0.00     0.085 A 
ATOM     22  C   UNL d   1      31.814  17.521 -23.461  0.00  0.00     0.019 A 
ATOM     23  C   UNL d   1      31.728  16.780 -23.824  0.00  0.00     0.002 A 
ATOM     24  C   UNL d   1      30.976  16.519 -24.093  0.00  0.00     0.000 C 
ATOM     25  C   UNL d   1      32.383  16.294 -23.925  0.00  0.00     0.000 A 
ATOM     26  C   UNL d   1      33.130  16.543 -23.662  0.00  0.00     0.002 A 
ATOM     27  C   UNL d   1      33.204  17.277 -23.304  0.00  0.00     0.019 A 
ENDBRANCH  19  21
ENDBRANCH  17  18
ENDBRANCH  16  17
ENDBRANCH   6  16
TORSDOF 4
ENDMDL
MODEL 2
REMARK VINA RESULT:      -1.9      0.792      1.145
REMARK  4 active torsions:
REMARK  status: ('A' for Active; 'I' for Inactive)
REMARK    1  A    between atoms: S_10  and  C_6 
REMARK    2  A    between atoms: C_16  and  S_10 
REMARK    3  A    between atoms: C_11  and  C_16 
REMARK       I    between atoms: N_13  and  C_11 
REMARK    4  A    between atoms: C_14  and  N_13 
ROOT
ATOM      1  C   UNL d   1      32.674  22.945 -21.266  0.00  0.00     0.155 A 
ATOM      2  C   UNL d   1      32.897  22.256 -20.863  0.00  0.00     0.107 A 
ATOM      3  N   UNL d   1      32.831  22.262 -22.513  0.00  0.00    -0.250 N 
ATOM      4  C   UNL d   1      32.642  22.948 -22.087  0.00  0.00     0.285 A 
ATOM      5  N   UNL d   1      33.086  21.569 -21.289  0.00  0.00    -0.220 NA
ATOM      6  C   UNL d   1      33.050  21.582 -22.111  0.00  0.00     0.182 A 
ATOM      7  N   UNL d   1      32.520  23.532 -20.707  0.00  0.00    -0.239 NA
ATOM      8  C   UNL d   1      32.881  22.411 -20.054  0.00  0.00     0.037 A 
ATOM      9  C   UNL d   1      32.647  23.205 -19.954  0.00  0.00     0.083 A 
ATOM     10  O   UNL d   1      32.419  23.636 -22.499  0.00  0.00    -0.265 OA
ATOM     11  C   UNL d   1      32.798  22.264 -23.343  0.00  0.00     0.104 C 
ATOM     12  C   UNL d   1      33.046  21.946 -19.395  0.00  0.00     0.003 A 
ATOM     13  C   UNL d   1      32.580  23.527 -19.192  0.00  0.00     0.019 A 
ATOM     14  C   UNL d   1      32.980  22.266 -18.634  0.00  0.00     0.000 A 
ATOM     15  C   UNL d   1      32.748  23.052 -18.535  0.00  0.00     0.002 A 
ENDROOT
BRANCH   6  16
ATOM     16  S   UNL d   1      33.239  20.898 -22.539  0.00  0.00    -0.044 SA
BRANCH  16  17
ATOM     17  C   UNL d   1      32.961  20.161 -22.290  0.00  0.00     0.101 C 
BRANCH  17  18
ATOM     18  C   UNL d   1      32.914  19.536 -22.825  0.00  0.00     0.286 C 
ATOM     19  N   UNL d   1      32.536  18.844 -22.601  0.00  0.00    -0.208 NA
ATOM     20  O   UNL d   1      33.239  19.596 -23.576  0.00  0.00    -0.265 OA
BRANCH  19  21
ATOM     21  C   UNL d   1      32.485  18.210 -23.136  0.00  0.00     0.085 A 
ATOM     22  C   UNL d   1      32.839  17.499 -22.952  0.00  0.00     0.019 A 
ATOM     23  C   UNL d   1      32.789  16.865 -23.486  0.00  0.00     0.002 A 
ATOM     24  C   UNL d   1      33.149  16.127 -23.309  0.00  0.00     0.000 C 
ATOM     25  C   UNL d   1      32.384  16.956 -24.195  0.00  0.00     0.000 A 
ATOM     26  C   UNL d   1      32.025  17.681 -24.378  0.00  0.00     0.002 A 
ATOM     27  C   UNL d   1      32.080  18.302 -23.845  0.00  0.00     0.019 A 
ENDBRANCH  19  21
ENDBRANCH  17  18
ENDBRANCH  16  17
ENDBRANCH   6  16
TORSDOF 4
ENDMDL
MODEL 3
REMARK VINA RESULT:      -1.9      1.748      5.966
REMARK  4 active torsions:
REMARK  status: ('A' for Active; 'I' for Inactive)
REMARK    1  A    between atoms: S_10  and  C_6 
REMARK    2  A    between atoms: C_16  and  S_10 
REMARK    3  A    between atoms: C_11  and  C_16 
REMARK       I    between atoms: N_13  and  C_11 
REMARK    4  A    between atoms: C_14  and  N_13 
ROOT
ATOM      1  C   UNL d   1      31.112  16.296 -24.612  0.00  0.00     0.155 A 
ATOM      2  C   UNL d   1      30.785  16.979 -24.276  0.00  0.00     0.107 A 
ATOM      3  N   UNL d   1      32.417  16.868 -24.497  0.00  0.00    -0.250 N 
ATOM      4  C   UNL d   1      31.924  16.241 -24.722  0.00  0.00     0.285 A 
ATOM      5  N   UNL d   1      31.279  17.607 -24.050  0.00  0.00    -0.220 NA
ATOM      6  C   UNL d   1      32.091  17.543 -24.164  0.00  0.00     0.182 A 
ATOM      7  N   UNL d   1      30.498  15.771 -24.779  0.00  0.00    -0.239 NA
ATOM      8  C   UNL d   1      29.967  16.882 -24.233  0.00  0.00     0.037 A 
ATOM      9  C   UNL d   1      29.786  16.130 -24.546  0.00  0.00     0.083 A 
ATOM     10  O   UNL d   1      32.261  15.558 -25.060  0.00  0.00    -0.265 OA
ATOM     11  C   UNL d   1      33.239  16.814 -24.608  0.00  0.00     0.104 C 
ATOM     12  C   UNL d   1      29.364  17.367 -23.954  0.00  0.00     0.003 A 
ATOM     13  C   UNL d   1      28.998  15.872 -24.577  0.00  0.00     0.019 A 
ATOM     14  C   UNL d   1      28.577  17.110 -23.985  0.00  0.00     0.000 A 
ATOM     15  C   UNL d   1      28.398  16.367 -24.295  0.00  0.00     0.002 A 
ENDROOT
BRANCH   6  16
ATOM     16  S   UNL d   1      32.585  18.168 -23.940  0.00  0.00    -0.044 SA
BRANCH  16  17
ATOM     17  C   UNL d   1      32.687  18.354 -23.142  0.00  0.00     0.101 C 
BRANCH  17  18
ATOM     18  C   UNL d   1      32.848  19.130 -22.916  0.00  0.00     0.286 C 
ATOM     19  N   UNL d   1      32.761  19.345 -22.129  0.00  0.00    -0.208 NA
ATOM     20  O   UNL d   1      33.093  19.688 -23.464  0.00  0.00    -0.265 OA
BRANCH  19  21
ATOM     21  C   UNL d   1      32.922  20.126 -21.895  0.00  0.00     0.085 A 
ATOM     22  C   UNL d   1      32.998  20.302 -21.103  0.00  0.00     0.019 A 
ATOM     23  C   UNL d   1      33.159  21.082 -20.869  0.00  0.00     0.002 A 
ATOM     24  C   UNL d   1      33.241  21.276 -20.055  0.00  0.00     0.000 C 
ATOM     25  C   UNL d   1      33.241  21.672 -21.434  0.00  0.00     0.000 A 
ATOM     26  C   UNL d   1      33.162  21.490 -22.240  0.00  0.00     0.002 A 
ATOM     27  C   UNL d   1      33.003  20.716 -22.462  0.00  0.00     0.019 A 
ENDBRANCH  19  21
ENDBRANCH  17  18
ENDBRANCH  16  17
ENDBRANCH   6  16
TORSDOF 4
ENDMDL
