MODEL 1
REMARK VINA RESULT:      39.5      0.000      0.000
REMARK  7 active torsions:
REMARK  status: ('A' for Active; 'I' for Inactive)
REMARK    1  A    between atoms: C_4  and  N_1 
REMARK    2  A    between atoms: O_2  and  C_10 
REMARK    3  A    between atoms: C_3  and  O_2 
REMARK    4  A    between atoms: C_9  and  C_4 
REMARK    5  A    between atoms: C_12  and  C_6 
REMARK    6  A    between atoms: C_7  and  C_12 
REMARK    7  A    between atoms: C_10  and  C_9 
ROOT
ATOM      1  O   UNL d   1     -51.058  25.753  33.309  0.00  0.00    -0.302 OA
ENDROOT
BRANCH   1   2
ATOM      2  C   UNL d   1     -50.465  26.244  33.609  0.00  0.00     0.166 C 
BRANCH   2   3
ATOM      3  C   UNL d   1     -50.637  27.004  33.860  0.00  0.00     0.238 C 
ATOM      4  O   UNL d   1     -51.172  27.133  34.455  0.00  0.00    -0.283 OA
BRANCH   3   5
ATOM      5  C   UNL d   1     -50.256  27.639  33.495  0.00  0.00     0.125 C 
BRANCH   5   6
ATOM      6  N   UNL d   1     -49.687  28.059  33.890  0.00  0.00    -0.296 N 
ATOM      7  C   UNL d   1     -49.611  28.872  33.775  0.00  0.00     0.107 A 
ATOM      8  C   UNL d   1     -49.031  29.300  34.178  0.00  0.00     0.142 A 
ATOM      9  O   UNL d   1     -48.528  28.913  34.693  0.00  0.00    -0.300 OA
ATOM     10  C   UNL d   1     -48.596  28.116  34.811  0.00  0.00     0.142 A 
ATOM     11  C   UNL d   1     -49.177  27.688  34.408  0.00  0.00     0.107 A 
ENDBRANCH   5   6
ENDBRANCH   3   5
ENDBRANCH   2   3
ENDBRANCH   1   2
BRANCH   1  12
ATOM     12  C   UNL d   1     -50.955  24.928  33.310  0.00  0.00     0.100 A 
ATOM     13  C   UNL d   1     -51.619  24.426  33.313  0.00  0.00     0.023 A 
ATOM     14  C   UNL d   1     -51.521  23.613  33.314  0.00  0.00     0.002 A 
ATOM     15  C   UNL d   1     -50.763  23.295  33.311  0.00  0.00     0.000 A 
ATOM     16  C   UNL d   1     -50.100  23.797  33.308  0.00  0.00     0.002 A 
ATOM     17  C   UNL d   1     -50.212  24.604  33.307  0.00  0.00     0.025 A 
BRANCH  13  18
ATOM     18  C   UNL d   1     -52.393  24.743  33.315  0.00  0.00     0.002 C 
BRANCH  18  19
ATOM     19  C   UNL d   1     -53.009  24.353  33.715  0.00  0.00     0.000 C 
ATOM     20  C   UNL d   1     -53.490  23.848  33.306  0.00  0.00     0.000 C 
ENDBRANCH  18  19
ENDBRANCH  13  18
ENDBRANCH   1  12
TORSDOF 7
ENDMDL
