MODEL 1
REMARK VINA RESULT:      -8.6      0.000      0.000
REMARK  3 active torsions:
REMARK  status: ('A' for Active; 'I' for Inactive)
REMARK    1  A    between atoms: N_3  and  C_1 
REMARK    2  A    between atoms: C_5  and  C_2 
REMARK       I    between atoms: C_4  and  N_3 
REMARK    3  A    between atoms: C_10  and  C_4 
ROOT
ATOM      1  N   UNL d   1      52.828  33.520  53.778  0.00  0.00    -0.201 NA
ATOM      2  C   UNL d   1      52.419  34.221  53.627  0.00  0.00     0.280 C 
ATOM      3  O   UNL d   1      52.653  34.924  53.987  0.00  0.00    -0.265 OA
ENDROOT
BRANCH   1   4
ATOM      4  C   UNL d   1      53.473  33.526  54.291  0.00  0.00     0.119 A 
ATOM      5  C   UNL d   1      54.033  32.922  54.375  0.00  0.00     0.084 A 
ATOM      6  C   UNL d   1      54.585  33.162  54.952  0.00  0.00     0.014 A 
ATOM      7  C   UNL d   1      54.359  33.911  55.218  0.00  0.00     0.037 A 
ATOM      8  S   UNL d   1      53.676  34.131  54.809  0.00  0.00    -0.067 SA
BRANCH   5   9
ATOM      9  C   UNL d   1      54.049  32.207  53.963  0.00  0.00     0.299 C 
ATOM     10  O   UNL d   1      54.488  32.148  53.260  0.00  0.00    -0.264 OA
ATOM     11  N   UNL d   1      53.632  31.552  54.248  0.00  0.00    -0.102 N 
ENDBRANCH   5   9
ENDBRANCH   1   4
BRANCH   2  12
ATOM     12  C   UNL d   1      51.776  34.211  53.115  0.00  0.00     0.058 A 
ATOM     13  C   UNL d   1      51.900  34.299  52.305  0.00  0.00     0.005 A 
ATOM     14  C   UNL d   1      51.247  34.287  51.794  0.00  0.00     0.000 A 
ATOM     15  C   UNL d   1      50.486  34.190  52.091  0.00  0.00     0.000 A 
ATOM     16  C   UNL d   1      50.373  34.102  52.903  0.00  0.00     0.000 A 
ATOM     17  C   UNL d   1      51.018  34.113  53.419  0.00  0.00     0.005 A 
ENDBRANCH   2  12
TORSDOF 3
ENDMDL
MODEL 2
REMARK VINA RESULT:      -8.3      1.575      3.337
REMARK  3 active torsions:
REMARK  status: ('A' for Active; 'I' for Inactive)
REMARK    1  A    between atoms: N_3  and  C_1 
REMARK    2  A    between atoms: C_5  and  C_2 
REMARK       I    between atoms: C_4  and  N_3 
REMARK    3  A    between atoms: C_10  and  C_4 
ROOT
ATOM      1  N   UNL d   1      52.614  32.725  53.473  0.00  0.00    -0.201 NA
ATOM      2  C   UNL d   1      53.293  32.258  53.533  0.00  0.00     0.280 C 
ATOM      3  O   UNL d   1      54.026  32.608  53.667  0.00  0.00    -0.265 OA
ENDROOT
BRANCH   1   4
ATOM      4  C   UNL d   1      52.674  33.544  53.548  0.00  0.00     0.119 A 
ATOM      5  C   UNL d   1      52.106  34.097  53.306  0.00  0.00     0.084 A 
ATOM      6  C   UNL d   1      52.396  34.858  53.489  0.00  0.00     0.014 A 
ATOM      7  C   UNL d   1      53.138  34.765  53.841  0.00  0.00     0.037 A 
ATOM      8  S   UNL d   1      53.304  33.957  53.875  0.00  0.00    -0.067 SA
BRANCH   5   9
ATOM      9  C   UNL d   1      51.382  33.932  52.948  0.00  0.00     0.299 C 
ATOM     10  O   UNL d   1      50.758  33.630  53.406  0.00  0.00    -0.264 OA
ATOM     11  N   UNL d   1      51.276  34.066  52.139  0.00  0.00    -0.102 N 
ENDBRANCH   5   9
ENDBRANCH   1   4
BRANCH   2  12
ATOM     12  C   UNL d   1      53.229  31.442  53.457  0.00  0.00     0.058 A 
ATOM     13  C   UNL d   1      52.940  31.120  52.756  0.00  0.00     0.005 A 
ATOM     14  C   UNL d   1      52.878  30.296  52.686  0.00  0.00     0.000 A 
ATOM     15  C   UNL d   1      53.102  29.807  53.308  0.00  0.00     0.000 A 
ATOM     16  C   UNL d   1      53.389  30.139  54.005  0.00  0.00     0.000 A 
ATOM     17  C   UNL d   1      53.454  30.959  54.083  0.00  0.00     0.005 A 
ENDBRANCH   2  12
TORSDOF 3
ENDMDL
MODEL 3
REMARK VINA RESULT:      -7.9      2.456      3.637
REMARK  3 active torsions:
REMARK  status: ('A' for Active; 'I' for Inactive)
REMARK    1  A    between atoms: N_3  and  C_1 
REMARK    2  A    between atoms: C_5  and  C_2 
REMARK       I    between atoms: C_4  and  N_3 
REMARK    3  A    between atoms: C_10  and  C_4 
ROOT
ATOM      1  N   UNL d   1      53.717  31.562  53.937  0.00  0.00    -0.201 NA
ATOM      2  C   UNL d   1      53.670  32.386  53.900  0.00  0.00     0.280 C 
ATOM      3  O   UNL d   1      53.113  32.748  53.413  0.00  0.00    -0.265 OA
ENDROOT
BRANCH   1   4
ATOM      4  C   UNL d   1      53.203  31.103  53.483  0.00  0.00     0.119 A 
ATOM      5  C   UNL d   1      53.159  30.276  53.486  0.00  0.00     0.084 A 
ATOM      6  C   UNL d   1      52.566  30.049  52.946  0.00  0.00     0.014 A 
ATOM      7  C   UNL d   1      52.250  30.738  52.616  0.00  0.00     0.037 A 
ATOM      8  S   UNL d   1      52.645  31.383  52.949  0.00  0.00    -0.067 SA
BRANCH   5   9
ATOM      9  C   UNL d   1      53.618  29.762  53.939  0.00  0.00     0.299 C 
ATOM     10  O   UNL d   1      54.399  29.598  53.709  0.00  0.00    -0.264 OA
ATOM     11  N   UNL d   1      53.303  29.411  54.619  0.00  0.00    -0.102 N 
ENDBRANCH   5   9
ENDBRANCH   1   4
BRANCH   2  12
ATOM     12  C   UNL d   1      54.184  32.839  54.354  0.00  0.00     0.058 A 
ATOM     13  C   UNL d   1      54.035  32.940  55.157  0.00  0.00     0.005 A 
ATOM     14  C   UNL d   1      54.557  33.399  55.610  0.00  0.00     0.000 A 
ATOM     15  C   UNL d   1      55.215  33.749  55.260  0.00  0.00     0.000 A 
ATOM     16  C   UNL d   1      55.355  33.642  54.455  0.00  0.00     0.000 A 
ATOM     17  C   UNL d   1      54.839  33.186  53.997  0.00  0.00     0.005 A 
ENDBRANCH   2  12
TORSDOF 3
ENDMDL
MODEL 4
REMARK VINA RESULT:      -7.4      1.652      3.665
REMARK  3 active torsions:
REMARK  status: ('A' for Active; 'I' for Inactive)
REMARK    1  A    between atoms: N_3  and  C_1 
REMARK    2  A    between atoms: C_5  and  C_2 
REMARK       I    between atoms: C_4  and  N_3 
REMARK    3  A    between atoms: C_10  and  C_4 
ROOT
ATOM      1  N   UNL d   1      53.419  32.638  53.690  0.00  0.00    -0.201 NA
ATOM      2  C   UNL d   1      53.994  32.396  54.230  0.00  0.00     0.280 C 
ATOM      3  O   UNL d   1      54.091  31.596  54.403  0.00  0.00    -0.265 OA
ENDROOT
BRANCH   1   4
ATOM      4  C   UNL d   1      52.940  32.075  53.323  0.00  0.00     0.119 A 
ATOM      5  C   UNL d   1      52.221  32.224  52.941  0.00  0.00     0.084 A 
ATOM      6  C   UNL d   1      51.929  31.498  52.653  0.00  0.00     0.014 A 
ATOM      7  C   UNL d   1      52.471  30.910  52.860  0.00  0.00     0.037 A 
ATOM      8  S   UNL d   1      53.090  31.269  53.272  0.00  0.00    -0.067 SA
BRANCH   5   9
ATOM      9  C   UNL d   1      51.852  32.957  52.856  0.00  0.00     0.299 C 
ATOM     10  O   UNL d   1      52.088  33.466  52.244  0.00  0.00    -0.264 OA
ATOM     11  N   UNL d   1      51.251  33.185  53.377  0.00  0.00    -0.102 N 
ENDBRANCH   5   9
ENDBRANCH   1   4
BRANCH   2  12
ATOM     12  C   UNL d   1      54.469  32.960  54.593  0.00  0.00     0.058 A 
ATOM     13  C   UNL d   1      55.068  33.326  54.161  0.00  0.00     0.005 A 
ATOM     14  C   UNL d   1      55.544  33.894  54.534  0.00  0.00     0.000 A 
ATOM     15  C   UNL d   1      55.420  34.090  55.323  0.00  0.00     0.000 A 
ATOM     16  C   UNL d   1      54.818  33.718  55.746  0.00  0.00     0.000 A 
ATOM     17  C   UNL d   1      54.339  33.150  55.382  0.00  0.00     0.005 A 
ENDBRANCH   2  12
TORSDOF 3
ENDMDL
