MODEL 1
REMARK VINA RESULT:      -8.7      0.000      0.000
REMARK  4 active torsions:
REMARK  status: ('A' for Active; 'I' for Inactive)
REMARK    1  A    between atoms: C_2  and  N_1 
REMARK    2  A    between atoms: C_9  and  C_10 
REMARK       I    between atoms: N_11  and  C_9 
REMARK    3  A    between atoms: C_21  and  N_11 
REMARK    4  A    between atoms: C_20  and  C_21 
ROOT
ATOM      1  C   UNL d   1      52.995  32.922  53.065  0.00  0.00     0.279 C 
ATOM      2  N   UNL d   1      52.215  33.170  52.992  0.00  0.00    -0.206 NA
ATOM      3  O   UNL d   1      53.611  33.437  52.882  0.00  0.00    -0.265 OA
ENDROOT
BRANCH   1   4
ATOM      4  C   UNL d   1      53.164  32.153  53.324  0.00  0.00     0.059 A 
ATOM      5  C   UNL d   1      52.817  31.508  52.932  0.00  0.00     0.028 A 
ATOM      6  C   UNL d   1      52.993  30.746  53.199  0.00  0.00     0.127 A 
ATOM      7  C   UNL d   1      53.506  30.628  53.845  0.00  0.00     0.022 A 
ATOM      8  C   UNL d   1      53.842  31.278  54.223  0.00  0.00     0.002 A 
ATOM      9  C   UNL d   1      53.679  29.872  54.107  0.00  0.00     0.002 C 
ATOM     10  C   UNL d   1      53.674  32.044  53.966  0.00  0.00     0.005 A 
BRANCH   6  11
ATOM     11  N   UNL d   1      52.656  30.092  52.819  0.00  0.00    -0.114 N 
ATOM     12  O   UNL d   1      52.087  29.636  53.203  0.00  0.00    -0.532 OA
ATOM     13  O   UNL d   1      52.884  29.889  52.053  0.00  0.00    -0.532 OA
ENDBRANCH   6  11
ENDBRANCH   1   4
BRANCH   2  14
ATOM     14  C   UNL d   1      52.045  33.928  52.737  0.00  0.00     0.102 C 
BRANCH  14  15
ATOM     15  C   UNL d   1      51.263  34.164  52.634  0.00  0.00     0.019 A 
ATOM     16  C   UNL d   1      50.915  34.111  51.887  0.00  0.00     0.003 A 
ATOM     17  C   UNL d   1      50.128  34.346  51.776  0.00  0.00     0.019 A 
ATOM     18  C   UNL d   1      49.644  34.359  51.118  0.00  0.00     0.021 A 
ATOM     19  C   UNL d   1      49.699  34.632  52.418  0.00  0.00     0.081 A 
ATOM     20  C   UNL d   1      48.909  34.653  51.348  0.00  0.00     0.082 A 
ATOM     21  C   UNL d   1      48.255  34.759  50.858  0.00  0.00     0.021 C 
ATOM     22  N   UNL d   1      48.942  34.822  52.153  0.00  0.00    -0.246 NA
ATOM     23  C   UNL d   1      50.044  34.684  53.162  0.00  0.00     0.019 A 
ATOM     24  C   UNL d   1      50.827  34.450  53.271  0.00  0.00     0.003 A 
ENDBRANCH  14  15
ENDBRANCH   2  14
TORSDOF 4
ENDMDL
MODEL 2
REMARK VINA RESULT:      -8.4      1.531      2.453
REMARK  4 active torsions:
REMARK  status: ('A' for Active; 'I' for Inactive)
REMARK    1  A    between atoms: C_2  and  N_1 
REMARK    2  A    between atoms: C_9  and  C_10 
REMARK       I    between atoms: N_11  and  C_9 
REMARK    3  A    between atoms: C_21  and  N_11 
REMARK    4  A    between atoms: C_20  and  C_21 
ROOT
ATOM      1  C   UNL d   1      52.461  33.217  52.914  0.00  0.00     0.279 C 
ATOM      2  N   UNL d   1      51.787  33.684  52.960  0.00  0.00    -0.206 NA
ATOM      3  O   UNL d   1      52.638  32.815  52.217  0.00  0.00    -0.265 OA
ENDROOT
BRANCH   1   4
ATOM      4  C   UNL d   1      52.965  33.148  53.568  0.00  0.00     0.059 A 
ATOM      5  C   UNL d   1      53.230  33.837  53.950  0.00  0.00     0.028 A 
ATOM      6  C   UNL d   1      53.732  33.756  54.601  0.00  0.00     0.127 A 
ATOM      7  C   UNL d   1      53.966  33.002  54.868  0.00  0.00     0.022 A 
ATOM      8  C   UNL d   1      53.695  32.330  54.479  0.00  0.00     0.002 A 
ATOM      9  C   UNL d   1      54.464  32.925  55.514  0.00  0.00     0.002 C 
ATOM     10  C   UNL d   1      53.194  32.396  53.828  0.00  0.00     0.005 A 
BRANCH   6  11
ATOM     11  N   UNL d   1      54.005  34.432  54.993  0.00  0.00    -0.114 N 
ATOM     12  O   UNL d   1      53.513  34.837  55.517  0.00  0.00    -0.532 OA
ATOM     13  O   UNL d   1      54.770  34.711  54.864  0.00  0.00    -0.532 OA
ENDBRANCH   6  11
ENDBRANCH   1   4
BRANCH   2  14
ATOM     14  C   UNL d   1      51.288  33.753  52.316  0.00  0.00     0.102 C 
BRANCH  14  15
ATOM     15  C   UNL d   1      50.578  34.165  52.386  0.00  0.00     0.019 A 
ATOM     16  C   UNL d   1      50.059  34.199  51.745  0.00  0.00     0.003 A 
ATOM     17  C   UNL d   1      49.343  34.611  51.809  0.00  0.00     0.019 A 
ATOM     18  C   UNL d   1      48.732  34.739  51.282  0.00  0.00     0.021 A 
ATOM     19  C   UNL d   1      49.156  34.985  52.518  0.00  0.00     0.081 A 
ATOM     20  C   UNL d   1      48.159  35.195  51.661  0.00  0.00     0.082 A 
ATOM     21  C   UNL d   1      47.449  35.453  51.333  0.00  0.00     0.021 C 
ATOM     22  N   UNL d   1      48.421  35.348  52.427  0.00  0.00    -0.246 NA
ATOM     23  C   UNL d   1      49.671  34.952  53.157  0.00  0.00     0.019 A 
ATOM     24  C   UNL d   1      50.383  34.541  53.092  0.00  0.00     0.003 A 
ENDBRANCH  14  15
ENDBRANCH   2  14
TORSDOF 4
ENDMDL
MODEL 3
REMARK VINA RESULT:      -8.3      2.263      3.251
REMARK  4 active torsions:
REMARK  status: ('A' for Active; 'I' for Inactive)
REMARK    1  A    between atoms: C_2  and  N_1 
REMARK    2  A    between atoms: C_9  and  C_10 
REMARK       I    between atoms: N_11  and  C_9 
REMARK    3  A    between atoms: C_21  and  N_11 
REMARK    4  A    between atoms: C_20  and  C_21 
ROOT
ATOM      1  C   UNL d   1      51.385  34.130  52.543  0.00  0.00     0.279 C 
ATOM      2  N   UNL d   1      50.637  34.428  52.705  0.00  0.00    -0.206 NA
ATOM      3  O   UNL d   1      51.565  33.855  51.789  0.00  0.00    -0.265 OA
ENDROOT
BRANCH   1   4
ATOM      4  C   UNL d   1      51.961  34.107  53.139  0.00  0.00     0.059 A 
ATOM      5  C   UNL d   1      52.296  34.818  53.408  0.00  0.00     0.028 A 
ATOM      6  C   UNL d   1      52.869  34.781  54.002  0.00  0.00     0.127 A 
ATOM      7  C   UNL d   1      53.105  34.049  54.323  0.00  0.00     0.022 A 
ATOM      8  C   UNL d   1      52.763  33.354  54.046  0.00  0.00     0.002 A 
ATOM      9  C   UNL d   1      53.673  34.017  54.912  0.00  0.00     0.002 C 
ATOM     10  C   UNL d   1      52.190  33.376  53.453  0.00  0.00     0.005 A 
BRANCH   6  11
ATOM     11  N   UNL d   1      53.213  35.481  54.281  0.00  0.00    -0.114 N 
ATOM     12  O   UNL d   1      52.798  35.972  54.797  0.00  0.00    -0.532 OA
ATOM     13  O   UNL d   1      53.974  35.696  54.047  0.00  0.00    -0.532 OA
ENDBRANCH   6  11
ENDBRANCH   1   4
BRANCH   2  14
ATOM     14  C   UNL d   1      50.067  34.453  52.120  0.00  0.00     0.102 C 
BRANCH  14  15
ATOM     15  C   UNL d   1      49.350  34.835  52.257  0.00  0.00     0.019 A 
ATOM     16  C   UNL d   1      48.770  34.840  51.670  0.00  0.00     0.003 A 
ATOM     17  C   UNL d   1      48.047  35.223  51.801  0.00  0.00     0.019 A 
ATOM     18  C   UNL d   1      47.382  35.320  51.337  0.00  0.00     0.021 A 
ATOM     19  C   UNL d   1      47.914  35.595  52.523  0.00  0.00     0.081 A 
ATOM     20  C   UNL d   1      46.830  35.755  51.768  0.00  0.00     0.082 A 
ATOM     21  C   UNL d   1      46.081  35.980  51.510  0.00  0.00     0.021 C 
ATOM     22  N   UNL d   1      47.159  35.926  52.503  0.00  0.00    -0.246 NA
ATOM     23  C   UNL d   1      48.490  35.591  53.109  0.00  0.00     0.019 A 
ATOM     24  C   UNL d   1      49.210  35.210  52.976  0.00  0.00     0.003 A 
ENDBRANCH  14  15
ENDBRANCH   2  14
TORSDOF 4
ENDMDL
MODEL 4
REMARK VINA RESULT:      -8.0      2.359      5.119
REMARK  4 active torsions:
REMARK  status: ('A' for Active; 'I' for Inactive)
REMARK    1  A    between atoms: C_2  and  N_1 
REMARK    2  A    between atoms: C_9  and  C_10 
REMARK       I    between atoms: N_11  and  C_9 
REMARK    3  A    between atoms: C_21  and  N_11 
REMARK    4  A    between atoms: C_20  and  C_21 
ROOT
ATOM      1  C   UNL d   1      52.489  33.086  52.909  0.00  0.00     0.279 C 
ATOM      2  N   UNL d   1      52.657  32.343  53.217  0.00  0.00    -0.206 NA
ATOM      3  O   UNL d   1      52.150  33.156  52.162  0.00  0.00    -0.265 OA
ENDROOT
BRANCH   1   4
ATOM      4  C   UNL d   1      52.660  33.767  53.348  0.00  0.00     0.059 A 
ATOM      5  C   UNL d   1      53.223  33.727  53.957  0.00  0.00     0.028 A 
ATOM      6  C   UNL d   1      53.385  34.412  54.388  0.00  0.00     0.127 A 
ATOM      7  C   UNL d   1      52.993  35.128  54.217  0.00  0.00     0.022 A 
ATOM      8  C   UNL d   1      52.437  35.151  53.610  0.00  0.00     0.002 A 
ATOM      9  C   UNL d   1      53.155  35.805  54.646  0.00  0.00     0.002 C 
ATOM     10  C   UNL d   1      52.266  34.474  53.172  0.00  0.00     0.005 A 
BRANCH   6  11
ATOM     11  N   UNL d   1      53.944  34.388  54.999  0.00  0.00    -0.114 N 
ATOM     12  O   UNL d   1      54.749  34.358  54.824  0.00  0.00    -0.532 OA
ATOM     13  O   UNL d   1      53.704  34.394  55.788  0.00  0.00    -0.532 OA
ENDBRANCH   6  11
ENDBRANCH   1   4
BRANCH   2  14
ATOM     14  C   UNL d   1      52.489  31.670  52.785  0.00  0.00     0.102 C 
BRANCH  14  15
ATOM     15  C   UNL d   1      52.728  30.932  53.063  0.00  0.00     0.019 A 
ATOM     16  C   UNL d   1      52.738  30.783  53.874  0.00  0.00     0.003 A 
ATOM     17  C   UNL d   1      52.977  30.043  54.161  0.00  0.00     0.019 A 
ATOM     18  C   UNL d   1      53.042  29.739  54.916  0.00  0.00     0.021 A 
ATOM     19  C   UNL d   1      53.205  29.460  53.626  0.00  0.00     0.081 A 
ATOM     20  C   UNL d   1      53.312  28.962  54.856  0.00  0.00     0.082 A 
ATOM     21  C   UNL d   1      53.456  28.449  55.484  0.00  0.00     0.021 C 
ATOM     22  N   UNL d   1      53.413  28.788  54.057  0.00  0.00    -0.246 NA
ATOM     23  C   UNL d   1      53.196  29.606  52.818  0.00  0.00     0.019 A 
ATOM     24  C   UNL d   1      52.958  30.343  52.535  0.00  0.00     0.003 A 
ENDBRANCH  14  15
ENDBRANCH   2  14
TORSDOF 4
ENDMDL
MODEL 5
REMARK VINA RESULT:      -8.0      1.785      5.052
REMARK  4 active torsions:
REMARK  status: ('A' for Active; 'I' for Inactive)
REMARK    1  A    between atoms: C_2  and  N_1 
REMARK    2  A    between atoms: C_9  and  C_10 
REMARK       I    between atoms: N_11  and  C_9 
REMARK    3  A    between atoms: C_21  and  N_11 
REMARK    4  A    between atoms: C_20  and  C_21 
ROOT
ATOM      1  C   UNL d   1      51.521  34.101  52.295  0.00  0.00     0.279 C 
ATOM      2  N   UNL d   1      51.818  33.463  52.719  0.00  0.00    -0.206 NA
ATOM      3  O   UNL d   1      51.987  34.471  51.726  0.00  0.00    -0.265 OA
ENDROOT
BRANCH   1   4
ATOM      4  C   UNL d   1      50.752  34.374  52.438  0.00  0.00     0.059 A 
ATOM      5  C   UNL d   1      50.190  34.345  51.826  0.00  0.00     0.028 A 
ATOM      6  C   UNL d   1      49.427  34.620  51.981  0.00  0.00     0.127 A 
ATOM      7  C   UNL d   1      49.225  34.920  52.732  0.00  0.00     0.022 A 
ATOM      8  C   UNL d   1      49.793  34.941  53.328  0.00  0.00     0.002 A 
ATOM      9  C   UNL d   1      48.467  35.191  52.883  0.00  0.00     0.002 C 
ATOM     10  C   UNL d   1      50.559  34.670  53.187  0.00  0.00     0.005 A 
BRANCH   6  11
ATOM     11  N   UNL d   1      48.856  34.598  51.382  0.00  0.00    -0.114 N 
ATOM     12  O   UNL d   1      48.653  35.286  50.974  0.00  0.00    -0.532 OA
ATOM     13  O   UNL d   1      48.482  33.890  51.186  0.00  0.00    -0.532 OA
ENDBRANCH   6  11
ENDBRANCH   1   4
BRANCH   2  14
ATOM     14  C   UNL d   1      52.576  33.192  52.580  0.00  0.00     0.102 C 
BRANCH  14  15
ATOM     15  C   UNL d   1      52.870  32.551  53.006  0.00  0.00     0.019 A 
ATOM     16  C   UNL d   1      52.633  31.785  52.809  0.00  0.00     0.003 A 
ATOM     17  C   UNL d   1      52.924  31.136  53.233  0.00  0.00     0.019 A 
ATOM     18  C   UNL d   1      52.794  30.332  53.169  0.00  0.00     0.021 A 
ATOM     19  C   UNL d   1      53.451  31.264  53.852  0.00  0.00     0.081 A 
ATOM     20  C   UNL d   1      53.241  29.954  53.749  0.00  0.00     0.082 A 
ATOM     21  C   UNL d   1      53.275  29.141  53.882  0.00  0.00     0.021 C 
ATOM     22  N   UNL d   1      53.649  30.530  54.173  0.00  0.00    -0.246 NA
ATOM     23  C   UNL d   1      53.689  32.025  54.050  0.00  0.00     0.019 A 
ATOM     24  C   UNL d   1      53.398  32.671  53.626  0.00  0.00     0.003 A 
ENDBRANCH  14  15
ENDBRANCH   2  14
TORSDOF 4
ENDMDL
