MODEL 1
REMARK VINA RESULT:      41.0      0.000      0.000
REMARK  4 active torsions:
REMARK  status: ('A' for Active; 'I' for Inactive)
REMARK    1  A    between atoms: C_7  and  N_1 
REMARK    2  A    between atoms: C_8  and  C_7 
REMARK       I    between atoms: N_9  and  C_8 
REMARK    3  A    between atoms: C_13  and  N_9 
REMARK    4  A    between atoms: O_19  and  C_14 
ROOT
ATOM      1  C   UNL d   1      14.676  14.373  -0.063  0.00  0.00     0.148 C 
ENDROOT
BRANCH   1   2
ATOM      2  N   UNL d   1      14.614  13.548  -0.047  0.00  0.00    -0.235 N 
ATOM      3  C   UNL d   1      13.863  13.191  -0.039  0.00  0.00     0.273 A 
ATOM      4  C   UNL d   1      13.801  12.376  -0.024  0.00  0.00     0.086 A 
ATOM      5  O   UNL d   1      13.181  13.663  -0.047  0.00  0.00    -0.266 OA
ATOM      6  C   UNL d   1      13.048  12.018  -0.015  0.00  0.00     0.012 C 
ATOM      7  S   UNL d   1      14.472  11.901  -0.016  0.00  0.00    -0.077 SA
ATOM      8  C   UNL d   1      15.216  12.250  -0.024  0.00  0.00     0.086 A 
ATOM      9  C   UNL d   1      15.296  13.073  -0.039  0.00  0.00     0.273 A 
ATOM     10  C   UNL d   1      15.894  11.779  -0.016  0.00  0.00     0.012 C 
ATOM     11  O   UNL d   1      16.041  13.426  -0.048  0.00  0.00    -0.266 OA
ENDBRANCH   1   2
BRANCH   1  12
ATOM     12  C   UNL d   1      14.733  14.765  -0.786  0.00  0.00     0.297 C 
ATOM     13  N   UNL d   1      14.900  15.584  -0.810  0.00  0.00    -0.207 NA
ATOM     14  O   UNL d   1      14.625  14.342  -1.489  0.00  0.00    -0.264 OA
BRANCH  13  15
ATOM     15  C   UNL d   1      14.954  15.963  -1.540  0.00  0.00     0.085 A 
ATOM     16  C   UNL d   1      14.539  15.650  -2.181  0.00  0.00     0.021 A 
ATOM     17  C   UNL d   1      14.579  16.011  -2.917  0.00  0.00     0.026 A 
ATOM     18  C   UNL d   1      15.044  16.699  -3.010  0.00  0.00     0.094 A 
ATOM     19  C   UNL d   1      15.451  16.998  -2.358  0.00  0.00     0.026 A 
ATOM     20  C   UNL d   1      15.405  16.633  -1.634  0.00  0.00     0.021 A 
BRANCH  18  21
ATOM     21  O   UNL d   1      15.087  17.065  -3.746  0.00  0.00    -0.328 OA
ATOM     22  C   UNL d   1      14.708  16.720  -4.389  0.00  0.00     0.181 C 
ENDBRANCH  18  21
ENDBRANCH  13  15
ENDBRANCH   1  12
TORSDOF 4
ENDMDL
