MODEL 1
REMARK VINA RESULT:      -5.2      0.000      0.000
REMARK  4 active torsions:
REMARK  status: ('A' for Active; 'I' for Inactive)
REMARK    1  A    between atoms: C_9  and  C_3 
REMARK    2  A    between atoms: C_6  and  C_10 
REMARK    3  A    between atoms: S_8  and  C_9 
REMARK    4  A    between atoms: C_10  and  S_8 
ROOT
ATOM      1  C   UNL d   1      57.449   0.380  30.583  0.00  0.00     0.074 C 
ENDROOT
BRANCH   1   2
ATOM      2  S   UNL d   1      58.271   0.318  30.573  0.00  0.00    -0.083 SA
BRANCH   2   3
ATOM      3  C   UNL d   1      58.660   0.398  29.849  0.00  0.00     0.035 C 
BRANCH   3   4
ATOM      4  C   UNL d   1      59.484   0.417  29.849  0.00  0.00     0.006 A 
ATOM      5  C   UNL d   1      59.877   0.158  29.169  0.00  0.00     0.001 A 
ATOM      6  C   UNL d   1      59.469  -0.113  28.505  0.00  0.00     0.000 C 
ATOM      7  C   UNL d   1      60.715   0.167  29.144  0.00  0.00     0.000 A 
ATOM      8  C   UNL d   1      61.133   0.431  29.791  0.00  0.00     0.000 A 
ATOM      9  C   UNL d   1      60.718   0.682  30.452  0.00  0.00     0.000 A 
ATOM     10  C   UNL d   1      59.879   0.672  30.475  0.00  0.00     0.001 A 
ENDBRANCH   3   4
ENDBRANCH   2   3
ENDBRANCH   1   2
BRANCH   1  11
ATOM     11  C   UNL d   1      57.025   0.139  31.249  0.00  0.00     0.169 A 
ATOM     12  N   UNL d   1      56.661   0.660  31.782  0.00  0.00    -0.225 NA
ATOM     13  C   UNL d   1      56.298   0.187  32.369  0.00  0.00     0.101 A 
ATOM     14  C   UNL d   1      56.453  -0.625  32.173  0.00  0.00     0.101 A 
ATOM     15  C   UNL d   1      55.861   0.349  33.034  0.00  0.00     0.021 A 
ATOM     16  N   UNL d   1      56.908  -0.628  31.472  0.00  0.00    -0.225 NA
ATOM     17  C   UNL d   1      56.158  -1.204  32.660  0.00  0.00     0.021 A 
ATOM     18  C   UNL d   1      55.736  -1.034  33.302  0.00  0.00     0.002 A 
ATOM     19  C   UNL d   1      55.580  -0.222  33.498  0.00  0.00     0.002 A 
ENDBRANCH   1  11
TORSDOF 4
ENDMDL
MODEL 2
REMARK VINA RESULT:      -5.2      0.700      1.188
REMARK  4 active torsions:
REMARK  status: ('A' for Active; 'I' for Inactive)
REMARK    1  A    between atoms: C_9  and  C_3 
REMARK    2  A    between atoms: C_6  and  C_10 
REMARK    3  A    between atoms: S_8  and  C_9 
REMARK    4  A    between atoms: C_10  and  S_8 
ROOT
ATOM      1  C   UNL d   1      57.662   0.383  30.678  0.00  0.00     0.074 C 
ENDROOT
BRANCH   1   2
ATOM      2  S   UNL d   1      58.167  -0.156  30.309  0.00  0.00    -0.083 SA
BRANCH   2   3
ATOM      3  C   UNL d   1      58.744   0.137  29.796  0.00  0.00     0.035 C 
BRANCH   3   4
ATOM      4  C   UNL d   1      59.181  -0.402  29.351  0.00  0.00     0.006 A 
ATOM      5  C   UNL d   1      59.927  -0.168  29.083  0.00  0.00     0.001 A 
ATOM      6  C   UNL d   1      60.237   0.578  29.249  0.00  0.00     0.000 C 
ATOM      7  C   UNL d   1      60.391  -0.698  28.628  0.00  0.00     0.000 A 
ATOM      8  C   UNL d   1      60.100  -1.439  28.455  0.00  0.00     0.000 A 
ATOM      9  C   UNL d   1      59.356  -1.645  28.733  0.00  0.00     0.000 A 
ATOM     10  C   UNL d   1      58.894  -1.112  29.188  0.00  0.00     0.001 A 
ENDBRANCH   3   4
ENDBRANCH   2   3
ENDBRANCH   1   2
BRANCH   1  11
ATOM     11  C   UNL d   1      57.171   0.133  31.292  0.00  0.00     0.169 A 
ATOM     12  N   UNL d   1      56.780   0.647  31.812  0.00  0.00    -0.225 NA
ATOM     13  C   UNL d   1      56.347   0.167  32.343  0.00  0.00     0.101 A 
ATOM     14  C   UNL d   1      56.489  -0.643  32.127  0.00  0.00     0.101 A 
ATOM     15  C   UNL d   1      55.857   0.321  32.973  0.00  0.00     0.021 A 
ATOM     16  N   UNL d   1      57.005  -0.637  31.470  0.00  0.00    -0.225 NA
ATOM     17  C   UNL d   1      56.128  -1.227  32.560  0.00  0.00     0.021 A 
ATOM     18  C   UNL d   1      55.656  -1.066  33.169  0.00  0.00     0.002 A 
ATOM     19  C   UNL d   1      55.514  -0.256  33.385  0.00  0.00     0.002 A 
ENDBRANCH   1  11
TORSDOF 4
ENDMDL
MODEL 3
REMARK VINA RESULT:      -5.2      1.028      4.771
REMARK  4 active torsions:
REMARK  status: ('A' for Active; 'I' for Inactive)
REMARK    1  A    between atoms: C_9  and  C_3 
REMARK    2  A    between atoms: C_6  and  C_10 
REMARK    3  A    between atoms: S_8  and  C_9 
REMARK    4  A    between atoms: C_10  and  S_8 
ROOT
ATOM      1  C   UNL d   1      57.560   0.532  30.907  0.00  0.00     0.074 C 
ENDROOT
BRANCH   1   2
ATOM      2  S   UNL d   1      57.319  -0.002  31.488  0.00  0.00    -0.083 SA
BRANCH   2   3
ATOM      3  C   UNL d   1      56.798   0.263  32.070  0.00  0.00     0.035 C 
BRANCH   3   4
ATOM      4  C   UNL d   1      56.368  -0.298  32.494  0.00  0.00     0.006 A 
ATOM      5  C   UNL d   1      56.056  -0.076  33.227  0.00  0.00     0.001 A 
ATOM      6  C   UNL d   1      56.164   0.682  33.536  0.00  0.00     0.000 C 
ATOM      7  C   UNL d   1      55.615  -0.628  33.677  0.00  0.00     0.000 A 
ATOM      8  C   UNL d   1      55.499  -1.380  33.387  0.00  0.00     0.000 A 
ATOM      9  C   UNL d   1      55.819  -1.575  32.658  0.00  0.00     0.000 A 
ATOM     10  C   UNL d   1      56.260  -1.019  32.209  0.00  0.00     0.001 A 
ENDBRANCH   3   4
ENDBRANCH   2   3
ENDBRANCH   1   2
BRANCH   1  11
ATOM     11  C   UNL d   1      58.165   0.328  30.385  0.00  0.00     0.169 A 
ATOM     12  N   UNL d   1      58.057  -0.138  29.707  0.00  0.00    -0.225 NA
ATOM     13  C   UNL d   1      58.805  -0.208  29.341  0.00  0.00     0.101 A 
ATOM     14  C   UNL d   1      59.361   0.226  29.816  0.00  0.00     0.101 A 
ATOM     15  C   UNL d   1      59.075  -0.583  28.673  0.00  0.00     0.021 A 
ATOM     16  N   UNL d   1      58.938   0.550  30.459  0.00  0.00    -0.225 NA
ATOM     17  C   UNL d   1      60.138   0.247  29.580  0.00  0.00     0.021 A 
ATOM     18  C   UNL d   1      60.388  -0.120  28.930  0.00  0.00     0.002 A 
ATOM     19  C   UNL d   1      59.832  -0.554  28.456  0.00  0.00     0.002 A 
ENDBRANCH   1  11
TORSDOF 4
ENDMDL
MODEL 4
REMARK VINA RESULT:      -2.8      9.944     10.388
REMARK  4 active torsions:
REMARK  status: ('A' for Active; 'I' for Inactive)
REMARK    1  A    between atoms: C_9  and  C_3 
REMARK    2  A    between atoms: C_6  and  C_10 
REMARK    3  A    between atoms: S_8  and  C_9 
REMARK    4  A    between atoms: C_10  and  S_8 
ROOT
ATOM      1  C   UNL d   1      58.458  -9.817  33.591  0.00  0.00     0.074 C 
ENDROOT
BRANCH   1   2
ATOM      2  S   UNL d   1      59.202  -9.589  33.867  0.00  0.00    -0.083 SA
BRANCH   2   3
ATOM      3  C   UNL d   1      59.322  -9.558  34.683  0.00  0.00     0.035 C 
BRANCH   3   4
ATOM      4  C   UNL d   1      59.918  -9.067  34.971  0.00  0.00     0.006 A 
ATOM      5  C   UNL d   1      59.857  -8.800  35.751  0.00  0.00     0.001 A 
ATOM      6  C   UNL d   1      59.225  -9.012  36.237  0.00  0.00     0.000 C 
ATOM      7  C   UNL d   1      60.450  -8.299  36.068  0.00  0.00     0.000 A 
ATOM      8  C   UNL d   1      61.081  -8.080  35.601  0.00  0.00     0.000 A 
ATOM      9  C   UNL d   1      61.117  -8.359  34.831  0.00  0.00     0.000 A 
ATOM     10  C   UNL d   1      60.521  -8.860  34.517  0.00  0.00     0.001 A 
ENDBRANCH   3   4
ENDBRANCH   2   3
ENDBRANCH   1   2
BRANCH   1  11
ATOM     11  C   UNL d   1      58.301  -9.815  32.781  0.00  0.00     0.169 A 
ATOM     12  N   UNL d   1      58.887  -9.817  32.194  0.00  0.00    -0.225 NA
ATOM     13  C   UNL d   1      58.490  -9.815  31.458  0.00  0.00     0.101 A 
ATOM     14  C   UNL d   1      57.656  -9.811  31.620  0.00  0.00     0.101 A 
ATOM     15  C   UNL d   1      58.735  -9.815  30.683  0.00  0.00     0.021 A 
ATOM     16  N   UNL d   1      57.565  -9.811  32.450  0.00  0.00    -0.225 NA
ATOM     17  C   UNL d   1      57.140  -9.808  30.992  0.00  0.00     0.021 A 
ATOM     18  C   UNL d   1      57.390  -9.808  30.246  0.00  0.00     0.002 A 
ATOM     19  C   UNL d   1      58.224  -9.812  30.085  0.00  0.00     0.002 A 
ENDBRANCH   1  11
TORSDOF 4
ENDMDL
MODEL 5
REMARK VINA RESULT:      -2.5      9.888     10.244
REMARK  4 active torsions:
REMARK  status: ('A' for Active; 'I' for Inactive)
REMARK    1  A    between atoms: C_9  and  C_3 
REMARK    2  A    between atoms: C_6  and  C_10 
REMARK    3  A    between atoms: S_8  and  C_9 
REMARK    4  A    between atoms: C_10  and  S_8 
ROOT
ATOM      1  C   UNL d   1      58.275  -9.469  32.508  0.00  0.00     0.074 C 
ENDROOT
BRANCH   1   2
ATOM      2  S   UNL d   1      58.467  -9.691  31.736  0.00  0.00    -0.083 SA
BRANCH   2   3
ATOM      3  C   UNL d   1      57.851  -9.818  31.202  0.00  0.00     0.035 C 
BRANCH   3   4
ATOM      4  C   UNL d   1      58.027  -9.815  30.396  0.00  0.00     0.006 A 
ATOM      5  C   UNL d   1      57.396  -9.815  29.862  0.00  0.00     0.001 A 
ATOM      6  C   UNL d   1      56.610  -9.817  30.114  0.00  0.00     0.000 C 
ATOM      7  C   UNL d   1      57.548  -9.813  29.038  0.00  0.00     0.000 A 
ATOM      8  C   UNL d   1      58.319  -9.810  28.772  0.00  0.00     0.000 A 
ATOM      9  C   UNL d   1      58.925  -9.811  29.324  0.00  0.00     0.000 A 
ATOM     10  C   UNL d   1      58.770  -9.813  30.149  0.00  0.00     0.001 A 
ENDBRANCH   3   4
ENDBRANCH   2   3
ENDBRANCH   1   2
BRANCH   1  11
ATOM     11  C   UNL d   1      58.858  -9.461  33.091  0.00  0.00     0.169 A 
ATOM     12  N   UNL d   1      58.713  -9.604  33.895  0.00  0.00    -0.225 NA
ATOM     13  C   UNL d   1      59.450  -9.542  34.287  0.00  0.00     0.101 A 
ATOM     14  C   UNL d   1      60.035  -9.358  33.699  0.00  0.00     0.101 A 
ATOM     15  C   UNL d   1      59.687  -9.618  35.060  0.00  0.00     0.021 A 
ATOM     16  N   UNL d   1      59.641  -9.313  32.964  0.00  0.00    -0.225 NA
ATOM     17  C   UNL d   1      60.807  -9.267  33.936  0.00  0.00     0.021 A 
ATOM     18  C   UNL d   1      61.024  -9.344  34.688  0.00  0.00     0.002 A 
ATOM     19  C   UNL d   1      60.438  -9.527  35.276  0.00  0.00     0.002 A 
ENDBRANCH   1  11
TORSDOF 4
ENDMDL
