MODEL 1
REMARK VINA RESULT:      54.0      0.000      0.000
REMARK  3 active torsions:
REMARK  status: ('A' for Active; 'I' for Inactive)
REMARK    1  A    between atoms: C_8  and  C_2 
REMARK    2  A    between atoms: N_9  and  C_8 
REMARK    3  A    between atoms: C_20  and  C_13 
ROOT
ATOM      1  C   UNL d   1     -51.457  25.601  33.322  0.00  0.00     0.108 A 
ATOM      2  C   UNL d   1     -51.354  26.421  33.316  0.00  0.00     0.079 A 
ATOM      3  O   UNL d   1     -50.817  25.101  33.322  0.00  0.00    -0.273 OA
ATOM      4  C   UNL d   1     -50.918  24.277  33.328  0.00  0.00     0.300 A 
ATOM      5  C   UNL d   1     -52.345  24.479  33.333  0.00  0.00     0.007 A 
ATOM      6  C   UNL d   1     -52.221  25.290  33.327  0.00  0.00     0.023 A 
ATOM      7  C   UNL d   1     -51.690  23.963  33.334  0.00  0.00     0.064 A 
ATOM      8  C   UNL d   1     -52.879  25.791  33.327  0.00  0.00     0.005 A 
ATOM      9  C   UNL d   1     -51.997  26.928  33.315  0.00  0.00     0.199 A 
ATOM     10  O   UNL d   1     -50.272  23.762  33.329  0.00  0.00    -0.259 OA
ATOM     11  C   UNL d   1     -52.761  26.617  33.321  0.00  0.00     0.042 A 
ATOM     12  C   UNL d   1     -53.029  24.025  33.339  0.00  0.00     0.000 A 
ATOM     13  C   UNL d   1     -51.982  23.188  33.340  0.00  0.00     0.005 A 
ATOM     14  O   UNL d   1     -51.893  27.745  33.309  0.00  0.00    -0.286 OA
ATOM     15  C   UNL d   1     -52.804  23.217  33.344  0.00  0.00     0.000 A 
ENDROOT
BRANCH   2  16
ATOM     16  C   UNL d   1     -50.580  26.727  33.310  0.00  0.00     0.085 C 
BRANCH  16  17
ATOM     17  N   UNL d   1     -50.224  26.984  34.006  0.00  0.00    -0.304 N 
ATOM     18  C   UNL d   1     -49.811  27.674  34.004  0.00  0.00     0.064 A 
ATOM     19  C   UNL d   1     -49.455  27.932  34.700  0.00  0.00     0.018 A 
ATOM     20  C   UNL d   1     -49.525  27.482  35.391  0.00  0.00     0.003 A 
ATOM     21  C   UNL d   1     -49.941  26.794  35.381  0.00  0.00     0.019 A 
ATOM     22  C   UNL d   1     -50.297  26.536  34.684  0.00  0.00     0.080 A 
BRANCH  18  23
ATOM     23  C   UNL d   1     -49.739  28.123  33.321  0.00  0.00     0.018 C 
ATOM     24  C   UNL d   1     -49.298  28.814  33.314  0.00  0.00     0.002 C 
ENDBRANCH  18  23
ENDBRANCH  16  17
ENDBRANCH   2  16
TORSDOF 3
ENDMDL
MODEL 2
REMARK VINA RESULT:      56.3      0.921      1.801
REMARK  3 active torsions:
REMARK  status: ('A' for Active; 'I' for Inactive)
REMARK    1  A    between atoms: C_8  and  C_2 
REMARK    2  A    between atoms: N_9  and  C_8 
REMARK    3  A    between atoms: C_20  and  C_13 
ROOT
ATOM      1  C   UNL d   1     -51.068  25.701  33.306  0.00  0.00     0.108 A 
ATOM      2  C   UNL d   1     -50.296  25.996  33.306  0.00  0.00     0.079 A 
ATOM      3  O   UNL d   1     -51.705  26.203  33.306  0.00  0.00    -0.273 OA
ATOM      4  C   UNL d   1     -52.481  25.909  33.306  0.00  0.00     0.300 A 
ATOM      5  C   UNL d   1     -51.945  24.570  33.306  0.00  0.00     0.007 A 
ATOM      6  C   UNL d   1     -51.188  24.885  33.306  0.00  0.00     0.023 A 
ATOM      7  C   UNL d   1     -52.603  25.084  33.306  0.00  0.00     0.064 A 
ATOM      8  C   UNL d   1     -50.544  24.364  33.306  0.00  0.00     0.005 A 
ATOM      9  C   UNL d   1     -49.650  25.492  33.306  0.00  0.00     0.199 A 
ATOM     10  O   UNL d   1     -53.136  26.413  33.306  0.00  0.00    -0.259 OA
ATOM     11  C   UNL d   1     -49.770  24.676  33.306  0.00  0.00     0.042 A 
ATOM     12  C   UNL d   1     -52.224  23.799  33.306  0.00  0.00     0.000 A 
ATOM     13  C   UNL d   1     -53.286  24.616  33.306  0.00  0.00     0.005 A 
ATOM     14  O   UNL d   1     -48.882  25.788  33.306  0.00  0.00    -0.286 OA
ATOM     15  C   UNL d   1     -53.062  23.825  33.306  0.00  0.00     0.000 A 
ENDROOT
BRANCH   2  16
ATOM     16  C   UNL d   1     -50.183  26.821  33.306  0.00  0.00     0.085 C 
BRANCH  16  17
ATOM     17  N   UNL d   1     -49.791  27.192  33.927  0.00  0.00    -0.304 N 
ATOM     18  C   UNL d   1     -49.856  27.989  34.012  0.00  0.00     0.064 A 
ATOM     19  C   UNL d   1     -49.464  28.361  34.633  0.00  0.00     0.018 A 
ATOM     20  C   UNL d   1     -49.010  27.914  35.161  0.00  0.00     0.003 A 
ATOM     21  C   UNL d   1     -48.953  27.117  35.067  0.00  0.00     0.019 A 
ATOM     22  C   UNL d   1     -49.345  26.746  34.445  0.00  0.00     0.080 A 
BRANCH  18  23
ATOM     23  C   UNL d   1     -50.305  28.436  33.490  0.00  0.00     0.018 C 
ATOM     24  C   UNL d   1     -50.270  29.255  33.496  0.00  0.00     0.002 C 
ENDBRANCH  18  23
ENDBRANCH  16  17
ENDBRANCH   2  16
TORSDOF 3
ENDMDL
