MODEL 1
REMARK VINA RESULT:      28.8      0.000      0.000
REMARK  5 active torsions:
REMARK  status: ('A' for Active; 'I' for Inactive)
REMARK    1  A    between atoms: N_2  and  C_7 
REMARK    2  A    between atoms: N_11  and  C_3 
REMARK    3  A    between atoms: C_9  and  C_4 
REMARK    4  A    between atoms: C_18  and  N_11 
REMARK    5  A    between atoms: C_16  and  C_18 
ROOT
ATOM      1  N   UNL d   1     -52.046  24.961  33.525  0.00  0.00    -0.222 NA
ATOM      2  C   UNL d   1     -51.983  24.142  33.571  0.00  0.00     0.172 A 
ATOM      3  C   UNL d   1     -51.275  25.278  33.532  0.00  0.00     0.090 A 
ATOM      4  S   UNL d   1     -51.192  23.951  33.605  0.00  0.00    -0.048 SA
ATOM      5  C   UNL d   1     -50.759  24.645  33.581  0.00  0.00     0.057 A 
ENDROOT
BRANCH   3   6
ATOM      6  C   UNL d   1     -51.106  26.097  33.494  0.00  0.00     0.018 A 
ATOM      7  C   UNL d   1     -50.323  26.348  33.552  0.00  0.00     0.003 A 
ATOM      8  C   UNL d   1     -50.157  27.155  33.514  0.00  0.00     0.024 A 
ATOM      9  C   UNL d   1     -50.778  27.690  33.420  0.00  0.00     0.127 A 
ATOM     10  C   UNL d   1     -51.554  27.448  33.362  0.00  0.00     0.024 A 
ATOM     11  C   UNL d   1     -51.723  26.629  33.400  0.00  0.00     0.003 A 
BRANCH   9  12
ATOM     12  N   UNL d   1     -50.613  28.491  33.382  0.00  0.00    -0.114 N 
ATOM     13  O   UNL d   1     -51.227  29.047  33.414  0.00  0.00    -0.532 OA
ATOM     14  O   UNL d   1     -49.843  28.757  33.313  0.00  0.00    -0.532 OA
ENDBRANCH   9  12
ENDBRANCH   3   6
BRANCH   2  15
ATOM     15  N   UNL d   1     -52.593  23.597  33.581  0.00  0.00    -0.332 N 
ATOM     16  H   UNL d   1     -52.471  22.834  33.271  0.00  0.00     0.168 HD
BRANCH  15  17
ATOM     17  C   UNL d   1     -53.336  23.800  33.900  0.00  0.00     0.074 C 
BRANCH  17  18
ATOM     18  C   UNL d   1     -53.833  23.230  34.189  0.00  0.00     0.018 C 
ATOM     19  C   UNL d   1     -54.021  23.193  35.014  0.00  0.00     0.002 C 
ENDBRANCH  17  18
ENDBRANCH  15  17
ENDBRANCH   2  15
TORSDOF 5
ENDMDL
