MODEL 1
REMARK VINA RESULT:      -5.0      0.000      0.000
REMARK  3 active torsions:
REMARK  status: ('A' for Active; 'I' for Inactive)
REMARK       I    between atoms: N_2  and  C_1 
REMARK    1  A    between atoms: C_8  and  C_1 
REMARK    2  A    between atoms: C_6  and  N_2 
REMARK    3  A    between atoms: N_4  and  C_8 
ROOT
ATOM      1  N   UNL d   1      58.670  -2.568  29.471  0.00  0.00    -0.191 NA
ATOM      2  C   UNL d   1      58.593  -1.776  29.440  0.00  0.00     0.102 C 
ATOM      3  C   UNL d   1      58.123  -0.561  30.022  0.00  0.00     0.094 A 
ATOM      4  C   UNL d   1      58.515  -0.962  29.405  0.00  0.00     0.086 A 
ATOM      5  C   UNL d   1      58.819  -0.528  28.766  0.00  0.00     0.012 A 
ATOM      6  C   UNL d   1      58.043   0.251  29.991  0.00  0.00     0.020 A 
ATOM      7  C   UNL d   1      58.735   0.296  28.741  0.00  0.00     0.001 A 
ATOM      8  C   UNL d   1      58.348   0.682  29.351  0.00  0.00     0.002 A 
ENDROOT
BRANCH   3   9
ATOM      9  N   UNL d   1      57.820  -0.988  30.657  0.00  0.00    -0.206 NA
ATOM     10  C   UNL d   1      57.262  -0.627  31.125  0.00  0.00     0.297 C 
ATOM     11  O   UNL d   1      57.012   0.146  30.961  0.00  0.00    -0.264 OA
BRANCH  10  12
ATOM     12  C   UNL d   1      56.925  -1.019  31.780  0.00  0.00     0.144 C 
BRANCH  12  13
ATOM     13  N   UNL d   1      56.566  -0.614  32.387  0.00  0.00    -0.299 N 
ATOM     14  C   UNL d   1      56.976  -0.061  32.818  0.00  0.00     0.080 A 
ATOM     15  C   UNL d   1      56.607   0.347  33.432  0.00  0.00     0.019 A 
ATOM     16  C   UNL d   1      55.827   0.194  33.607  0.00  0.00     0.003 A 
ATOM     17  C   UNL d   1      55.420  -0.363  33.169  0.00  0.00     0.019 A 
ATOM     18  C   UNL d   1      55.415   0.608  34.247  0.00  0.00     0.000 C 
ATOM     19  C   UNL d   1      55.793  -0.772  32.554  0.00  0.00     0.080 A 
ENDBRANCH  12  13
ENDBRANCH  10  12
ENDBRANCH   3   9
TORSDOF 3
ENDMDL
MODEL 2
REMARK VINA RESULT:      -4.9      1.331      1.645
REMARK  3 active torsions:
REMARK  status: ('A' for Active; 'I' for Inactive)
REMARK       I    between atoms: N_2  and  C_1 
REMARK    1  A    between atoms: C_8  and  C_1 
REMARK    2  A    between atoms: C_6  and  N_2 
REMARK    3  A    between atoms: N_4  and  C_8 
ROOT
ATOM      1  N   UNL d   1      58.683  -1.635  28.631  0.00  0.00    -0.191 NA
ATOM      2  C   UNL d   1      59.156  -1.104  28.992  0.00  0.00     0.102 C 
ATOM      3  C   UNL d   1      59.305   0.056  29.809  0.00  0.00     0.094 A 
ATOM      4  C   UNL d   1      59.644  -0.561  29.362  0.00  0.00     0.086 A 
ATOM      5  C   UNL d   1      60.470  -0.613  29.301  0.00  0.00     0.012 A 
ATOM      6  C   UNL d   1      59.788   0.600  30.180  0.00  0.00     0.020 A 
ATOM      7  C   UNL d   1      60.954  -0.057  29.680  0.00  0.00     0.001 A 
ATOM      8  C   UNL d   1      60.613   0.545  30.117  0.00  0.00     0.002 A 
ENDROOT
BRANCH   3   9
ATOM      9  N   UNL d   1      58.486   0.110  29.872  0.00  0.00    -0.206 NA
ATOM     10  C   UNL d   1      58.178   0.406  30.565  0.00  0.00     0.297 C 
ATOM     11  O   UNL d   1      58.680   0.641  31.181  0.00  0.00    -0.264 OA
BRANCH  10  12
ATOM     12  C   UNL d   1      57.354   0.480  30.677  0.00  0.00     0.144 C 
BRANCH  12  13
ATOM     13  N   UNL d   1      56.979   0.174  31.329  0.00  0.00    -0.299 N 
ATOM     14  C   UNL d   1      56.963  -0.627  31.463  0.00  0.00     0.080 A 
ATOM     15  C   UNL d   1      56.580  -0.932  32.126  0.00  0.00     0.019 A 
ATOM     16  C   UNL d   1      56.216  -0.426  32.650  0.00  0.00     0.003 A 
ATOM     17  C   UNL d   1      56.235   0.378  32.509  0.00  0.00     0.019 A 
ATOM     18  C   UNL d   1      55.807  -0.720  33.355  0.00  0.00     0.000 C 
ATOM     19  C   UNL d   1      56.620   0.682  31.843  0.00  0.00     0.080 A 
ENDBRANCH  12  13
ENDBRANCH  10  12
ENDBRANCH   3   9
TORSDOF 3
ENDMDL
MODEL 3
REMARK VINA RESULT:      -4.4      1.257      1.910
REMARK  3 active torsions:
REMARK  status: ('A' for Active; 'I' for Inactive)
REMARK       I    between atoms: N_2  and  C_1 
REMARK    1  A    between atoms: C_8  and  C_1 
REMARK    2  A    between atoms: C_6  and  N_2 
REMARK    3  A    between atoms: N_4  and  C_8 
ROOT
ATOM      1  N   UNL d   1      58.515  -2.940  28.943  0.00  0.00    -0.191 NA
ATOM      2  C   UNL d   1      59.070  -2.373  29.021  0.00  0.00     0.102 C 
ATOM      3  C   UNL d   1      59.418  -1.028  29.342  0.00  0.00     0.094 A 
ATOM      4  C   UNL d   1      59.642  -1.794  29.100  0.00  0.00     0.086 A 
ATOM      5  C   UNL d   1      60.441  -1.954  28.944  0.00  0.00     0.012 A 
ATOM      6  C   UNL d   1      59.986  -0.446  29.422  0.00  0.00     0.020 A 
ATOM      7  C   UNL d   1      61.012  -1.359  29.027  0.00  0.00     0.001 A 
ATOM      8  C   UNL d   1      60.784  -0.610  29.265  0.00  0.00     0.002 A 
ENDROOT
BRANCH   3   9
ATOM      9  N   UNL d   1      58.627  -0.865  29.497  0.00  0.00    -0.206 NA
ATOM     10  C   UNL d   1      58.458  -0.237  29.985  0.00  0.00     0.297 C 
ATOM     11  O   UNL d   1      59.069   0.220  30.311  0.00  0.00    -0.264 OA
BRANCH  10  12
ATOM     12  C   UNL d   1      57.670  -0.032  30.173  0.00  0.00     0.144 C 
BRANCH  12  13
ATOM     13  N   UNL d   1      57.398  -0.026  30.938  0.00  0.00    -0.299 N 
ATOM     14  C   UNL d   1      57.111  -0.703  31.284  0.00  0.00     0.080 A 
ATOM     15  C   UNL d   1      56.836  -0.692  32.061  0.00  0.00     0.019 A 
ATOM     16  C   UNL d   1      56.851   0.004  32.484  0.00  0.00     0.003 A 
ATOM     17  C   UNL d   1      57.141   0.681  32.131  0.00  0.00     0.019 A 
ATOM     18  C   UNL d   1      56.568   0.045  33.302  0.00  0.00     0.000 C 
ATOM     19  C   UNL d   1      57.417   0.667  31.351  0.00  0.00     0.080 A 
ENDBRANCH  12  13
ENDBRANCH  10  12
ENDBRANCH   3   9
TORSDOF 3
ENDMDL
MODEL 4
REMARK VINA RESULT:      -4.2      1.217      4.335
REMARK  3 active torsions:
REMARK  status: ('A' for Active; 'I' for Inactive)
REMARK       I    between atoms: N_2  and  C_1 
REMARK    1  A    between atoms: C_8  and  C_1 
REMARK    2  A    between atoms: C_6  and  N_2 
REMARK    3  A    between atoms: N_4  and  C_8 
ROOT
ATOM      1  N   UNL d   1      57.852   0.682  34.032  0.00  0.00    -0.191 NA
ATOM      2  C   UNL d   1      57.348   0.209  33.636  0.00  0.00     0.102 C 
ATOM      3  C   UNL d   1      56.779  -0.224  32.402  0.00  0.00     0.094 A 
ATOM      4  C   UNL d   1      56.829  -0.278  33.232  0.00  0.00     0.086 A 
ATOM      5  C   UNL d   1      56.351  -0.825  33.634  0.00  0.00     0.012 A 
ATOM      6  C   UNL d   1      56.263  -0.709  31.994  0.00  0.00     0.020 A 
ATOM      7  C   UNL d   1      55.829  -1.314  33.214  0.00  0.00     0.001 A 
ATOM      8  C   UNL d   1      55.787  -1.254  32.399  0.00  0.00     0.002 A 
ENDROOT
BRANCH   3   9
ATOM      9  N   UNL d   1      57.251   0.317  32.000  0.00  0.00    -0.206 NA
ATOM     10  C   UNL d   1      57.429   0.161  31.222  0.00  0.00     0.297 C 
ATOM     11  O   UNL d   1      57.140  -0.523  30.853  0.00  0.00    -0.264 OA
BRANCH  10  12
ATOM     12  C   UNL d   1      57.904   0.680  30.772  0.00  0.00     0.144 C 
BRANCH  12  13
ATOM     13  N   UNL d   1      58.429   0.409  30.214  0.00  0.00    -0.299 N 
ATOM     14  C   UNL d   1      59.217   0.317  30.392  0.00  0.00     0.080 A 
ATOM     15  C   UNL d   1      59.745   0.042  29.822  0.00  0.00     0.019 A 
ATOM     16  C   UNL d   1      59.474  -0.140  29.076  0.00  0.00     0.003 A 
ATOM     17  C   UNL d   1      58.681  -0.047  28.904  0.00  0.00     0.019 A 
ATOM     18  C   UNL d   1      60.007  -0.432  28.458  0.00  0.00     0.000 C 
ATOM     19  C   UNL d   1      58.153   0.230  29.477  0.00  0.00     0.080 A 
ENDBRANCH  12  13
ENDBRANCH  10  12
ENDBRANCH   3   9
TORSDOF 3
ENDMDL
MODEL 5
REMARK VINA RESULT:      -3.7      0.950      4.197
REMARK  3 active torsions:
REMARK  status: ('A' for Active; 'I' for Inactive)
REMARK       I    between atoms: N_2  and  C_1 
REMARK    1  A    between atoms: C_8  and  C_1 
REMARK    2  A    between atoms: C_6  and  N_2 
REMARK    3  A    between atoms: N_4  and  C_8 
ROOT
ATOM      1  N   UNL d   1      55.561  -1.910  32.528  0.00  0.00    -0.191 NA
ATOM      2  C   UNL d   1      55.994  -1.278  32.747  0.00  0.00     0.102 C 
ATOM      3  C   UNL d   1      56.935  -0.258  32.419  0.00  0.00     0.094 A 
ATOM      4  C   UNL d   1      56.438  -0.629  32.975  0.00  0.00     0.086 A 
ATOM      5  C   UNL d   1      56.402  -0.334  33.750  0.00  0.00     0.012 A 
ATOM      6  C   UNL d   1      57.380   0.390  32.642  0.00  0.00     0.020 A 
ATOM      7  C   UNL d   1      56.856   0.323  33.970  0.00  0.00     0.001 A 
ATOM      8  C   UNL d   1      57.342   0.682  33.417  0.00  0.00     0.002 A 
ENDROOT
BRANCH   3   9
ATOM      9  N   UNL d   1      56.974  -0.547  31.649  0.00  0.00    -0.206 NA
ATOM     10  C   UNL d   1      57.388  -0.113  31.101  0.00  0.00     0.297 C 
ATOM     11  O   UNL d   1      57.758   0.597  31.318  0.00  0.00    -0.264 OA
BRANCH  10  12
ATOM     12  C   UNL d   1      57.456  -0.365  30.308  0.00  0.00     0.144 C 
BRANCH  12  13
ATOM     13  N   UNL d   1      58.175  -0.422  29.934  0.00  0.00    -0.299 N 
ATOM     14  C   UNL d   1      58.563   0.242  29.672  0.00  0.00     0.080 A 
ATOM     15  C   UNL d   1      59.292   0.178  29.293  0.00  0.00     0.019 A 
ATOM     16  C   UNL d   1      59.626  -0.557  29.181  0.00  0.00     0.003 A 
ATOM     17  C   UNL d   1      59.230  -1.221  29.446  0.00  0.00     0.019 A 
ATOM     18  C   UNL d   1      60.391  -0.653  28.786  0.00  0.00     0.000 C 
ATOM     19  C   UNL d   1      58.498  -1.154  29.826  0.00  0.00     0.080 A 
ENDBRANCH  12  13
ENDBRANCH  10  12
ENDBRANCH   3   9
TORSDOF 3
ENDMDL
MODEL 6
REMARK VINA RESULT:      -3.2      1.112      4.406
REMARK  3 active torsions:
REMARK  status: ('A' for Active; 'I' for Inactive)
REMARK       I    between atoms: N_2  and  C_1 
REMARK    1  A    between atoms: C_8  and  C_1 
REMARK    2  A    between atoms: C_6  and  N_2 
REMARK    3  A    between atoms: N_4  and  C_8 
ROOT
ATOM      1  N   UNL d   1      57.971   0.663  34.626  0.00  0.00    -0.191 NA
ATOM      2  C   UNL d   1      57.282   0.611  34.230  0.00  0.00     0.102 C 
ATOM      3  C   UNL d   1      56.571   0.593  32.993  0.00  0.00     0.094 A 
ATOM      4  C   UNL d   1      56.572   0.557  33.826  0.00  0.00     0.086 A 
ATOM      5  C   UNL d   1      55.853   0.467  34.230  0.00  0.00     0.012 A 
ATOM      6  C   UNL d   1      55.865   0.540  32.586  0.00  0.00     0.020 A 
ATOM      7  C   UNL d   1      55.140   0.414  33.811  0.00  0.00     0.001 A 
ATOM      8  C   UNL d   1      55.149   0.450  32.993  0.00  0.00     0.002 A 
ENDROOT
BRANCH   3   9
ATOM      9  N   UNL d   1      57.283   0.682  32.589  0.00  0.00    -0.206 NA
ATOM     10  C   UNL d   1      57.274   0.589  31.781  0.00  0.00     0.297 C 
ATOM     11  O   UNL d   1      56.567   0.410  31.386  0.00  0.00    -0.264 OA
BRANCH  10  12
ATOM     12  C   UNL d   1      57.970   0.669  31.327  0.00  0.00     0.144 C 
BRANCH  12  13
ATOM     13  N   UNL d   1      58.164   0.143  30.739  0.00  0.00    -0.299 N 
ATOM     14  C   UNL d   1      57.897  -0.625  30.762  0.00  0.00     0.080 A 
ATOM     15  C   UNL d   1      58.096  -1.155  30.163  0.00  0.00     0.019 A 
ATOM     16  C   UNL d   1      58.565  -0.907  29.545  0.00  0.00     0.003 A 
ATOM     17  C   UNL d   1      58.830  -0.134  29.528  0.00  0.00     0.019 A 
ATOM     18  C   UNL d   1      58.790  -1.443  28.902  0.00  0.00     0.000 C 
ATOM     19  C   UNL d   1      58.628   0.396  30.130  0.00  0.00     0.080 A 
ENDBRANCH  12  13
ENDBRANCH  10  12
ENDBRANCH   3   9
TORSDOF 3
ENDMDL
MODEL 7
REMARK VINA RESULT:      -2.6      8.710     10.076
REMARK  3 active torsions:
REMARK  status: ('A' for Active; 'I' for Inactive)
REMARK       I    between atoms: N_2  and  C_1 
REMARK    1  A    between atoms: C_8  and  C_1 
REMARK    2  A    between atoms: C_6  and  N_2 
REMARK    3  A    between atoms: N_4  and  C_8 
ROOT
ATOM      1  N   UNL d   1      58.510  -6.903  35.212  0.00  0.00    -0.191 NA
ATOM      2  C   UNL d   1      59.151  -7.339  35.399  0.00  0.00     0.102 C 
ATOM      3  C   UNL d   1      59.887  -8.555  35.289  0.00  0.00     0.094 A 
ATOM      4  C   UNL d   1      59.809  -7.783  35.594  0.00  0.00     0.086 A 
ATOM      5  C   UNL d   1      60.401  -7.481  36.091  0.00  0.00     0.012 A 
ATOM      6  C   UNL d   1      60.543  -9.003  35.480  0.00  0.00     0.020 A 
ATOM      7  C   UNL d   1      61.064  -7.940  36.281  0.00  0.00     0.001 A 
ATOM      8  C   UNL d   1      61.133  -8.697  35.977  0.00  0.00     0.002 A 
ENDROOT
BRANCH   3   9
ATOM      9  N   UNL d   1      59.302  -8.859  34.796  0.00  0.00    -0.206 NA
ATOM     10  C   UNL d   1      59.512  -9.446  34.275  0.00  0.00     0.297 C 
ATOM     11  O   UNL d   1      60.293  -9.724  34.247  0.00  0.00    -0.264 OA
BRANCH  10  12
ATOM     12  C   UNL d   1      58.954  -9.786  33.755  0.00  0.00     0.144 C 
BRANCH  12  13
ATOM     13  N   UNL d   1      59.064  -9.793  32.950  0.00  0.00    -0.299 N 
ATOM     14  C   UNL d   1      59.812  -9.806  32.631  0.00  0.00     0.080 A 
ATOM     15  C   UNL d   1      59.918  -9.812  31.813  0.00  0.00     0.019 A 
ATOM     16  C   UNL d   1      59.268  -9.806  31.322  0.00  0.00     0.003 A 
ATOM     17  C   UNL d   1      58.519  -9.793  31.649  0.00  0.00     0.019 A 
ATOM     18  C   UNL d   1      59.350  -9.812  30.460  0.00  0.00     0.000 C 
ATOM     19  C   UNL d   1      58.416  -9.786  32.470  0.00  0.00     0.080 A 
ENDBRANCH  12  13
ENDBRANCH  10  12
ENDBRANCH   3   9
TORSDOF 3
ENDMDL
