MODEL 1
REMARK VINA RESULT:      -1.8      0.000      0.000
REMARK  5 active torsions:
REMARK  status: ('A' for Active; 'I' for Inactive)
REMARK    1  A    between atoms: C_4  and  C_1 
REMARK    2  A    between atoms: C_5  and  C_2 
REMARK    3  A    between atoms: N_6  and  C_4 
REMARK    4  A    between atoms: C_25  and  N_10 
REMARK    5  A    between atoms: C_21  and  C_25 
ROOT
ATOM      1  N   UNL d   1      27.012  16.485 -22.827  0.00  0.00    -0.191 NA
ATOM      2  C   UNL d   1      27.739  16.554 -23.209  0.00  0.00     0.103 C 
ATOM      3  C   UNL d   1      28.464  16.625 -23.592  0.00  0.00     0.097 C 
ENDROOT
BRANCH   3   4
ATOM      4  C   UNL d   1      28.952  15.970 -23.668  0.00  0.00     0.091 C 
BRANCH   4   5
ATOM      5  N   UNL d   1      29.735  16.062 -23.918  0.00  0.00    -0.299 N 
ATOM      6  C   UNL d   1      29.901  16.537 -24.570  0.00  0.00     0.100 A 
ATOM      7  C   UNL d   1      30.681  16.630 -24.823  0.00  0.00     0.100 A 
ATOM      8  N   UNL d   1      31.293  16.248 -24.423  0.00  0.00    -0.291 N 
ATOM      9  C   UNL d   1      31.130  15.770 -23.769  0.00  0.00     0.100 A 
ATOM     10  C   UNL d   1      30.346  15.679 -23.519  0.00  0.00     0.100 A 
BRANCH   8  11
ATOM     11  C   UNL d   1      32.065  16.343 -24.677  0.00  0.00     0.143 C 
ATOM     12  S   UNL d   1      32.462  15.718 -25.038  0.00  0.00    -0.057 SA
BRANCH  11  13
ATOM     13  C   UNL d   1      32.451  17.065 -24.573  0.00  0.00     0.126 A 
ATOM     14  O   UNL d   1      32.369  17.575 -23.931  0.00  0.00    -0.305 OA
ATOM     15  C   UNL d   1      32.856  18.232 -24.054  0.00  0.00     0.101 A 
ATOM     16  C   UNL d   1      33.240  18.124 -24.779  0.00  0.00     0.027 A 
ATOM     17  C   UNL d   1      32.989  17.404 -25.097  0.00  0.00     0.029 A 
BRANCH  15  18
ATOM     18  C   UNL d   1      32.945  18.878 -23.550  0.00  0.00     0.034 A 
ATOM     19  C   UNL d   1      32.934  19.639 -23.862  0.00  0.00     0.060 A 
ATOM     20  C   UNL d   1      33.022  20.290 -23.363  0.00  0.00     0.012 A 
ATOM     21 CL   UNL d   1      32.833  19.752 -24.676  0.00  0.00    -0.082 Cl
ATOM     22  C   UNL d   1      33.123  20.174 -22.546  0.00  0.00     0.012 A 
ATOM     23  C   UNL d   1      33.133  19.400 -22.240  0.00  0.00     0.058 A 
ATOM     24  C   UNL d   1      33.044  18.758 -22.745  0.00  0.00     0.014 A 
ATOM     25 CL   UNL d   1      33.234  19.286 -21.425  0.00  0.00    -0.082 Cl
ENDBRANCH  15  18
ENDBRANCH  11  13
ENDBRANCH   8  11
ENDBRANCH   4   5
ENDBRANCH   3   4
TORSDOF 5
ENDMDL
MODEL 2
REMARK VINA RESULT:      -1.1      2.653      4.783
REMARK  5 active torsions:
REMARK  status: ('A' for Active; 'I' for Inactive)
REMARK    1  A    between atoms: C_4  and  C_1 
REMARK    2  A    between atoms: C_5  and  C_2 
REMARK    3  A    between atoms: N_6  and  C_4 
REMARK    4  A    between atoms: C_25  and  N_10 
REMARK    5  A    between atoms: C_21  and  C_25 
ROOT
ATOM      1  N   UNL d   1      31.924  22.971 -20.570  0.00  0.00    -0.191 NA
ATOM      2  C   UNL d   1      32.334  22.300 -20.819  0.00  0.00     0.103 C 
ATOM      3  C   UNL d   1      32.743  21.629 -21.065  0.00  0.00     0.097 C 
ENDROOT
BRANCH   3   4
ATOM      4  C   UNL d   1      32.802  21.458 -21.865  0.00  0.00     0.091 C 
BRANCH   4   5
ATOM      5  N   UNL d   1      32.801  20.672 -22.123  0.00  0.00    -0.299 N 
ATOM      6  C   UNL d   1      32.605  20.500 -22.904  0.00  0.00     0.100 A 
ATOM      7  C   UNL d   1      32.604  19.717 -23.165  0.00  0.00     0.100 A 
ATOM      8  N   UNL d   1      32.798  19.108 -22.643  0.00  0.00    -0.291 N 
ATOM      9  C   UNL d   1      32.995  19.277 -21.859  0.00  0.00     0.100 A 
ATOM     10  C   UNL d   1      32.996  20.064 -21.602  0.00  0.00     0.100 A 
BRANCH   8  11
ATOM     11  C   UNL d   1      32.796  18.333 -22.906  0.00  0.00     0.143 C 
ATOM     12  S   UNL d   1      33.240  17.761 -22.512  0.00  0.00    -0.057 SA
BRANCH  11  13
ATOM     13  C   UNL d   1      32.348  18.119 -23.566  0.00  0.00     0.126 A 
ATOM     14  O   UNL d   1      31.568  17.857 -23.563  0.00  0.00    -0.305 OA
ATOM     15  C   UNL d   1      31.338  17.704 -24.343  0.00  0.00     0.101 A 
ATOM     16  C   UNL d   1      31.986  17.875 -24.829  0.00  0.00     0.027 A 
ATOM     17  C   UNL d   1      32.608  18.130 -24.348  0.00  0.00     0.029 A 
BRANCH  15  18
ATOM     18  C   UNL d   1      30.602  17.433 -24.594  0.00  0.00     0.034 A 
ATOM     19  C   UNL d   1      30.502  16.634 -24.760  0.00  0.00     0.060 A 
ATOM     20  C   UNL d   1      29.767  16.355 -25.013  0.00  0.00     0.012 A 
ATOM     21 CL   UNL d   1      31.136  16.109 -24.676  0.00  0.00    -0.082 Cl
ATOM     22  C   UNL d   1      29.132  16.884 -25.097  0.00  0.00     0.012 A 
ATOM     23  C   UNL d   1      29.243  17.691 -24.926  0.00  0.00     0.058 A 
ATOM     24  C   UNL d   1      29.979  17.959 -24.675  0.00  0.00     0.014 A 
ATOM     25 CL   UNL d   1      28.608  18.216 -25.010  0.00  0.00    -0.082 Cl
ENDBRANCH  15  18
ENDBRANCH  11  13
ENDBRANCH   8  11
ENDBRANCH   4   5
ENDBRANCH   3   4
TORSDOF 5
ENDMDL
MODEL 3
REMARK VINA RESULT:       0.3      1.471      2.292
REMARK  5 active torsions:
REMARK  status: ('A' for Active; 'I' for Inactive)
REMARK    1  A    between atoms: C_4  and  C_1 
REMARK    2  A    between atoms: C_5  and  C_2 
REMARK    3  A    between atoms: N_6  and  C_4 
REMARK    4  A    between atoms: C_25  and  N_10 
REMARK    5  A    between atoms: C_21  and  C_25 
ROOT
ATOM      1  N   UNL d   1      28.207  15.509 -23.363  0.00  0.00    -0.191 NA
ATOM      2  C   UNL d   1      28.779  16.096 -23.450  0.00  0.00     0.103 C 
ATOM      3  C   UNL d   1      29.350  16.684 -23.534  0.00  0.00     0.097 C 
ENDROOT
BRANCH   3   4
ATOM      4  C   UNL d   1      29.799  16.721 -24.219  0.00  0.00     0.091 C 
BRANCH   4   5
ATOM      5  N   UNL d   1      30.517  17.132 -24.224  0.00  0.00    -0.299 N 
ATOM      6  C   UNL d   1      30.741  17.567 -23.561  0.00  0.00     0.100 A 
ATOM      7  C   UNL d   1      31.456  17.979 -23.563  0.00  0.00     0.100 A 
ATOM      8  N   UNL d   1      31.945  17.955 -24.227  0.00  0.00    -0.291 N 
ATOM      9  C   UNL d   1      31.723  17.520 -24.893  0.00  0.00     0.100 A 
ATOM     10  C   UNL d   1      31.005  17.108 -24.888  0.00  0.00     0.100 A 
BRANCH   8  11
ATOM     11  C   UNL d   1      32.653  18.365 -24.224  0.00  0.00     0.143 C 
ATOM     12  S   UNL d   1      33.200  18.249 -24.830  0.00  0.00    -0.057 SA
BRANCH  11  13
ATOM     13  C   UNL d   1      32.824  18.896 -23.616  0.00  0.00     0.126 A 
ATOM     14  O   UNL d   1      32.682  19.707 -23.621  0.00  0.00    -0.305 OA
ATOM     15  C   UNL d   1      32.939  20.023 -22.901  0.00  0.00     0.101 A 
ATOM     16  C   UNL d   1      33.241  19.398 -22.450  0.00  0.00     0.027 A 
ATOM     17  C   UNL d   1      33.169  18.705 -22.892  0.00  0.00     0.029 A 
BRANCH  15  18
ATOM     18  C   UNL d   1      32.902  20.814 -22.671  0.00  0.00     0.034 A 
ATOM     19  C   UNL d   1      32.752  20.998 -21.884  0.00  0.00     0.060 A 
ATOM     20  C   UNL d   1      32.714  21.788 -21.647  0.00  0.00     0.012 A 
ATOM     21 CL   UNL d   1      32.639  20.395 -21.330  0.00  0.00    -0.082 Cl
ATOM     22  C   UNL d   1      32.827  22.393 -22.205  0.00  0.00     0.012 A 
ATOM     23  C   UNL d   1      32.978  22.195 -23.000  0.00  0.00     0.058 A 
ATOM     24  C   UNL d   1      33.014  21.406 -23.226  0.00  0.00     0.014 A 
ATOM     25 CL   UNL d   1      33.091  22.800 -23.555  0.00  0.00    -0.082 Cl
ENDBRANCH  15  18
ENDBRANCH  11  13
ENDBRANCH   8  11
ENDBRANCH   4   5
ENDBRANCH   3   4
TORSDOF 5
ENDMDL
