MODEL 1
REMARK VINA RESULT:      -2.4      0.000      0.000
REMARK  4 active torsions:
REMARK  status: ('A' for Active; 'I' for Inactive)
REMARK    1  A    between atoms: C_13  and  N_1 
REMARK    2  A    between atoms: N_6  and  C_15 
REMARK    3  A    between atoms: C_14  and  C_13 
REMARK    4  A    between atoms: C_15  and  C_14 
ROOT
ATOM      1  C   UNL d   1      30.415  16.600 -24.316  0.00  0.00     0.087 C 
ENDROOT
BRANCH   1   2
ATOM      2  N   UNL d   1      29.624  16.597 -24.075  0.00  0.00    -0.248 N 
ATOM      3  C   UNL d   1      29.291  16.064 -23.571  0.00  0.00     0.208 A 
ATOM      4  N   UNL d   1      28.516  16.261 -23.485  0.00  0.00    -0.212 NA
ATOM      5  S   UNL d   1      29.544  15.453 -23.185  0.00  0.00    -0.038 SA
ATOM      6  C   UNL d   1      28.372  16.909 -23.932  0.00  0.00     0.162 A 
ATOM      7  C   UNL d   1      29.064  17.114 -24.296  0.00  0.00     0.286 A 
ATOM      8  O   UNL d   1      28.938  17.650 -24.663  0.00  0.00    -0.265 OA
ENDBRANCH   1   2
BRANCH   1   9
ATOM      9  C   UNL d   1      30.931  17.181 -24.035  0.00  0.00     0.038 C 
BRANCH   9  10
ATOM     10  C   UNL d   1      31.726  17.171 -24.258  0.00  0.00     0.083 C 
BRANCH  10  11
ATOM     11  N   UNL d   1      32.236  17.760 -23.991  0.00  0.00    -0.285 N 
ATOM     12  C   UNL d   1      32.451  18.436 -24.406  0.00  0.00     0.183 A 
ATOM     13  N   UNL d   1      32.972  18.872 -23.928  0.00  0.00    -0.222 NA
ATOM     14  C   UNL d   1      33.077  18.465 -23.224  0.00  0.00     0.120 A 
ATOM     15  C   UNL d   1      32.621  17.778 -23.264  0.00  0.00     0.102 A 
ENDBRANCH  10  11
ENDBRANCH   9  10
ENDBRANCH   1   9
TORSDOF 4
ENDMDL
MODEL 2
REMARK VINA RESULT:      -2.3      1.444      3.663
REMARK  4 active torsions:
REMARK  status: ('A' for Active; 'I' for Inactive)
REMARK    1  A    between atoms: C_13  and  N_1 
REMARK    2  A    between atoms: N_6  and  C_15 
REMARK    3  A    between atoms: C_14  and  C_13 
REMARK    4  A    between atoms: C_15  and  C_14 
ROOT
ATOM      1  C   UNL d   1      31.518  16.753 -24.250  0.00  0.00     0.087 C 
ENDROOT
BRANCH   1   2
ATOM      2  N   UNL d   1      32.160  17.001 -23.793  0.00  0.00    -0.248 N 
ATOM      3  C   UNL d   1      32.717  16.518 -23.467  0.00  0.00     0.208 A 
ATOM      4  N   UNL d   1      33.240  16.981 -23.069  0.00  0.00    -0.212 NA
ATOM      5  S   UNL d   1      32.840  15.762 -23.460  0.00  0.00    -0.038 SA
ATOM      6  C   UNL d   1      33.009  17.743 -23.148  0.00  0.00     0.162 A 
ATOM      7  C   UNL d   1      32.337  17.750 -23.599  0.00  0.00     0.286 A 
ATOM      8  O   UNL d   1      32.152  18.382 -23.660  0.00  0.00    -0.265 OA
ENDBRANCH   1   2
BRANCH   1   9
ATOM      9  C   UNL d   1      30.757  16.750 -23.927  0.00  0.00     0.038 C 
BRANCH   9  10
ATOM     10  C   UNL d   1      30.113  16.510 -24.386  0.00  0.00     0.083 C 
BRANCH  10  11
ATOM     11  N   UNL d   1      29.355  16.516 -24.066  0.00  0.00    -0.285 N 
ATOM     12  C   UNL d   1      28.806  17.123 -24.140  0.00  0.00     0.183 A 
ATOM     13  N   UNL d   1      28.119  16.895 -23.732  0.00  0.00    -0.222 NA
ATOM     14  C   UNL d   1      28.246  16.153 -23.410  0.00  0.00     0.120 A 
ATOM     15  C   UNL d   1      29.010  15.918 -23.617  0.00  0.00     0.102 A 
ENDBRANCH  10  11
ENDBRANCH   9  10
ENDBRANCH   1   9
TORSDOF 4
ENDMDL
MODEL 3
REMARK VINA RESULT:      -2.0      1.583      2.428
REMARK  4 active torsions:
REMARK  status: ('A' for Active; 'I' for Inactive)
REMARK    1  A    between atoms: C_13  and  N_1 
REMARK    2  A    between atoms: N_6  and  C_15 
REMARK    3  A    between atoms: C_14  and  C_13 
REMARK    4  A    between atoms: C_15  and  C_14 
ROOT
ATOM      1  C   UNL d   1      32.549  17.684 -23.876  0.00  0.00     0.087 C 
ENDROOT
BRANCH   1   2
ATOM      2  N   UNL d   1      31.839  17.347 -24.132  0.00  0.00    -0.248 N 
ATOM      3  C   UNL d   1      31.532  16.649 -23.872  0.00  0.00     0.208 A 
ATOM      4  N   UNL d   1      30.839  16.528 -24.261  0.00  0.00    -0.212 NA
ATOM      5  S   UNL d   1      31.750  16.116 -23.367  0.00  0.00    -0.038 SA
ATOM      6  C   UNL d   1      30.719  17.145 -24.756  0.00  0.00     0.162 A 
ATOM      7  C   UNL d   1      31.344  17.652 -24.672  0.00  0.00     0.286 A 
ATOM      8  O   UNL d   1      31.238  18.159 -25.084  0.00  0.00    -0.265 OA
ENDBRANCH   1   2
BRANCH   1   9
ATOM      9  C   UNL d   1      32.539  18.351 -23.389  0.00  0.00     0.038 C 
BRANCH   9  10
ATOM     10  C   UNL d   1      33.240  18.762 -23.234  0.00  0.00     0.083 C 
BRANCH  10  11
ATOM     11  N   UNL d   1      33.238  19.395 -22.707  0.00  0.00    -0.285 N 
ATOM     12  C   UNL d   1      33.234  19.341 -21.887  0.00  0.00     0.183 A 
ATOM     13  N   UNL d   1      33.233  20.113 -21.582  0.00  0.00    -0.222 NA
ATOM     14  C   UNL d   1      33.236  20.638 -22.211  0.00  0.00     0.120 A 
ATOM     15  C   UNL d   1      33.239  20.194 -22.907  0.00  0.00     0.102 A 
ENDBRANCH  10  11
ENDBRANCH   9  10
ENDBRANCH   1   9
TORSDOF 4
ENDMDL
MODEL 4
REMARK VINA RESULT:      -2.0      2.771      3.916
REMARK  4 active torsions:
REMARK  status: ('A' for Active; 'I' for Inactive)
REMARK    1  A    between atoms: C_13  and  N_1 
REMARK    2  A    between atoms: N_6  and  C_15 
REMARK    3  A    between atoms: C_14  and  C_13 
REMARK    4  A    between atoms: C_15  and  C_14 
ROOT
ATOM      1  C   UNL d   1      33.195  18.871 -23.114  0.00  0.00     0.087 C 
ENDROOT
BRANCH   1   2
ATOM      2  N   UNL d   1      32.884  18.611 -23.834  0.00  0.00    -0.248 N 
ATOM      3  C   UNL d   1      32.437  17.949 -23.940  0.00  0.00     0.208 A 
ATOM      4  N   UNL d   1      32.251  17.902 -24.720  0.00  0.00    -0.212 NA
ATOM      5  S   UNL d   1      32.173  17.395 -23.480  0.00  0.00    -0.038 SA
ATOM      6  C   UNL d   1      32.579  18.528 -25.094  0.00  0.00     0.162 A 
ATOM      7  C   UNL d   1      32.972  18.967 -24.539  0.00  0.00     0.286 A 
ATOM      8  O   UNL d   1      33.240  19.482 -24.854  0.00  0.00    -0.265 OA
ENDBRANCH   1   2
BRANCH   1   9
ATOM      9  C   UNL d   1      32.973  19.605 -22.808  0.00  0.00     0.038 C 
BRANCH   9  10
ATOM     10  C   UNL d   1      33.222  19.833 -22.054  0.00  0.00     0.083 C 
BRANCH  10  11
ATOM     11  N   UNL d   1      32.988  20.559 -21.744  0.00  0.00    -0.285 N 
ATOM     12  C   UNL d   1      33.239  21.297 -22.002  0.00  0.00     0.183 A 
ATOM     13  N   UNL d   1      32.863  21.871 -21.535  0.00  0.00    -0.222 NA
ATOM     14  C   UNL d   1      32.384  21.488 -20.992  0.00  0.00     0.120 A 
ATOM     15  C   UNL d   1      32.461  20.676 -21.122  0.00  0.00     0.102 A 
ENDBRANCH  10  11
ENDBRANCH   9  10
ENDBRANCH   1   9
TORSDOF 4
ENDMDL
MODEL 5
REMARK VINA RESULT:      -2.0      3.640      5.251
REMARK  4 active torsions:
REMARK  status: ('A' for Active; 'I' for Inactive)
REMARK    1  A    between atoms: C_13  and  N_1 
REMARK    2  A    between atoms: N_6  and  C_15 
REMARK    3  A    between atoms: C_14  and  C_13 
REMARK    4  A    between atoms: C_15  and  C_14 
ROOT
ATOM      1  C   UNL d   1      33.168  20.844 -21.720  0.00  0.00     0.087 C 
ENDROOT
BRANCH   1   2
ATOM      2  N   UNL d   1      32.809  21.585 -21.644  0.00  0.00    -0.248 N 
ATOM      3  C   UNL d   1      32.299  21.800 -21.058  0.00  0.00     0.208 A 
ATOM      4  N   UNL d   1      32.083  22.563 -21.191  0.00  0.00    -0.212 NA
ATOM      5  S   UNL d   1      32.001  21.451 -20.445  0.00  0.00    -0.038 SA
ATOM      6  C   UNL d   1      32.455  22.817 -21.852  0.00  0.00     0.162 A 
ATOM      7  C   UNL d   1      32.905  22.206 -22.130  0.00  0.00     0.286 A 
ATOM      8  O   UNL d   1      33.210  22.422 -22.676  0.00  0.00    -0.265 OA
ENDBRANCH   1   2
BRANCH   1   9
ATOM      9  C   UNL d   1      32.877  20.299 -22.268  0.00  0.00     0.038 C 
BRANCH   9  10
ATOM     10  C   UNL d   1      33.240  19.561 -22.350  0.00  0.00     0.083 C 
BRANCH  10  11
ATOM     11  N   UNL d   1      33.000  19.048 -22.948  0.00  0.00    -0.285 N 
ATOM     12  C   UNL d   1      32.583  18.348 -22.845  0.00  0.00     0.183 A 
ATOM     13  N   UNL d   1      32.460  18.013 -23.595  0.00  0.00    -0.222 NA
ATOM     14  C   UNL d   1      32.800  18.504 -24.155  0.00  0.00     0.120 A 
ATOM     15  C   UNL d   1      33.134  19.144 -23.755  0.00  0.00     0.102 A 
ENDBRANCH  10  11
ENDBRANCH   9  10
ENDBRANCH   1   9
TORSDOF 4
ENDMDL
MODEL 6
REMARK VINA RESULT:      -1.7      1.147      1.339
REMARK  4 active torsions:
REMARK  status: ('A' for Active; 'I' for Inactive)
REMARK    1  A    between atoms: C_13  and  N_1 
REMARK    2  A    between atoms: N_6  and  C_15 
REMARK    3  A    between atoms: C_14  and  C_13 
REMARK    4  A    between atoms: C_15  and  C_14 
ROOT
ATOM      1  C   UNL d   1      30.689  16.410 -24.231  0.00  0.00     0.087 C 
ENDROOT
BRANCH   1   2
ATOM      2  N   UNL d   1      29.912  16.269 -23.987  0.00  0.00    -0.248 N 
ATOM      3  C   UNL d   1      29.249  16.558 -24.343  0.00  0.00     0.208 A 
ATOM      4  N   UNL d   1      28.613  16.288 -23.931  0.00  0.00    -0.212 NA
ATOM      5  S   UNL d   1      29.112  17.005 -24.950  0.00  0.00    -0.038 SA
ATOM      6  C   UNL d   1      28.880  15.837 -23.327  0.00  0.00     0.162 A 
ATOM      7  C   UNL d   1      29.688  15.827 -23.366  0.00  0.00     0.286 A 
ATOM      8  O   UNL d   1      29.901  15.453 -22.864  0.00  0.00    -0.265 OA
ENDBRANCH   1   2
BRANCH   1   9
ATOM      9  C   UNL d   1      31.159  16.952 -23.822  0.00  0.00     0.038 C 
BRANCH   9  10
ATOM     10  C   UNL d   1      31.931  17.105 -24.075  0.00  0.00     0.083 C 
BRANCH  10  11
ATOM     11  N   UNL d   1      32.397  17.648 -23.668  0.00  0.00    -0.285 N 
ATOM     12  C   UNL d   1      32.873  17.485 -23.019  0.00  0.00     0.183 A 
ATOM     13  N   UNL d   1      33.241  18.193 -22.789  0.00  0.00    -0.222 NA
ATOM     14  C   UNL d   1      32.993  18.788 -23.295  0.00  0.00     0.120 A 
ATOM     15  C   UNL d   1      32.471  18.451 -23.839  0.00  0.00     0.102 A 
ENDBRANCH  10  11
ENDBRANCH   9  10
ENDBRANCH   1   9
TORSDOF 4
ENDMDL
MODEL 7
REMARK VINA RESULT:      -1.7      2.501      4.309
REMARK  4 active torsions:
REMARK  status: ('A' for Active; 'I' for Inactive)
REMARK    1  A    between atoms: C_13  and  N_1 
REMARK    2  A    between atoms: N_6  and  C_15 
REMARK    3  A    between atoms: C_14  and  C_13 
REMARK    4  A    between atoms: C_15  and  C_14 
ROOT
ATOM      1  C   UNL d   1      33.239  18.744 -23.456  0.00  0.00     0.087 C 
ENDROOT
BRANCH   1   2
ATOM      2  N   UNL d   1      33.239  19.466 -23.055  0.00  0.00    -0.248 N 
ATOM      3  C   UNL d   1      33.240  20.194 -23.402  0.00  0.00     0.208 A 
ATOM      4  N   UNL d   1      33.240  20.744 -22.815  0.00  0.00    -0.212 NA
ATOM      5  S   UNL d   1      33.241  20.449 -24.124  0.00  0.00    -0.038 SA
ATOM      6  C   UNL d   1      33.239  20.360 -22.113  0.00  0.00     0.162 A 
ATOM      7  C   UNL d   1      33.239  19.566 -22.267  0.00  0.00     0.286 A 
ATOM      8  O   UNL d   1      33.238  19.255 -21.684  0.00  0.00    -0.265 OA
ENDBRANCH   1   2
BRANCH   1   9
ATOM      9  C   UNL d   1      32.526  18.355 -23.609  0.00  0.00     0.038 C 
BRANCH   9  10
ATOM     10  C   UNL d   1      32.529  17.595 -23.932  0.00  0.00     0.083 C 
BRANCH  10  11
ATOM     11  N   UNL d   1      31.826  17.171 -23.994  0.00  0.00    -0.285 N 
ATOM     12  C   UNL d   1      31.180  17.374 -24.460  0.00  0.00     0.183 A 
ATOM     13  N   UNL d   1      30.597  16.793 -24.353  0.00  0.00    -0.222 NA
ATOM     14  C   UNL d   1      30.883  16.236 -23.826  0.00  0.00     0.120 A 
ATOM     15  C   UNL d   1      31.643  16.469 -23.604  0.00  0.00     0.102 A 
ENDBRANCH  10  11
ENDBRANCH   9  10
ENDBRANCH   1   9
TORSDOF 4
ENDMDL
