MODEL 1
REMARK VINA RESULT:       1.1      0.000      0.000
REMARK  6 active torsions:
REMARK  status: ('A' for Active; 'I' for Inactive)
REMARK    1  A    between atoms: C_9  and  N_1 
REMARK    2  A    between atoms: C_2  and  C_3 
REMARK    3  A    between atoms: C_4  and  C_6 
REMARK    4  A    between atoms: C_7  and  C_5 
REMARK       I    between atoms: C_6  and  N_8 
REMARK    5  A    between atoms: N_8  and  N_12 
REMARK    6  A    between atoms: N_12  and  C_17 
ROOT
ATOM      1  C   UNL d   1      31.154  17.446 -24.363  0.00  0.00     0.005 A 
ATOM      2  C   UNL d   1      31.621  18.112 -24.497  0.00  0.00     0.059 A 
ATOM      3  C   UNL d   1      30.368  17.472 -24.609  0.00  0.00     0.000 A 
ATOM      4  C   UNL d   1      31.318  18.770 -24.859  0.00  0.00     0.005 A 
ATOM      5  C   UNL d   1      30.057  18.145 -24.979  0.00  0.00     0.000 A 
ATOM      6  C   UNL d   1      30.539  18.778 -25.095  0.00  0.00     0.000 A 
ENDROOT
BRANCH   2   7
ATOM      7  C   UNL d   1      32.425  18.095 -24.250  0.00  0.00     0.297 C 
ATOM      8  N   UNL d   1      32.686  18.671 -23.721  0.00  0.00    -0.106 NA
ATOM      9  O   UNL d   1      32.940  17.508 -24.534  0.00  0.00    -0.264 OA
BRANCH   8  10
ATOM     10  N   UNL d   1      32.172  19.255 -23.438  0.00  0.00    -0.145 NA
BRANCH  10  11
ATOM     11  C   UNL d   1      32.400  19.733 -22.818  0.00  0.00     0.103 A 
ATOM     12  C   UNL d   1      32.353  20.544 -22.890  0.00  0.00     0.023 A 
ATOM     13  C   UNL d   1      32.583  21.036 -22.265  0.00  0.00     0.025 A 
ATOM     14  C   UNL d   1      32.859  20.703 -21.571  0.00  0.00     0.127 A 
ATOM     15  C   UNL d   1      32.909  19.887 -21.489  0.00  0.00     0.025 A 
ATOM     16  C   UNL d   1      32.679  19.396 -22.115  0.00  0.00     0.023 A 
BRANCH  14  17
ATOM     17  N   UNL d   1      33.085  21.203 -20.953  0.00  0.00    -0.114 N 
ATOM     18  O   UNL d   1      33.235  20.922 -20.208  0.00  0.00    -0.532 OA
ATOM     19  O   UNL d   1      33.166  22.025 -21.092  0.00  0.00    -0.532 OA
ENDBRANCH  14  17
ENDBRANCH  10  11
ENDBRANCH   8  10
ENDBRANCH   2   7
BRANCH   1  20
ATOM     20  C   UNL d   1      31.458  16.788 -24.002  0.00  0.00     0.006 A 
ATOM     21  C   UNL d   1      30.992  16.346 -23.499  0.00  0.00     0.064 A 
ATOM     22  C   UNL d   1      31.302  15.675 -23.130  0.00  0.00     0.006 A 
ATOM     23  C   UNL d   1      32.074  15.453 -23.268  0.00  0.00     0.000 A 
ATOM     24  C   UNL d   1      32.530  15.873 -23.751  0.00  0.00     0.000 A 
ATOM     25  C   UNL d   1      32.237  16.551 -24.132  0.00  0.00     0.000 A 
BRANCH  21  26
ATOM     26  C   UNL d   1      30.200  16.566 -23.351  0.00  0.00     0.211 C 
ATOM     27  O   UNL d   1      30.032  17.247 -22.893  0.00  0.00    -0.644 OA
ATOM     28  O   UNL d   1      29.572  16.117 -23.650  0.00  0.00    -0.644 OA
ENDBRANCH  21  26
ENDBRANCH   1  20
TORSDOF 6
ENDMDL
MODEL 2
REMARK VINA RESULT:       4.0      1.985      3.052
REMARK  6 active torsions:
REMARK  status: ('A' for Active; 'I' for Inactive)
REMARK    1  A    between atoms: C_9  and  N_1 
REMARK    2  A    between atoms: C_2  and  C_3 
REMARK    3  A    between atoms: C_4  and  C_6 
REMARK    4  A    between atoms: C_7  and  C_5 
REMARK       I    between atoms: C_6  and  N_8 
REMARK    5  A    between atoms: N_8  and  N_12 
REMARK    6  A    between atoms: N_12  and  C_17 
ROOT
ATOM      1  C   UNL d   1      30.108  15.808 -23.365  0.00  0.00     0.005 A 
ATOM      2  C   UNL d   1      30.867  15.900 -23.672  0.00  0.00     0.059 A 
ATOM      3  C   UNL d   1      30.037  15.595 -22.572  0.00  0.00     0.000 A 
ATOM      4  C   UNL d   1      31.522  15.784 -23.210  0.00  0.00     0.005 A 
ATOM      5  C   UNL d   1      30.706  15.476 -22.099  0.00  0.00     0.000 A 
ATOM      6  C   UNL d   1      31.434  15.573 -22.429  0.00  0.00     0.000 A 
ENDROOT
BRANCH   2   7
ATOM      7  C   UNL d   1      30.949  16.118 -24.480  0.00  0.00     0.297 C 
ATOM      8  N   UNL d   1      31.393  16.788 -24.663  0.00  0.00    -0.106 NA
ATOM      9  O   UNL d   1      30.590  15.665 -25.077  0.00  0.00    -0.264 OA
BRANCH   8  10
ATOM     10  N   UNL d   1      31.751  17.240 -24.068  0.00  0.00    -0.145 NA
BRANCH  10  11
ATOM     11  C   UNL d   1      31.953  18.017 -24.211  0.00  0.00     0.103 A 
ATOM     12  C   UNL d   1      32.275  18.228 -24.930  0.00  0.00     0.023 A 
ATOM     13  C   UNL d   1      32.482  19.016 -25.082  0.00  0.00     0.025 A 
ATOM     14  C   UNL d   1      32.361  19.582 -24.506  0.00  0.00     0.127 A 
ATOM     15  C   UNL d   1      32.038  19.378 -23.780  0.00  0.00     0.025 A 
ATOM     16  C   UNL d   1      31.830  18.591 -23.628  0.00  0.00     0.023 A 
BRANCH  14  17
ATOM     17  N   UNL d   1      32.572  20.365 -24.669  0.00  0.00    -0.114 N 
ATOM     18  O   UNL d   1      33.234  20.551 -25.097  0.00  0.00    -0.532 OA
ATOM     19  O   UNL d   1      32.092  20.991 -24.387  0.00  0.00    -0.532 OA
ENDBRANCH  14  17
ENDBRANCH  10  11
ENDBRANCH   8  10
ENDBRANCH   2   7
BRANCH   1  20
ATOM     20  C   UNL d   1      29.453  15.925 -23.826  0.00  0.00     0.006 A 
ATOM     21  C   UNL d   1      28.760  16.195 -23.492  0.00  0.00     0.064 A 
ATOM     22  C   UNL d   1      28.091  16.313 -23.964  0.00  0.00     0.006 A 
ATOM     23  C   UNL d   1      28.124  16.160 -24.765  0.00  0.00     0.000 A 
ATOM     24  C   UNL d   1      28.788  15.900 -25.094  0.00  0.00     0.000 A 
ATOM     25  C   UNL d   1      29.471  15.774 -24.638  0.00  0.00     0.000 A 
BRANCH  21  26
ATOM     26  C   UNL d   1      28.716  16.354 -22.674  0.00  0.00     0.211 C 
ATOM     27  O   UNL d   1      28.763  17.144 -22.397  0.00  0.00    -0.644 OA
ATOM     28  O   UNL d   1      28.628  15.740 -22.126  0.00  0.00    -0.644 OA
ENDBRANCH  21  26
ENDBRANCH   1  20
TORSDOF 6
ENDMDL
