MODEL 1
REMARK VINA RESULT:      29.0      0.000      0.000
REMARK  3 active torsions:
REMARK  status: ('A' for Active; 'I' for Inactive)
REMARK    1  A    between atoms: C_7  and  C_1 
REMARK    2  A    between atoms: C_6  and  C_3 
REMARK    3  A    between atoms: O_15  and  C_7 
ROOT
ATOM      1  C   UNL d   1     -49.778  25.769  33.513  0.00  0.00     0.167 A 
ATOM      2  C   UNL d   1     -50.228  25.074  33.544  0.00  0.00     0.047 A 
ATOM      3  C   UNL d   1     -51.017  25.278  33.417  0.00  0.00     0.105 A 
ATOM      4  N   UNL d   1     -51.058  26.099  33.306  0.00  0.00    -0.148 NA
ATOM      5  N   UNL d   1     -50.290  26.393  33.367  0.00  0.00    -0.143 NA
ENDROOT
BRANCH   3   6
ATOM      6  C   UNL d   1     -51.659  24.753  33.402  0.00  0.00     0.030 A 
ATOM      7  C   UNL d   1     -52.429  25.044  33.466  0.00  0.00     0.060 A 
ATOM      8  C   UNL d   1     -53.069  24.528  33.452  0.00  0.00     0.023 A 
ATOM      9 CL   UNL d   1     -52.553  25.857  33.545  0.00  0.00    -0.082 Cl
ATOM     10  C   UNL d   1     -52.939  23.708  33.372  0.00  0.00     0.059 A 
ATOM     11  C   UNL d   1     -52.163  23.425  33.308  0.00  0.00     0.011 A 
ATOM     12 CL   UNL d   1     -53.579  23.192  33.358  0.00  0.00    -0.082 Cl
ATOM     13  C   UNL d   1     -51.526  23.947  33.323  0.00  0.00     0.003 A 
ENDBRANCH   3   6
BRANCH   1  14
ATOM     14  C   UNL d   1     -48.962  25.819  33.611  0.00  0.00     0.316 C 
ATOM     15  O   UNL d   1     -48.626  26.529  33.864  0.00  0.00    -0.257 OA
BRANCH  14  16
ATOM     16  O   UNL d   1     -48.483  25.164  33.458  0.00  0.00    -0.294 OA
ATOM     17  C   UNL d   1     -48.172  24.720  34.076  0.00  0.00     0.185 C 
ENDBRANCH  14  16
ENDBRANCH   1  14
TORSDOF 3
ENDMDL
