MODEL 1
REMARK VINA RESULT:      -2.4      0.000      0.000
REMARK  4 active torsions:
REMARK  status: ('A' for Active; 'I' for Inactive)
REMARK    1  A    between atoms: C_5  and  N_1 
REMARK    2  A    between atoms: C_7  and  C_5 
REMARK    3  A    between atoms: O_10  and  C_8 
REMARK    4  A    between atoms: C_14  and  O_10 
ROOT
ATOM      1  C   UNL d   1      31.131  17.041 -23.520  0.00  0.00     0.086 C 
ENDROOT
BRANCH   1   2
ATOM      2  N   UNL d   1      30.485  16.543 -23.632  0.00  0.00    -0.268 N 
ATOM      3  C   UNL d   1      30.361  15.811 -23.259  0.00  0.00     0.296 A 
ATOM      4  S   UNL d   1      29.645  15.507 -23.537  0.00  0.00    -0.025 SA
ATOM      5  O   UNL d   1      30.862  15.453 -22.712  0.00  0.00    -0.259 OA
ATOM      6  C   UNL d   1      29.327  16.042 -24.075  0.00  0.00     0.050 A 
ATOM      7  C   UNL d   1      29.845  16.686 -24.136  0.00  0.00     0.073 A 
ATOM      8  C   UNL d   1      28.627  16.038 -24.527  0.00  0.00     0.008 A 
ATOM      9  C   UNL d   1      29.672  17.313 -24.637  0.00  0.00     0.018 A 
ATOM     10  C   UNL d   1      28.978  17.303 -25.082  0.00  0.00     0.002 A 
ATOM     11  C   UNL d   1      28.460  16.672 -25.028  0.00  0.00     0.001 A 
ENDBRANCH   1   2
BRANCH   1  12
ATOM     12  C   UNL d   1      31.838  16.890 -23.923  0.00  0.00     0.040 A 
ATOM     13  C   UNL d   1      32.407  17.479 -23.962  0.00  0.00     0.101 A 
ATOM     14  C   UNL d   1      33.106  17.332 -24.360  0.00  0.00     0.025 A 
ATOM     15  C   UNL d   1      33.241  16.595 -24.722  0.00  0.00     0.002 A 
ATOM     16  C   UNL d   1      32.661  16.011 -24.676  0.00  0.00     0.000 A 
ATOM     17  C   UNL d   1      31.954  16.161 -24.273  0.00  0.00     0.004 A 
BRANCH  13  18
ATOM     18  O   UNL d   1      32.246  18.197 -23.594  0.00  0.00    -0.307 OA
BRANCH  18  19
ATOM     19  C   UNL d   1      32.868  18.699 -23.375  0.00  0.00     0.100 C 
ATOM     20  C   UNL d   1      33.212  18.621 -22.626  0.00  0.00     0.027 C 
ATOM     21  C   UNL d   1      33.142  19.270 -23.895  0.00  0.00     0.027 C 
ENDBRANCH  18  19
ENDBRANCH  13  18
ENDBRANCH   1  12
TORSDOF 4
ENDMDL
MODEL 2
REMARK VINA RESULT:      -1.6      1.470      3.678
REMARK  4 active torsions:
REMARK  status: ('A' for Active; 'I' for Inactive)
REMARK    1  A    between atoms: C_5  and  N_1 
REMARK    2  A    between atoms: C_7  and  C_5 
REMARK    3  A    between atoms: O_10  and  C_8 
REMARK    4  A    between atoms: C_14  and  O_10 
ROOT
ATOM      1  C   UNL d   1      30.627  16.713 -24.440  0.00  0.00     0.086 C 
ENDROOT
BRANCH   1   2
ATOM      2  N   UNL d   1      31.434  16.799 -24.571  0.00  0.00    -0.268 N 
ATOM      3  C   UNL d   1      31.945  16.218 -24.874  0.00  0.00     0.296 A 
ATOM      4  S   UNL d   1      32.702  16.545 -24.912  0.00  0.00    -0.025 SA
ATOM      5  O   UNL d   1      31.735  15.453 -25.097  0.00  0.00    -0.259 OA
ATOM      6  C   UNL d   1      32.665  17.320 -24.636  0.00  0.00     0.050 A 
ATOM      7  C   UNL d   1      31.879  17.480 -24.424  0.00  0.00     0.073 A 
ATOM      8  C   UNL d   1      33.241  17.914 -24.545  0.00  0.00     0.008 A 
ATOM      9  C   UNL d   1      31.671  18.216 -24.128  0.00  0.00     0.018 A 
ATOM     10  C   UNL d   1      32.246  18.802 -24.040  0.00  0.00     0.002 A 
ATOM     11  C   UNL d   1      33.024  18.652 -24.247  0.00  0.00     0.001 A 
ENDBRANCH   1   2
BRANCH   1  12
ATOM     12  C   UNL d   1      30.363  16.290 -23.780  0.00  0.00     0.040 A 
ATOM     13  C   UNL d   1      29.561  16.286 -23.604  0.00  0.00     0.101 A 
ATOM     14  C   UNL d   1      29.298  15.869 -22.952  0.00  0.00     0.025 A 
ATOM     15  C   UNL d   1      29.835  15.453 -22.470  0.00  0.00     0.002 A 
ATOM     16  C   UNL d   1      30.638  15.464 -22.657  0.00  0.00     0.000 A 
ATOM     17  C   UNL d   1      30.902  15.887 -23.317  0.00  0.00     0.004 A 
BRANCH  13  18
ATOM     18  O   UNL d   1      29.055  16.706 -24.098  0.00  0.00    -0.307 OA
BRANCH  18  19
ATOM     19  C   UNL d   1      28.235  16.633 -24.009  0.00  0.00     0.100 C 
ATOM     20  C   UNL d   1      27.835  16.015 -24.388  0.00  0.00     0.027 C 
ATOM     21  C   UNL d   1      27.819  17.169 -23.549  0.00  0.00     0.027 C 
ENDBRANCH  18  19
ENDBRANCH  13  18
ENDBRANCH   1  12
TORSDOF 4
ENDMDL
MODEL 3
REMARK VINA RESULT:      -1.6      1.063      1.500
REMARK  4 active torsions:
REMARK  status: ('A' for Active; 'I' for Inactive)
REMARK    1  A    between atoms: C_5  and  N_1 
REMARK    2  A    between atoms: C_7  and  C_5 
REMARK    3  A    between atoms: O_10  and  C_8 
REMARK    4  A    between atoms: C_14  and  O_10 
ROOT
ATOM      1  C   UNL d   1      30.693  17.362 -23.711  0.00  0.00     0.086 C 
ENDROOT
BRANCH   1   2
ATOM      2  N   UNL d   1      29.943  17.145 -23.971  0.00  0.00    -0.268 N 
ATOM      3  C   UNL d   1      29.528  17.484 -24.606  0.00  0.00     0.296 A 
ATOM      4  S   UNL d   1      28.802  17.095 -24.667  0.00  0.00    -0.025 SA
ATOM      5  O   UNL d   1      29.793  18.097 -25.089  0.00  0.00    -0.259 OA
ATOM      6  C   UNL d   1      28.764  16.522 -24.078  0.00  0.00     0.050 A 
ATOM      7  C   UNL d   1      29.470  16.550 -23.644  0.00  0.00     0.073 A 
ATOM      8  C   UNL d   1      28.179  15.967 -23.868  0.00  0.00     0.008 A 
ATOM      9  C   UNL d   1      29.592  16.037 -23.016  0.00  0.00     0.018 A 
ATOM     10  C   UNL d   1      29.010  15.490 -22.812  0.00  0.00     0.002 A 
ATOM     11  C   UNL d   1      28.309  15.455 -23.235  0.00  0.00     0.001 A 
ENDBRANCH   1   2
BRANCH   1  12
ATOM     12  C   UNL d   1      31.356  17.159 -24.162  0.00  0.00     0.040 A 
ATOM     13  C   UNL d   1      32.029  17.626 -24.113  0.00  0.00     0.101 A 
ATOM     14  C   UNL d   1      32.686  17.426 -24.557  0.00  0.00     0.025 A 
ATOM     15  C   UNL d   1      32.675  16.758 -25.054  0.00  0.00     0.002 A 
ATOM     16  C   UNL d   1      31.993  16.297 -25.095  0.00  0.00     0.000 A 
ATOM     17  C   UNL d   1      31.329  16.500 -24.644  0.00  0.00     0.004 A 
BRANCH  13  18
ATOM     18  O   UNL d   1      32.011  18.279 -23.613  0.00  0.00    -0.307 OA
BRANCH  18  19
ATOM     19  C   UNL d   1      32.686  18.490 -23.183  0.00  0.00     0.100 C 
ATOM     20  C   UNL d   1      32.978  17.977 -22.601  0.00  0.00     0.027 C 
ATOM     21  C   UNL d   1      33.064  19.202 -23.329  0.00  0.00     0.027 C 
ENDBRANCH  18  19
ENDBRANCH  13  18
ENDBRANCH   1  12
TORSDOF 4
ENDMDL
MODEL 4
REMARK VINA RESULT:      -1.1      1.281      3.843
REMARK  4 active torsions:
REMARK  status: ('A' for Active; 'I' for Inactive)
REMARK    1  A    between atoms: C_5  and  N_1 
REMARK    2  A    between atoms: C_7  and  C_5 
REMARK    3  A    between atoms: O_10  and  C_8 
REMARK    4  A    between atoms: C_14  and  O_10 
ROOT
ATOM      1  C   UNL d   1      30.385  16.773 -23.643  0.00  0.00     0.086 C 
ENDROOT
BRANCH   1   2
ATOM      2  N   UNL d   1      31.162  16.695 -23.903  0.00  0.00    -0.268 N 
ATOM      3  C   UNL d   1      31.445  16.118 -24.430  0.00  0.00     0.296 A 
ATOM      4  S   UNL d   1      32.253  16.250 -24.534  0.00  0.00    -0.025 SA
ATOM      5  O   UNL d   1      31.000  15.523 -24.785  0.00  0.00    -0.259 OA
ATOM      6  C   UNL d   1      32.472  16.899 -24.078  0.00  0.00     0.050 A 
ATOM      7  C   UNL d   1      31.797  17.178 -23.686  0.00  0.00     0.073 A 
ATOM      8  C   UNL d   1      33.200  17.286 -23.960  0.00  0.00     0.008 A 
ATOM      9  C   UNL d   1      31.845  17.827 -23.187  0.00  0.00     0.018 A 
ATOM     10  C   UNL d   1      32.569  18.206 -23.074  0.00  0.00     0.002 A 
ATOM     11  C   UNL d   1      33.241  17.938 -23.457  0.00  0.00     0.001 A 
ENDBRANCH   1   2
BRANCH   1  12
ATOM     12  C   UNL d   1      29.825  17.138 -24.131  0.00  0.00     0.040 A 
ATOM     13  C   UNL d   1      29.052  16.866 -24.122  0.00  0.00     0.101 A 
ATOM     14  C   UNL d   1      28.497  17.225 -24.603  0.00  0.00     0.025 A 
ATOM     15  C   UNL d   1      28.711  17.860 -25.097  0.00  0.00     0.002 A 
ATOM     16  C   UNL d   1      29.492  18.125 -25.097  0.00  0.00     0.000 A 
ATOM     17  C   UNL d   1      30.052  17.760 -24.609  0.00  0.00     0.004 A 
BRANCH  13  18
ATOM     18  O   UNL d   1      28.869  16.237 -23.624  0.00  0.00    -0.307 OA
BRANCH  18  19
ATOM     19  C   UNL d   1      28.081  16.091 -23.413  0.00  0.00     0.100 C 
ATOM     20  C   UNL d   1      27.712  16.572 -22.850  0.00  0.00     0.027 C 
ATOM     21  C   UNL d   1      27.668  15.473 -23.759  0.00  0.00     0.027 C 
ENDBRANCH  18  19
ENDBRANCH  13  18
ENDBRANCH   1  12
TORSDOF 4
ENDMDL
MODEL 5
REMARK VINA RESULT:      -0.9      1.769      3.886
REMARK  4 active torsions:
REMARK  status: ('A' for Active; 'I' for Inactive)
REMARK    1  A    between atoms: C_5  and  N_1 
REMARK    2  A    between atoms: C_7  and  C_5 
REMARK    3  A    between atoms: O_10  and  C_8 
REMARK    4  A    between atoms: C_14  and  O_10 
ROOT
ATOM      1  C   UNL d   1      31.786  17.926 -23.692  0.00  0.00     0.086 C 
ENDROOT
BRANCH   1   2
ATOM      2  N   UNL d   1      32.309  18.558 -23.756  0.00  0.00    -0.268 N 
ATOM      3  C   UNL d   1      32.803  18.719 -24.404  0.00  0.00     0.296 A 
ATOM      4  S   UNL d   1      33.230  19.404 -24.229  0.00  0.00    -0.025 SA
ATOM      5  O   UNL d   1      32.858  18.276 -25.097  0.00  0.00    -0.259 OA
ATOM      6  C   UNL d   1      33.005  19.666 -23.482  0.00  0.00     0.050 A 
ATOM      7  C   UNL d   1      32.434  19.144 -23.186  0.00  0.00     0.073 A 
ATOM      8  C   UNL d   1      33.241  20.317 -23.018  0.00  0.00     0.008 A 
ATOM      9  C   UNL d   1      32.103  19.265 -22.445  0.00  0.00     0.018 A 
ATOM     10  C   UNL d   1      32.341  19.912 -21.990  0.00  0.00     0.002 A 
ATOM     11  C   UNL d   1      32.905  20.433 -22.275  0.00  0.00     0.001 A 
ENDBRANCH   1   2
BRANCH   1  12
ATOM     12  C   UNL d   1      32.076  17.170 -23.521  0.00  0.00     0.040 A 
ATOM     13  C   UNL d   1      31.581  16.523 -23.614  0.00  0.00     0.101 A 
ATOM     14  C   UNL d   1      31.866  15.775 -23.446  0.00  0.00     0.025 A 
ATOM     15  C   UNL d   1      32.650  15.669 -23.184  0.00  0.00     0.002 A 
ATOM     16  C   UNL d   1      33.137  16.328 -23.094  0.00  0.00     0.000 A 
ATOM     17  C   UNL d   1      32.847  17.084 -23.265  0.00  0.00     0.004 A 
BRANCH  13  18
ATOM     18  O   UNL d   1      30.813  16.658 -23.875  0.00  0.00    -0.307 OA
BRANCH  18  19
ATOM     19  C   UNL d   1      30.296  16.021 -23.991  0.00  0.00     0.100 C 
ATOM     20  C   UNL d   1      30.152  15.745 -24.758  0.00  0.00     0.027 C 
ATOM     21  C   UNL d   1      29.929  15.664 -23.350  0.00  0.00     0.027 C 
ENDBRANCH  18  19
ENDBRANCH  13  18
ENDBRANCH   1  12
TORSDOF 4
ENDMDL
