MODEL 1
REMARK VINA RESULT:      27.9      0.000      0.000
REMARK  2 active torsions:
REMARK  status: ('A' for Active; 'I' for Inactive)
REMARK       I    between atoms: N_3  and  C_1 
REMARK    1  A    between atoms: O_4  and  C_1 
REMARK    2  A    between atoms: C_6  and  O_4 
ROOT
ATOM      1  C   UNL d   1      57.482  49.543  50.722  0.00  0.00     0.105 A 
ATOM      2  C   UNL d   1      56.784  49.524  50.287  0.00  0.00     0.030 A 
ATOM      3  C   UNL d   1      58.218  49.635  50.331  0.00  0.00     0.122 A 
ATOM      4  N   UNL d   1      57.461  49.472  51.549  0.00  0.00    -0.242 NA
ATOM      5  C   UNL d   1      56.807  49.595  49.463  0.00  0.00     0.059 A 
ATOM      6  C   UNL d   1      58.239  49.705  49.513  0.00  0.00     0.027 A 
ATOM      7  C   UNL d   1      57.542  49.686  49.072  0.00  0.00     0.013 A 
ATOM      8 CL   UNL d   1      56.105  49.576  49.020  0.00  0.00    -0.082 Cl
ATOM      9  C   UNL d   1      56.060  49.434  50.672  0.00  0.00     0.004 A 
ATOM     10  C   UNL d   1      56.737  49.382  51.934  0.00  0.00     0.099 A 
ATOM     11  C   UNL d   1      56.034  49.363  51.491  0.00  0.00     0.021 A 
ENDROOT
BRANCH   3  12
ATOM     12  O   UNL d   1      58.927  49.654  50.770  0.00  0.00    -0.257 OA
BRANCH  12  13
ATOM     13  C   UNL d   1      59.667  49.639  50.382  0.00  0.00     0.378 C 
ATOM     14  N   UNL d   1      60.363  49.657  50.808  0.00  0.00    -0.247 N 
ATOM     15  C   UNL d   1      60.341  49.690  51.634  0.00  0.00     0.112 A 
ATOM     16  C   UNL d   1      61.091  49.641  50.420  0.00  0.00     0.112 A 
ATOM     17  C   UNL d   1      61.047  49.707  52.056  0.00  0.00     0.142 A 
ATOM     18  O   UNL d   1      61.771  49.692  51.672  0.00  0.00    -0.300 OA
ATOM     19  C   UNL d   1      61.793  49.659  50.847  0.00  0.00     0.142 A 
ATOM     20  O   UNL d   1      59.690  49.606  49.546  0.00  0.00    -0.237 OA
ENDBRANCH  12  13
ENDBRANCH   3  12
TORSDOF 2
ENDMDL
