MODEL 1
REMARK VINA RESULT:      37.7      0.000      0.000
REMARK  3 active torsions:
REMARK  status: ('A' for Active; 'I' for Inactive)
REMARK    1  A    between atoms: C_6  and  C_2 
REMARK    2  A    between atoms: O_7  and  C_6 
REMARK    3  A    between atoms: C_8  and  O_7 
ROOT
ATOM      1  N   UNL d   1     -52.050  25.461  33.311  0.00  0.00    -0.224 NA
ATOM      2  C   UNL d   1     -51.241  25.303  33.313  0.00  0.00     0.188 A 
ATOM      3  N   UNL d   1     -51.145  24.462  33.314  0.00  0.00    -0.224 NA
ATOM      4  C   UNL d   1     -52.453  24.722  33.312  0.00  0.00     0.101 A 
ATOM      5  C   UNL d   1     -51.899  24.110  33.314  0.00  0.00     0.101 A 
ATOM      6  C   UNL d   1     -53.260  24.548  33.311  0.00  0.00     0.021 A 
ATOM      7  C   UNL d   1     -52.153  23.325  33.315  0.00  0.00     0.021 A 
ATOM      8  C   UNL d   1     -53.471  23.801  33.312  0.00  0.00     0.002 A 
ATOM      9  C   UNL d   1     -52.917  23.189  33.314  0.00  0.00     0.002 A 
ENDROOT
BRANCH   2  10
ATOM     10  C   UNL d   1     -51.003  26.069  33.312  0.00  0.00     0.161 C 
BRANCH  10  11
ATOM     11  O   UNL d   1     -50.347  26.291  33.756  0.00  0.00    -0.302 OA
BRANCH  11  12
ATOM     12  C   UNL d   1     -49.872  26.879  34.087  0.00  0.00     0.100 A 
ATOM     13  C   UNL d   1     -49.692  26.860  34.892  0.00  0.00     0.026 A 
ATOM     14  C   UNL d   1     -49.220  27.444  35.221  0.00  0.00     0.013 A 
ATOM     15  C   UNL d   1     -48.924  28.055  34.750  0.00  0.00     0.058 A 
ATOM     16  C   UNL d   1     -49.106  28.073  33.941  0.00  0.00     0.013 A 
ATOM     17 CL   UNL d   1     -48.452  28.640  35.079  0.00  0.00    -0.082 Cl
ATOM     18  C   UNL d   1     -49.578  27.489  33.611  0.00  0.00     0.026 A 
ENDBRANCH  11  12
ENDBRANCH  10  11
ENDBRANCH   2  10
TORSDOF 3
ENDMDL
MODEL 2
REMARK VINA RESULT:      38.7      0.468      1.113
REMARK  3 active torsions:
REMARK  status: ('A' for Active; 'I' for Inactive)
REMARK    1  A    between atoms: C_6  and  C_2 
REMARK    2  A    between atoms: O_7  and  C_6 
REMARK    3  A    between atoms: C_8  and  O_7 
ROOT
ATOM      1  N   UNL d   1     -50.799  24.627  33.335  0.00  0.00    -0.224 NA
ATOM      2  C   UNL d   1     -50.957  25.435  33.317  0.00  0.00     0.188 A 
ATOM      3  N   UNL d   1     -51.799  25.530  33.309  0.00  0.00    -0.224 NA
ATOM      4  C   UNL d   1     -51.538  24.223  33.339  0.00  0.00     0.101 A 
ATOM      5  C   UNL d   1     -52.150  24.777  33.323  0.00  0.00     0.101 A 
ATOM      6  C   UNL d   1     -51.712  23.416  33.355  0.00  0.00     0.021 A 
ATOM      7  C   UNL d   1     -52.935  24.523  33.323  0.00  0.00     0.021 A 
ATOM      8  C   UNL d   1     -52.458  23.205  33.355  0.00  0.00     0.002 A 
ATOM      9  C   UNL d   1     -53.071  23.758  33.338  0.00  0.00     0.002 A 
ENDROOT
BRANCH   2  10
ATOM     10  C   UNL d   1     -50.191  25.673  33.317  0.00  0.00     0.161 C 
BRANCH  10  11
ATOM     11  O   UNL d   1     -50.014  26.474  33.385  0.00  0.00    -0.302 OA
BRANCH  11  12
ATOM     12  C   UNL d   1     -49.665  27.097  33.797  0.00  0.00     0.100 A 
ATOM     13  C   UNL d   1     -49.819  27.877  33.574  0.00  0.00     0.026 A 
ATOM     14  C   UNL d   1     -49.472  28.497  33.984  0.00  0.00     0.013 A 
ATOM     15  C   UNL d   1     -48.967  28.345  34.621  0.00  0.00     0.058 A 
ATOM     16  C   UNL d   1     -48.814  27.560  34.844  0.00  0.00     0.013 A 
ATOM     17 CL   UNL d   1     -48.620  28.965  35.031  0.00  0.00    -0.082 Cl
ATOM     18  C   UNL d   1     -49.161  26.941  34.434  0.00  0.00     0.026 A 
ENDBRANCH  11  12
ENDBRANCH  10  11
ENDBRANCH   2  10
TORSDOF 3
ENDMDL
