MODEL 1
REMARK VINA RESULT:      32.4      0.000      0.000
REMARK  1 active torsions:
REMARK  status: ('A' for Active; 'I' for Inactive)
REMARK    1  A    between atoms: C_3  and  C_1 
REMARK       I    between atoms: N_2  and  C_3 
ROOT
ATOM      1  N   UNL d   1      46.251 -18.122  43.577  0.00  0.00    -0.303 N 
ATOM      2  C   UNL d   1      46.122 -17.612  44.237  0.00  0.00     0.244 C 
ATOM      3  C   UNL d   1      46.284 -17.746  42.825  0.00  0.00     0.088 A 
ATOM      4  C   UNL d   1      46.462 -19.572  43.221  0.00  0.00     0.037 A 
ATOM      5  C   UNL d   1      46.332 -18.943  43.751  0.00  0.00     0.051 A 
ATOM      6  C   UNL d   1      46.415 -18.714  42.679  0.00  0.00     0.028 A 
ATOM      7  C   UNL d   1      46.519 -18.890  41.877  0.00  0.00     0.002 A 
ATOM      8  C   UNL d   1      46.404 -18.097  42.073  0.00  0.00     0.023 A 
ATOM      9  O   UNL d   1      46.086 -17.924  44.954  0.00  0.00    -0.271 OA
ATOM     10  C   UNL d   1      46.543 -19.537  42.400  0.00  0.00     0.006 A 
ATOM     11  C   UNL d   1      46.509 -20.316  43.633  0.00  0.00     0.006 C 
ATOM     12  C   UNL d   1      46.646 -19.635  41.510  0.00  0.00     0.000 C 
ATOM     13  C   UNL d   1      46.551 -18.513  41.125  0.00  0.00     0.000 C 
ENDROOT
BRANCH   2  14
ATOM     14  C   UNL d   1      46.041 -16.835  44.118  0.00  0.00     0.111 A 
ATOM     15  C   UNL d   1      45.443 -15.504  44.289  0.00  0.00     0.025 A 
ATOM     16  C   UNL d   1      45.943 -16.051  44.011  0.00  0.00     0.074 A 
ATOM     17  C   UNL d   1      44.821 -15.483  44.791  0.00  0.00     0.002 C 
ATOM     18  C   UNL d   1      45.519 -14.751  44.048  0.00  0.00     0.002 C 
ATOM     19  C   UNL d   1      46.010 -15.308  43.780  0.00  0.00     0.012 C 
ATOM     20  C   UNL d   1      46.556 -16.060  43.514  0.00  0.00    -0.023 A 
ATOM     21  C   UNL d   1      45.456 -16.438  44.501  0.00  0.00     0.172 A 
ATOM     22  C   UNL d   1      46.647 -16.835  43.624  0.00  0.00    -0.018 A 
ATOM     23  C   UNL d   1      45.548 -17.222  44.612  0.00  0.00     0.024 A 
ATOM     24  O   UNL d   1      44.839 -16.235  44.955  0.00  0.00    -0.291 OA
ENDBRANCH   2  14
TORSDOF 1
ENDMDL
MODEL 2
REMARK VINA RESULT:      33.4      7.073      7.866
REMARK  1 active torsions:
REMARK  status: ('A' for Active; 'I' for Inactive)
REMARK    1  A    between atoms: C_3  and  C_1 
REMARK       I    between atoms: N_2  and  C_3 
ROOT
ATOM      1  N   UNL d   1      43.516 -15.799  36.735  0.00  0.00    -0.303 N 
ATOM      2  C   UNL d   1      44.337 -15.939  36.869  0.00  0.00     0.244 C 
ATOM      3  C   UNL d   1      43.273 -14.993  36.761  0.00  0.00     0.088 A 
ATOM      4  C   UNL d   1      42.220 -16.514  36.444  0.00  0.00     0.037 A 
ATOM      5  C   UNL d   1      43.039 -16.480  36.592  0.00  0.00     0.051 A 
ATOM      6  C   UNL d   1      42.472 -15.538  36.572  0.00  0.00     0.028 A 
ATOM      7  C   UNL d   1      41.795 -15.068  36.492  0.00  0.00     0.002 A 
ATOM      8  C   UNL d   1      42.505 -14.677  36.651  0.00  0.00     0.023 A 
ATOM      9  O   UNL d   1      44.601 -16.677  36.853  0.00  0.00    -0.271 OA
ATOM     10  C   UNL d   1      41.684 -15.888  36.403  0.00  0.00     0.006 A 
ATOM     11  C   UNL d   1      41.962 -17.317  36.330  0.00  0.00     0.006 C 
ATOM     12  C   UNL d   1      41.003 -15.300  36.332  0.00  0.00     0.000 C 
ATOM     13  C   UNL d   1      41.554 -14.262  36.518  0.00  0.00     0.000 C 
ENDROOT
BRANCH   2  14
ATOM     14  C   UNL d   1      44.819 -15.329  37.006  0.00  0.00     0.111 A 
ATOM     15  C   UNL d   1      46.066 -14.556  36.926  0.00  0.00     0.025 A 
ATOM     16  C   UNL d   1      45.321 -14.722  37.133  0.00  0.00     0.074 A 
ATOM     17  C   UNL d   1      46.646 -14.909  36.505  0.00  0.00     0.002 C 
ATOM     18  C   UNL d   1      46.391 -13.873  37.165  0.00  0.00     0.002 C 
ATOM     19  C   UNL d   1      45.649 -14.052  37.364  0.00  0.00     0.012 C 
ATOM     20  C   UNL d   1      44.754 -14.365  37.552  0.00  0.00    -0.023 A 
ATOM     21  C   UNL d   1      45.563 -15.341  36.703  0.00  0.00     0.172 A 
ATOM     22  C   UNL d   1      44.264 -14.968  37.421  0.00  0.00    -0.018 A 
ATOM     23  C   UNL d   1      45.067 -15.951  36.571  0.00  0.00     0.024 A 
ATOM     24  O   UNL d   1      46.235 -15.535  36.330  0.00  0.00    -0.291 OA
ENDBRANCH   2  14
TORSDOF 1
ENDMDL
