MODEL 1
REMARK VINA RESULT:       3.7      0.000      0.000
REMARK  8 active torsions:
REMARK  status: ('A' for Active; 'I' for Inactive)
REMARK    1  A    between atoms: C_22  and  N_1 
REMARK       I    between atoms: N_8  and  C_12 
REMARK    2  A    between atoms: C_12  and  C_27 
REMARK    3  A    between atoms: C_23  and  N_13 
REMARK    4  A    between atoms: C_30  and  C_22 
REMARK    5  A    between atoms: C_26  and  C_23 
REMARK    6  A    between atoms: C_27  and  C_31 
REMARK    7  A    between atoms: C_32  and  C_30 
REMARK    8  A    between atoms: C_31  and  C_32 
ROOT
ATOM      1  C   UNL d   1      59.531  -8.334  29.238  0.00  0.00     0.002 C 
ENDROOT
BRANCH   1   2
ATOM      2  C   UNL d   1      60.080  -8.844  29.594  0.00  0.00     0.005 C 
BRANCH   2   3
ATOM      3  C   UNL d   1      59.830  -9.389  30.169  0.00  0.00     0.061 C 
BRANCH   3   4
ATOM      4  C   UNL d   1      60.343  -9.593  30.792  0.00  0.00     0.265 C 
ATOM      5  N   UNL d   1      60.069  -9.601  31.579  0.00  0.00    -0.269 N 
ATOM      6  C   UNL d   1      60.584  -9.805  32.189  0.00  0.00     0.102 A 
ATOM      7  C   UNL d   1      59.288  -9.407  31.749  0.00  0.00     0.102 A 
ATOM      8  C   UNL d   1      60.315  -9.814  32.973  0.00  0.00     0.100 A 
ATOM      9  N   UNL d   1      59.533  -9.620  33.143  0.00  0.00    -0.300 N 
ATOM     10  C   UNL d   1      59.019  -9.417  32.533  0.00  0.00     0.100 A 
ATOM     11  O   UNL d   1      61.131  -9.789  30.632  0.00  0.00    -0.267 OA
BRANCH   9  12
ATOM     12  C   UNL d   1      59.265  -9.629  33.923  0.00  0.00     0.080 C 
BRANCH  12  13
ATOM     13  C   UNL d   1      59.580  -9.105  34.474  0.00  0.00     0.018 A 
ATOM     14  C   UNL d   1      60.329  -9.244  34.789  0.00  0.00     0.002 A 
ATOM     15  C   UNL d   1      60.650  -8.718  35.345  0.00  0.00     0.000 A 
ATOM     16  C   UNL d   1      60.218  -8.056  35.582  0.00  0.00     0.000 A 
ATOM     17  C   UNL d   1      59.464  -7.920  35.262  0.00  0.00     0.000 A 
ATOM     18  C   UNL d   1      59.148  -8.444  34.711  0.00  0.00     0.002 A 
ENDBRANCH  12  13
ENDBRANCH   9  12
ENDBRANCH   3   4
ENDBRANCH   2   3
ENDBRANCH   1   2
BRANCH   1  19
ATOM     19  C   UNL d   1      59.753  -7.863  28.597  0.00  0.00     0.019 C 
BRANCH  19  20
ATOM     20  C   UNL d   1      59.376  -7.143  28.456  0.00  0.00     0.085 C 
BRANCH  20  21
ATOM     21  N   UNL d   1      59.813  -6.441  28.456  0.00  0.00    -0.249 N 
ATOM     22  C   UNL d   1      59.425  -5.706  28.457  0.00  0.00     0.268 A 
ATOM     23  C   UNL d   1      59.862  -5.009  28.457  0.00  0.00     0.076 A 
ATOM     24  O   UNL d   1      58.601  -5.678  28.456  0.00  0.00    -0.267 OA
ATOM     25  C   UNL d   1      59.474  -4.282  28.457  0.00  0.00     0.033 A 
ATOM     26  C   UNL d   1      60.687  -5.037  28.457  0.00  0.00     0.090 A 
ATOM     27  C   UNL d   1      59.911  -3.581  28.457  0.00  0.00     0.119 A 
ATOM     28  O   UNL d   1      59.683  -2.788  28.458  0.00  0.00    -0.300 OA
ATOM     29  C   UNL d   1      60.735  -3.609  28.458  0.00  0.00     0.121 A 
ATOM     30  C   UNL d   1      60.366  -2.332  28.458  0.00  0.00     0.304 A 
ATOM     31  O   UNL d   1      61.012  -2.834  28.458  0.00  0.00    -0.299 OA
ATOM     32  C   UNL d   1      61.123  -4.338  28.458  0.00  0.00     0.046 A 
ATOM     33  N   UNL d   1      61.074  -5.762  28.457  0.00  0.00    -0.218 NA
ATOM     34  C   UNL d   1      60.638  -6.469  28.457  0.00  0.00     0.208 A 
ATOM     35  S   UNL d   1      61.033  -7.200  28.457  0.00  0.00    -0.038 SA
ENDBRANCH  20  21
ENDBRANCH  19  20
ENDBRANCH   1  19
TORSDOF 8
ENDMDL
MODEL 2
REMARK VINA RESULT:       5.0      5.101      8.204
REMARK  8 active torsions:
REMARK  status: ('A' for Active; 'I' for Inactive)
REMARK    1  A    between atoms: C_22  and  N_1 
REMARK       I    between atoms: N_8  and  C_12 
REMARK    2  A    between atoms: C_12  and  C_27 
REMARK    3  A    between atoms: C_23  and  N_13 
REMARK    4  A    between atoms: C_30  and  C_22 
REMARK    5  A    between atoms: C_26  and  C_23 
REMARK    6  A    between atoms: C_27  and  C_31 
REMARK    7  A    between atoms: C_32  and  C_30 
REMARK    8  A    between atoms: C_31  and  C_32 
ROOT
ATOM      1  C   UNL d   1      58.207   0.413  29.362  0.00  0.00     0.002 C 
ENDROOT
BRANCH   1   2
ATOM      2  C   UNL d   1      58.369  -0.176  28.801  0.00  0.00     0.005 C 
BRANCH   2   3
ATOM      3  C   UNL d   1      58.683  -0.906  29.043  0.00  0.00     0.061 C 
BRANCH   3   4
ATOM      4  C   UNL d   1      59.501  -0.976  29.179  0.00  0.00     0.265 C 
ATOM      5  N   UNL d   1      59.899  -1.685  28.996  0.00  0.00    -0.269 N 
ATOM      6  C   UNL d   1      60.709  -1.747  29.133  0.00  0.00     0.102 A 
ATOM      7  C   UNL d   1      59.488  -2.323  28.678  0.00  0.00     0.102 A 
ATOM      8  C   UNL d   1      61.109  -2.450  28.953  0.00  0.00     0.100 A 
ATOM      9  N   UNL d   1      60.697  -3.088  28.635  0.00  0.00    -0.300 N 
ATOM     10  C   UNL d   1      59.888  -3.027  28.498  0.00  0.00     0.100 A 
ATOM     11  O   UNL d   1      59.924  -0.341  29.497  0.00  0.00    -0.267 OA
BRANCH   9  12
ATOM     12  C   UNL d   1      61.095  -3.788  28.455  0.00  0.00     0.080 C 
BRANCH  12  13
ATOM     13  C   UNL d   1      60.703  -4.510  28.505  0.00  0.00     0.018 A 
ATOM     14  C   UNL d   1      59.881  -4.534  28.455  0.00  0.00     0.002 A 
ATOM     15  C   UNL d   1      59.482  -5.261  28.505  0.00  0.00     0.000 A 
ATOM     16  C   UNL d   1      59.911  -5.959  28.603  0.00  0.00     0.000 A 
ATOM     17  C   UNL d   1      60.738  -5.930  28.653  0.00  0.00     0.000 A 
ATOM     18  C   UNL d   1      61.132  -5.208  28.603  0.00  0.00     0.002 A 
ENDBRANCH  12  13
ENDBRANCH   9  12
ENDBRANCH   3   4
ENDBRANCH   2   3
ENDBRANCH   1   2
BRANCH   1  19
ATOM     19  C   UNL d   1      57.734   0.248  30.018  0.00  0.00     0.019 C 
BRANCH  19  20
ATOM     20  C   UNL d   1      57.872   0.621  30.739  0.00  0.00     0.085 C 
BRANCH  20  21
ATOM     21  N   UNL d   1      57.295   0.601  31.333  0.00  0.00    -0.249 N 
ATOM     22  C   UNL d   1      57.519   0.551  32.132  0.00  0.00     0.268 A 
ATOM     23  C   UNL d   1      56.943   0.531  32.720  0.00  0.00     0.076 A 
ATOM     24  O   UNL d   1      58.318   0.522  32.333  0.00  0.00    -0.267 OA
ATOM     25  C   UNL d   1      57.169   0.482  33.511  0.00  0.00     0.033 A 
ATOM     26  C   UNL d   1      56.144   0.560  32.519  0.00  0.00     0.090 A 
ATOM     27  C   UNL d   1      56.592   0.461  34.104  0.00  0.00     0.119 A 
ATOM     28  O   UNL d   1      56.647   0.414  34.925  0.00  0.00    -0.300 OA
ATOM     29  C   UNL d   1      55.793   0.490  33.902  0.00  0.00     0.121 A 
ATOM     30  C   UNL d   1      55.883   0.414  35.226  0.00  0.00     0.304 A 
ATOM     31  O   UNL d   1      55.358   0.461  34.600  0.00  0.00    -0.299 OA
ATOM     32  C   UNL d   1      55.569   0.540  33.108  0.00  0.00     0.046 A 
ATOM     33  N   UNL d   1      55.920   0.609  31.729  0.00  0.00    -0.218 NA
ATOM     34  C   UNL d   1      56.496   0.630  31.131  0.00  0.00     0.208 A 
ATOM     35  S   UNL d   1      56.265   0.680  30.335  0.00  0.00    -0.038 SA
ENDBRANCH  20  21
ENDBRANCH  19  20
ENDBRANCH   1  19
TORSDOF 8
ENDMDL
MODEL 3
REMARK VINA RESULT:       6.4      3.507      6.833
REMARK  8 active torsions:
REMARK  status: ('A' for Active; 'I' for Inactive)
REMARK    1  A    between atoms: C_22  and  N_1 
REMARK       I    between atoms: N_8  and  C_12 
REMARK    2  A    between atoms: C_12  and  C_27 
REMARK    3  A    between atoms: C_23  and  N_13 
REMARK    4  A    between atoms: C_30  and  C_22 
REMARK    5  A    between atoms: C_26  and  C_23 
REMARK    6  A    between atoms: C_27  and  C_31 
REMARK    7  A    between atoms: C_32  and  C_30 
REMARK    8  A    between atoms: C_31  and  C_32 
ROOT
ATOM      1  C   UNL d   1      60.114  -5.123  28.959  0.00  0.00     0.002 C 
ENDROOT
BRANCH   1   2
ATOM      2  C   UNL d   1      59.558  -4.526  28.809  0.00  0.00     0.005 C 
BRANCH   2   3
ATOM      3  C   UNL d   1      59.801  -3.804  28.481  0.00  0.00     0.061 C 
BRANCH   3   4
ATOM      4  C   UNL d   1      60.170  -3.236  28.966  0.00  0.00     0.265 C 
ATOM      5  N   UNL d   1      59.837  -2.477  29.055  0.00  0.00    -0.269 N 
ATOM      6  C   UNL d   1      60.208  -1.921  29.537  0.00  0.00     0.102 A 
ATOM      7  C   UNL d   1      59.139  -2.280  28.665  0.00  0.00     0.102 A 
ATOM      8  C   UNL d   1      59.879  -1.166  29.628  0.00  0.00     0.100 A 
ATOM      9  N   UNL d   1      59.181  -0.970  29.237  0.00  0.00    -0.300 N 
ATOM     10  C   UNL d   1      58.811  -1.525  28.756  0.00  0.00     0.100 A 
ATOM     11  O   UNL d   1      60.871  -3.423  29.362  0.00  0.00    -0.267 OA
BRANCH   9  12
ATOM     12  C   UNL d   1      58.854  -0.218  29.328  0.00  0.00     0.080 C 
BRANCH  12  13
ATOM     13  C   UNL d   1      58.395  -0.044  29.988  0.00  0.00     0.018 A 
ATOM     14  C   UNL d   1      58.722   0.378  30.615  0.00  0.00     0.002 A 
ATOM     15  C   UNL d   1      58.262   0.555  31.283  0.00  0.00     0.000 A 
ATOM     16  C   UNL d   1      57.476   0.307  31.317  0.00  0.00     0.000 A 
ATOM     17  C   UNL d   1      57.150  -0.118  30.684  0.00  0.00     0.000 A 
ATOM     18  C   UNL d   1      57.609  -0.292  30.022  0.00  0.00     0.002 A 
ENDBRANCH  12  13
ENDBRANCH   9  12
ENDBRANCH   3   4
ENDBRANCH   2   3
ENDBRANCH   1   2
BRANCH   1  19
ATOM     19  C   UNL d   1      60.126  -5.809  28.499  0.00  0.00     0.019 C 
BRANCH  19  20
ATOM     20  C   UNL d   1      60.377  -6.525  28.821  0.00  0.00     0.085 C 
BRANCH  20  21
ATOM     21  N   UNL d   1      59.914  -7.205  28.730  0.00  0.00    -0.249 N 
ATOM     22  C   UNL d   1      59.087  -7.159  28.791  0.00  0.00     0.268 A 
ATOM     23  C   UNL d   1      58.628  -7.836  28.700  0.00  0.00     0.076 A 
ATOM     24  O   UNL d   1      58.727  -6.432  28.943  0.00  0.00    -0.267 OA
ATOM     25  C   UNL d   1      57.808  -7.786  28.761  0.00  0.00     0.033 A 
ATOM     26  C   UNL d   1      58.988  -8.562  28.548  0.00  0.00     0.090 A 
ATOM     27  C   UNL d   1      57.345  -8.465  28.670  0.00  0.00     0.119 A 
ATOM     28  O   UNL d   1      56.530  -8.586  28.700  0.00  0.00    -0.300 OA
ATOM     29  C   UNL d   1      57.706  -9.192  28.518  0.00  0.00     0.121 A 
ATOM     30  C   UNL d   1      56.392  -9.384  28.567  0.00  0.00     0.304 A 
ATOM     31  O   UNL d   1      57.111  -9.757  28.455  0.00  0.00    -0.299 OA
ATOM     32  C   UNL d   1      58.528  -9.239  28.457  0.00  0.00     0.046 A 
ATOM     33  N   UNL d   1      59.807  -8.611  28.486  0.00  0.00    -0.218 NA
ATOM     34  C   UNL d   1      60.274  -7.931  28.578  0.00  0.00     0.208 A 
ATOM     35  S   UNL d   1      61.101  -7.985  28.515  0.00  0.00    -0.038 SA
ENDBRANCH  20  21
ENDBRANCH  19  20
ENDBRANCH   1  19
TORSDOF 8
ENDMDL
