MODEL 1
REMARK VINA RESULT:      -8.2      0.000      0.000
REMARK  2 active torsions:
REMARK  status: ('A' for Active; 'I' for Inactive)
REMARK       I    between atoms: N_3  and  C_1 
REMARK    1  A    between atoms: O_4  and  C_1 
REMARK    2  A    between atoms: C_6  and  O_4 
ROOT
ATOM      1  C   UNL d   1     -49.355  13.771  22.758  0.00  0.00     0.105 A 
ATOM      2  C   UNL d   1     -50.049  13.871  22.328  0.00  0.00     0.030 A 
ATOM      3  C   UNL d   1     -48.961  13.032  22.751  0.00  0.00     0.122 A 
ATOM      4  N   UNL d   1     -49.042  14.401  23.199  0.00  0.00    -0.242 NA
ATOM      5  C   UNL d   1     -50.359  13.243  21.889  0.00  0.00     0.059 A 
ATOM      6  C   UNL d   1     -49.269  12.409  22.315  0.00  0.00     0.027 A 
ATOM      7  C   UNL d   1     -49.965  12.504  21.883  0.00  0.00     0.013 A 
ATOM      8 CL   UNL d   1     -51.060  13.340  21.454  0.00  0.00    -0.082 Cl
ATOM      9  C   UNL d   1     -50.438  14.599  22.335  0.00  0.00     0.004 A 
ATOM     10  C   UNL d   1     -49.430  15.129  23.205  0.00  0.00     0.099 A 
ATOM     11  C   UNL d   1     -50.132  15.227  22.770  0.00  0.00     0.021 A 
ENDROOT
BRANCH   3  12
ATOM     12  O   UNL d   1     -48.256  12.928  23.186  0.00  0.00    -0.257 OA
BRANCH  12  13
ATOM     13  C   UNL d   1     -47.998  12.162  23.399  0.00  0.00     0.378 C 
ATOM     14  N   UNL d   1     -47.201  11.986  23.442  0.00  0.00    -0.247 N 
ATOM     15  C   UNL d   1     -46.640  12.569  23.274  0.00  0.00     0.112 A 
ATOM     16  C   UNL d   1     -46.952  11.229  23.654  0.00  0.00     0.112 A 
ATOM     17  C   UNL d   1     -45.840  12.384  23.320  0.00  0.00     0.142 A 
ATOM     18  O   UNL d   1     -45.591  11.632  23.529  0.00  0.00    -0.300 OA
ATOM     19  C   UNL d   1     -46.151  11.049  23.698  0.00  0.00     0.142 A 
ATOM     20  O   UNL d   1     -48.566  11.572  23.570  0.00  0.00    -0.237 OA
ENDBRANCH  12  13
ENDBRANCH   3  12
TORSDOF 2
ENDMDL
MODEL 2
REMARK VINA RESULT:      -7.9      1.285      2.011
REMARK  2 active torsions:
REMARK  status: ('A' for Active; 'I' for Inactive)
REMARK       I    between atoms: N_3  and  C_1 
REMARK    1  A    between atoms: O_4  and  C_1 
REMARK    2  A    between atoms: C_6  and  O_4 
ROOT
ATOM      1  C   UNL d   1     -49.634  13.564  23.268  0.00  0.00     0.105 A 
ATOM      2  C   UNL d   1     -50.347  13.965  23.174  0.00  0.00     0.030 A 
ATOM      3  C   UNL d   1     -48.908  13.972  23.177  0.00  0.00     0.122 A 
ATOM      4  N   UNL d   1     -49.632  12.754  23.453  0.00  0.00    -0.242 NA
ATOM      5  C   UNL d   1     -50.347  14.771  22.990  0.00  0.00     0.059 A 
ATOM      6  C   UNL d   1     -48.910  14.772  22.994  0.00  0.00     0.027 A 
ATOM      7  C   UNL d   1     -49.621  15.179  22.899  0.00  0.00     0.013 A 
ATOM      8 CL   UNL d   1     -51.064  15.179  22.895  0.00  0.00    -0.082 Cl
ATOM      9  C   UNL d   1     -51.062  13.563  23.264  0.00  0.00     0.004 A 
ATOM     10  C   UNL d   1     -50.347  12.353  23.543  0.00  0.00     0.099 A 
ATOM     11  C   UNL d   1     -51.064  12.760  23.447  0.00  0.00     0.021 A 
ENDROOT
BRANCH   3  12
ATOM     12  O   UNL d   1     -48.184  13.568  23.271  0.00  0.00    -0.257 OA
BRANCH  12  13
ATOM     13  C   UNL d   1     -47.488  13.853  22.908  0.00  0.00     0.378 C 
ATOM     14  N   UNL d   1     -46.806  13.403  22.899  0.00  0.00    -0.247 N 
ATOM     15  C   UNL d   1     -46.800  12.657  23.253  0.00  0.00     0.112 A 
ATOM     16  C   UNL d   1     -46.121  13.689  22.539  0.00  0.00     0.112 A 
ATOM     17  C   UNL d   1     -46.109  12.209  23.241  0.00  0.00     0.142 A 
ATOM     18  O   UNL d   1     -45.428  12.493  22.883  0.00  0.00    -0.300 OA
ATOM     19  C   UNL d   1     -45.434  13.239  22.529  0.00  0.00     0.142 A 
ATOM     20  O   UNL d   1     -47.495  14.609  22.549  0.00  0.00    -0.237 OA
ENDBRANCH  12  13
ENDBRANCH   3  12
TORSDOF 2
ENDMDL
MODEL 3
REMARK VINA RESULT:      -5.8      9.392     10.069
REMARK  2 active torsions:
REMARK  status: ('A' for Active; 'I' for Inactive)
REMARK       I    between atoms: N_3  and  C_1 
REMARK    1  A    between atoms: O_4  and  C_1 
REMARK    2  A    between atoms: C_6  and  O_4 
ROOT
ATOM      1  C   UNL d   1     -39.604  14.275  18.435  0.00  0.00     0.105 A 
ATOM      2  C   UNL d   1     -39.953  14.454  17.712  0.00  0.00     0.030 A 
ATOM      3  C   UNL d   1     -39.887  14.635  19.137  0.00  0.00     0.122 A 
ATOM      4  N   UNL d   1     -38.972  13.738  18.472  0.00  0.00    -0.242 NA
ATOM      5  C   UNL d   1     -40.583  14.989  17.676  0.00  0.00     0.059 A 
ATOM      6  C   UNL d   1     -40.512  15.165  19.101  0.00  0.00     0.027 A 
ATOM      7  C   UNL d   1     -40.865  15.348  18.379  0.00  0.00     0.013 A 
ATOM      8 CL   UNL d   1     -40.938  15.172  16.948  0.00  0.00    -0.082 Cl
ATOM      9  C   UNL d   1     -39.675  14.100  17.020  0.00  0.00     0.004 A 
ATOM     10  C   UNL d   1     -38.694  13.384  17.781  0.00  0.00     0.099 A 
ATOM     11  C   UNL d   1     -39.048  13.567  17.052  0.00  0.00     0.021 A 
ENDROOT
BRANCH   3  12
ATOM     12  O   UNL d   1     -39.534  14.455  19.872  0.00  0.00    -0.257 OA
BRANCH  12  13
ATOM     13  C   UNL d   1     -39.452  15.043  20.459  0.00  0.00     0.378 C 
ATOM     14  N   UNL d   1     -39.299  14.841  21.236  0.00  0.00    -0.247 N 
ATOM     15  C   UNL d   1     -39.223  14.047  21.448  0.00  0.00     0.112 A 
ATOM     16  C   UNL d   1     -39.219  15.427  21.811  0.00  0.00     0.112 A 
ATOM     17  C   UNL d   1     -39.068  13.851  22.232  0.00  0.00     0.142 A 
ATOM     18  O   UNL d   1     -38.988  14.432  22.805  0.00  0.00    -0.300 OA
ATOM     19  C   UNL d   1     -39.064  15.226  22.593  0.00  0.00     0.142 A 
ATOM     20  O   UNL d   1     -39.530  15.849  20.244  0.00  0.00    -0.237 OA
ENDBRANCH  12  13
ENDBRANCH   3  12
TORSDOF 2
ENDMDL
MODEL 4
REMARK VINA RESULT:      -5.7      9.146     10.474
REMARK  2 active torsions:
REMARK  status: ('A' for Active; 'I' for Inactive)
REMARK       I    between atoms: N_3  and  C_1 
REMARK    1  A    between atoms: O_4  and  C_1 
REMARK    2  A    between atoms: C_6  and  O_4 
ROOT
ATOM      1  C   UNL d   1     -39.719  14.742  20.078  0.00  0.00     0.105 A 
ATOM      2  C   UNL d   1     -40.207  15.066  20.656  0.00  0.00     0.030 A 
ATOM      3  C   UNL d   1     -39.830  14.946  19.273  0.00  0.00     0.122 A 
ATOM      4  N   UNL d   1     -39.115  14.213  20.289  0.00  0.00    -0.242 NA
ATOM      5  C   UNL d   1     -40.807  15.593  20.443  0.00  0.00     0.059 A 
ATOM      6  C   UNL d   1     -40.426  15.470  19.063  0.00  0.00     0.027 A 
ATOM      7  C   UNL d   1     -40.918  15.797  19.638  0.00  0.00     0.013 A 
ATOM      8 CL   UNL d   1     -41.302  15.922  21.024  0.00  0.00    -0.082 Cl
ATOM      9  C   UNL d   1     -40.098  14.865  21.448  0.00  0.00     0.004 A 
ATOM     10  C   UNL d   1     -39.006  14.012  21.082  0.00  0.00     0.099 A 
ATOM     11  C   UNL d   1     -39.501  14.340  21.663  0.00  0.00     0.021 A 
ENDROOT
BRANCH   3  12
ATOM     12  O   UNL d   1     -39.336  14.619  18.685  0.00  0.00    -0.257 OA
BRANCH  12  13
ATOM     13  C   UNL d   1     -39.136  15.061  18.004  0.00  0.00     0.378 C 
ATOM     14  N   UNL d   1     -38.848  14.691  17.335  0.00  0.00    -0.247 N 
ATOM     15  C   UNL d   1     -38.752  13.871  17.326  0.00  0.00     0.112 A 
ATOM     16  C   UNL d   1     -38.652  15.133  16.666  0.00  0.00     0.112 A 
ATOM     17  C   UNL d   1     -38.461  13.506  16.648  0.00  0.00     0.142 A 
ATOM     18  O   UNL d   1     -38.266  13.943  15.983  0.00  0.00    -0.300 OA
ATOM     19  C   UNL d   1     -38.362  14.763  15.992  0.00  0.00     0.142 A 
ATOM     20  O   UNL d   1     -39.234  15.892  18.014  0.00  0.00    -0.237 OA
ENDBRANCH  12  13
ENDBRANCH   3  12
TORSDOF 2
ENDMDL
MODEL 5
REMARK VINA RESULT:      -5.4      9.551     10.421
REMARK  2 active torsions:
REMARK  status: ('A' for Active; 'I' for Inactive)
REMARK       I    between atoms: N_3  and  C_1 
REMARK    1  A    between atoms: O_4  and  C_1 
REMARK    2  A    between atoms: C_6  and  O_4 
ROOT
ATOM      1  C   UNL d   1     -39.110  14.633  20.637  0.00  0.00     0.105 A 
ATOM      2  C   UNL d   1     -39.061  14.729  21.452  0.00  0.00     0.030 A 
ATOM      3  C   UNL d   1     -39.539  15.186  20.175  0.00  0.00     0.122 A 
ATOM      4  N   UNL d   1     -38.736  13.990  20.268  0.00  0.00    -0.242 NA
ATOM      5  C   UNL d   1     -39.435  15.370  21.818  0.00  0.00     0.059 A 
ATOM      6  C   UNL d   1     -39.909  15.821  20.538  0.00  0.00     0.027 A 
ATOM      7  C   UNL d   1     -39.863  15.922  21.356  0.00  0.00     0.013 A 
ATOM      8 CL   UNL d   1     -39.388  15.470  22.641  0.00  0.00    -0.082 Cl
ATOM      9  C   UNL d   1     -38.639  14.185  21.907  0.00  0.00     0.004 A 
ATOM     10  C   UNL d   1     -38.314  13.447  20.723  0.00  0.00     0.099 A 
ATOM     11  C   UNL d   1     -38.266  13.546  21.547  0.00  0.00     0.021 A 
ENDROOT
BRANCH   3  12
ATOM     12  O   UNL d   1     -39.590  15.091  19.347  0.00  0.00    -0.257 OA
BRANCH  12  13
ATOM     13  C   UNL d   1     -40.279  15.321  18.935  0.00  0.00     0.378 C 
ATOM     14  N   UNL d   1     -40.257  15.467  18.132  0.00  0.00    -0.247 N 
ATOM     15  C   UNL d   1     -39.547  15.388  17.717  0.00  0.00     0.112 A 
ATOM     16  C   UNL d   1     -40.941  15.693  17.730  0.00  0.00     0.112 A 
ATOM     17  C   UNL d   1     -39.533  15.537  16.908  0.00  0.00     0.142 A 
ATOM     18  O   UNL d   1     -40.212  15.762  16.507  0.00  0.00    -0.300 OA
ATOM     19  C   UNL d   1     -40.922  15.841  16.922  0.00  0.00     0.142 A 
ATOM     20  O   UNL d   1     -40.999  15.401  19.355  0.00  0.00    -0.237 OA
ENDBRANCH  12  13
ENDBRANCH   3  12
TORSDOF 2
ENDMDL
