MODEL 1
REMARK VINA RESULT:      46.7      0.000      0.000
REMARK  10 active torsions:
REMARK  status: ('A' for Active; 'I' for Inactive)
REMARK    1  A    between atoms: C_18  and  N_1 
REMARK    2  A    between atoms: S_7  and  C_2 
REMARK       I    between atoms: C_6  and  N_14 
REMARK    3  A    between atoms: C_9  and  C_6 
REMARK    4  A    between atoms: C_15  and  S_7 
REMARK    5  A    between atoms: C_8  and  C_15 
REMARK       I    between atoms: N_10  and  C_8 
REMARK    6  A    between atoms: C_19  and  N_10 
REMARK    7  A    between atoms: N_14  and  C_25 
REMARK    8  A    between atoms: C_25  and  C_18 
REMARK    9  A    between atoms: C_23  and  C_19 
REMARK   10  A    between atoms: O_27  and  C_20 
ROOT
ATOM      1  N   UNL d   1      13.039  13.758  -4.164  0.00  0.00    -0.302 N 
ATOM      2  C   UNL d   1      13.358  12.596  -3.565  0.00  0.00     0.049 A 
ATOM      3  C   UNL d   1      13.174  13.393  -3.426  0.00  0.00     0.087 A 
ATOM      4  C   UNL d   1      13.337  12.467  -4.387  0.00  0.00     0.024 A 
ATOM      5  C   UNL d   1      13.139  13.185  -4.755  0.00  0.00     0.065 A 
ATOM      6  C   UNL d   1      13.470  11.792  -4.850  0.00  0.00     0.002 A 
ATOM      7  C   UNL d   1      13.076  13.228  -5.577  0.00  0.00     0.018 A 
ATOM      8  C   UNL d   1      13.407  11.836  -5.667  0.00  0.00     0.000 A 
ATOM      9  C   UNL d   1      13.210  12.554  -6.034  0.00  0.00     0.002 A 
ENDROOT
BRANCH   1  10
ATOM     10  C   UNL d   1      12.839  14.550  -4.282  0.00  0.00     0.101 C 
BRANCH  10  11
ATOM     11  C   UNL d   1      13.423  15.129  -4.253  0.00  0.00     0.121 C 
BRANCH  11  12
ATOM     12  N   UNL d   1      13.750  15.349  -3.528  0.00  0.00    -0.205 NA
ATOM     13  C   UNL d   1      14.278  15.982  -3.485  0.00  0.00     0.279 C 
ATOM     14  O   UNL d   1      14.479  16.396  -4.172  0.00  0.00    -0.265 OA
BRANCH  13  15
ATOM     15  C   UNL d   1      14.605  16.201  -2.761  0.00  0.00     0.058 A 
ATOM     16  C   UNL d   1      14.831  16.996  -2.626  0.00  0.00     0.007 A 
ATOM     17  C   UNL d   1      15.157  17.214  -1.902  0.00  0.00     0.024 A 
ATOM     18  C   UNL d   1      15.256  16.637  -1.317  0.00  0.00     0.094 A 
ATOM     19  C   UNL d   1      15.035  15.856  -1.447  0.00  0.00     0.024 A 
ATOM     20  C   UNL d   1      14.710  15.642  -2.170  0.00  0.00     0.007 A 
BRANCH  18  21
ATOM     21  O   UNL d   1      15.587  16.847  -0.577  0.00  0.00    -0.328 OA
ATOM     22  C   UNL d   1      15.794  16.274  -0.020  0.00  0.00     0.181 C 
ENDBRANCH  18  21
ENDBRANCH  13  15
ENDBRANCH  11  12
ENDBRANCH  10  11
ENDBRANCH   1  10
BRANCH   2  23
ATOM     23  S   UNL d   1      13.533  12.026  -2.993  0.00  0.00    -0.080 SA
BRANCH  23  24
ATOM     24  C   UNL d   1      13.029  11.937  -2.340  0.00  0.00     0.098 C 
BRANCH  24  25
ATOM     25  C   UNL d   1      13.347  11.881  -1.582  0.00  0.00     0.286 C 
ATOM     26  N   UNL d   1      14.162  11.924  -1.469  0.00  0.00    -0.204 NA
ATOM     27  O   UNL d   1      12.849  11.780  -0.933  0.00  0.00    -0.265 OA
BRANCH  26  28
ATOM     28  C   UNL d   1      14.480  11.867  -0.706  0.00  0.00     0.127 C 
BRANCH  28  29
ATOM     29  C   UNL d   1      15.102  12.339  -0.489  0.00  0.00     0.119 A 
ATOM     30  O   UNL d   1      15.902  12.169  -0.555  0.00  0.00    -0.304 OA
ATOM     31  C   UNL d   1      16.339  12.807  -0.266  0.00  0.00     0.123 A 
ATOM     32  C   UNL d   1      15.805  13.384  -0.015  0.00  0.00     0.029 A 
ATOM     33  C   UNL d   1      15.052  13.099  -0.151  0.00  0.00     0.028 A 
ENDBRANCH  28  29
ENDBRANCH  26  28
ENDBRANCH  24  25
ENDBRANCH  23  24
ENDBRANCH   2  23
TORSDOF 10
ENDMDL
