MODEL 1
REMARK VINA RESULT:      -2.2      0.000      0.000
REMARK  9 active torsions:
REMARK  status: ('A' for Active; 'I' for Inactive)
REMARK    1  A    between atoms: C_17  and  N_1 
REMARK    2  A    between atoms: S_10  and  C_2 
REMARK    3  A    between atoms: N_8  and  C_9 
REMARK    4  A    between atoms: C_19  and  S_10 
REMARK    5  A    between atoms: C_11  and  C_19 
REMARK       I    between atoms: N_13  and  C_11 
REMARK    6  A    between atoms: C_20  and  N_13 
REMARK    7  A    between atoms: C_28  and  C_17 
REMARK    8  A    between atoms: C_23  and  C_20 
REMARK    9  A    between atoms: C_29  and  C_28 
ROOT
ATOM      1  N   UNL d   1      58.400   0.658  31.622  0.00  0.00    -0.253 N 
ATOM      2  C   UNL d   1      57.877   0.635  30.984  0.00  0.00     0.182 A 
ATOM      3  C   UNL d   1      58.104   0.658  32.398  0.00  0.00     0.268 A 
ATOM      4  C   UNL d   1      57.291   0.635  32.531  0.00  0.00     0.076 A 
ATOM      5  N   UNL d   1      57.059   0.612  31.122  0.00  0.00    -0.222 NA
ATOM      6  C   UNL d   1      56.768   0.612  31.893  0.00  0.00     0.088 A 
ATOM      7  C   UNL d   1      57.002   0.636  33.301  0.00  0.00     0.024 A 
ATOM      8  C   UNL d   1      56.189   0.613  33.434  0.00  0.00     0.065 A 
ATOM      9  O   UNL d   1      58.626   0.681  33.037  0.00  0.00    -0.267 OA
ATOM     10  C   UNL d   1      55.957   0.589  32.025  0.00  0.00     0.021 A 
ATOM     11  C   UNL d   1      55.666   0.589  32.796  0.00  0.00     0.019 A 
ENDROOT
BRANCH   2  12
ATOM     12  S   UNL d   1      58.168   0.635  30.208  0.00  0.00    -0.044 SA
BRANCH  12  13
ATOM     13  C   UNL d   1      57.975   0.012  29.688  0.00  0.00     0.101 C 
BRANCH  13  14
ATOM     14  C   UNL d   1      58.515  -0.218  29.104  0.00  0.00     0.286 C 
ATOM     15  N   UNL d   1      58.797  -0.998  29.090  0.00  0.00    -0.206 NA
ATOM     16  O   UNL d   1      58.766   0.331  28.541  0.00  0.00    -0.265 OA
BRANCH  15  17
ATOM     17  C   UNL d   1      59.340  -1.228  28.501  0.00  0.00     0.102 C 
BRANCH  17  18
ATOM     18  C   UNL d   1      59.739  -1.953  28.572  0.00  0.00     0.019 A 
ATOM     19  C   UNL d   1      60.558  -1.966  28.665  0.00  0.00     0.002 A 
ATOM     20  C   UNL d   1      60.959  -2.682  28.736  0.00  0.00     0.000 A 
ATOM     21  C   UNL d   1      60.526  -3.402  28.712  0.00  0.00     0.000 A 
ATOM     22  C   UNL d   1      59.707  -3.389  28.619  0.00  0.00     0.000 A 
ATOM     23  C   UNL d   1      59.306  -2.665  28.548  0.00  0.00     0.002 A 
ENDBRANCH  17  18
ENDBRANCH  15  17
ENDBRANCH  13  14
ENDBRANCH  12  13
ENDBRANCH   2  12
BRANCH   1  24
ATOM     24  C   UNL d   1      59.215   0.681  31.488  0.00  0.00     0.085 C 
BRANCH  24  25
ATOM     25  C   UNL d   1      59.739   0.493  32.097  0.00  0.00     0.019 C 
BRANCH  25  26
ATOM     26  C   UNL d   1      60.555   0.598  31.986  0.00  0.00     0.002 C 
ATOM     27  C   UNL d   1      61.061   0.620  32.637  0.00  0.00     0.000 C 
ENDBRANCH  25  26
ENDBRANCH  24  25
ENDBRANCH   1  24
BRANCH   8  28
ATOM     28  N   UNL d   1      55.899   0.613  34.204  0.00  0.00    -0.300 N 
ATOM     29  C   UNL d   1      56.425   0.610  34.839  0.00  0.00     0.107 A 
ATOM     30  C   UNL d   1      56.138   0.610  35.623  0.00  0.00     0.142 A 
ATOM     31  O   UNL d   1      55.316   0.613  35.761  0.00  0.00    -0.300 OA
ATOM     32  C   UNL d   1      54.789   0.616  35.114  0.00  0.00     0.142 A 
ATOM     33  C   UNL d   1      55.078   0.616  34.343  0.00  0.00     0.107 A 
ENDBRANCH   8  28
TORSDOF 9
ENDMDL
