MODEL 1
REMARK VINA RESULT:      51.1      0.000      0.000
REMARK  4 active torsions:
REMARK  status: ('A' for Active; 'I' for Inactive)
REMARK    1  A    between atoms: N_2  and  C_1 
REMARK    2  A    between atoms: C_9  and  C_3 
REMARK    3  A    between atoms: O_15  and  C_9 
REMARK    4  A    between atoms: C_18  and  O_15 
ROOT
ATOM      1  C   UNL d   1     -55.076-100.560 -44.151  0.00  0.00     0.105 A 
ATOM      2  C   UNL d   1     -55.634-100.529 -44.759  0.00  0.00     0.086 A 
ATOM      3  S   UNL d   1     -54.715-101.296 -44.197  0.00  0.00    -0.069 SA
ATOM      4  C   UNL d   1     -55.610-101.239 -45.169  0.00  0.00     0.013 A 
ATOM      5  C   UNL d   1     -55.044-101.715 -44.825  0.00  0.00     0.031 A 
ATOM      6  C   UNL d   1     -56.074-101.448 -45.818  0.00  0.00     0.001 C 
ATOM      7  C   UNL d   1     -54.838-102.478 -45.062  0.00  0.00     0.007 C 
ENDROOT
BRANCH   1   8
ATOM      8  N   UNL d   1     -54.943 -99.941 -43.621  0.00  0.00    -0.236 N 
ATOM      9  C   UNL d   1     -54.810 -99.141 -43.753  0.00  0.00     0.268 A 
ATOM     10  C   UNL d   1     -54.712 -98.780 -43.012  0.00  0.00     0.066 A 
ATOM     11  O   UNL d   1     -54.778 -98.756 -44.495  0.00  0.00    -0.267 OA
ATOM     12  C   UNL d   1     -54.787 -99.364 -42.443  0.00  0.00     0.066 A 
ATOM     13  C   UNL d   1     -54.928-100.074 -42.814  0.00  0.00     0.268 A 
ATOM     14  O   UNL d   1     -55.035-100.791 -42.446  0.00  0.00    -0.267 OA
ENDBRANCH   1   8
BRANCH   2  15
ATOM     15  C   UNL d   1     -56.135 -99.884 -44.926  0.00  0.00     0.302 C 
ATOM     16  O   UNL d   1     -55.903 -99.315 -45.491  0.00  0.00    -0.259 OA
BRANCH  15  17
ATOM     17  O   UNL d   1     -56.844 -99.816 -44.538  0.00  0.00    -0.271 OA
BRANCH  17  18
ATOM     18  C   UNL d   1     -57.304 -99.127 -44.636  0.00  0.00     0.126 C 
ATOM     19  C   UNL d   1     -58.116 -99.146 -44.481  0.00  0.00     0.029 C 
ENDBRANCH  17  18
ENDBRANCH  15  17
ENDBRANCH   2  15
TORSDOF 4
ENDMDL
