MODEL 1
REMARK VINA RESULT:      -6.0      0.000      0.000
REMARK  4 active torsions:
REMARK  status: ('A' for Active; 'I' for Inactive)
REMARK    1  A    between atoms: C_2  and  C_3 
REMARK    2  A    between atoms: N_4  and  C_2 
REMARK    3  A    between atoms: C_12  and  N_4 
REMARK    4  A    between atoms: N_8  and  C_7 
ROOT
ATOM      1  C   UNL d   1     -46.781  12.913  22.947  0.00  0.00     0.153 C 
ATOM      2  S   UNL d   1     -46.770  13.735  22.894  0.00  0.00    -0.056 SA
ENDROOT
BRANCH   1   3
ATOM      3  C   UNL d   1     -46.073  12.493  22.936  0.00  0.00     0.109 A 
ATOM      4  N   UNL d   1     -46.017  11.764  23.322  0.00  0.00    -0.243 NA
ATOM      5  C   UNL d   1     -45.309  11.345  23.311  0.00  0.00     0.081 A 
ATOM      6  C   UNL d   1     -44.653  11.653  22.916  0.00  0.00     0.018 A 
ATOM      7  C   UNL d   1     -45.251  10.613  23.698  0.00  0.00     0.019 A 
ATOM      8  C   UNL d   1     -44.702  12.380  22.530  0.00  0.00     0.003 A 
ATOM      9  C   UNL d   1     -43.939  11.228  22.907  0.00  0.00     0.002 A 
ATOM     10  C   UNL d   1     -45.413  12.803  22.539  0.00  0.00     0.021 A 
ATOM     11  C   UNL d   1     -43.887  10.502  23.292  0.00  0.00     0.000 A 
ATOM     12  C   UNL d   1     -44.542  10.194  23.687  0.00  0.00     0.002 A 
ENDBRANCH   1   3
BRANCH   1  13
ATOM     13  N   UNL d   1     -47.499  12.510  23.009  0.00  0.00    -0.233 NA
BRANCH  13  14
ATOM     14  C   UNL d   1     -48.195  12.874  22.770  0.00  0.00     0.083 A 
ATOM     15  C   UNL d   1     -48.574  13.404  23.280  0.00  0.00     0.021 A 
ATOM     16  C   UNL d   1     -49.271  13.768  23.039  0.00  0.00     0.019 A 
ATOM     17  C   UNL d   1     -49.590  13.601  22.286  0.00  0.00     0.064 A 
ATOM     18  C   UNL d   1     -49.208  13.073  21.785  0.00  0.00     0.019 A 
ATOM     19  C   UNL d   1     -48.510  12.709  22.026  0.00  0.00     0.021 A 
BRANCH  17  20
ATOM     20  N   UNL d   1     -50.297  13.973  22.047  0.00  0.00    -0.301 N 
ATOM     21  C   UNL d   1     -50.810  13.581  21.547  0.00  0.00     0.100 C 
ATOM     22  C   UNL d   1     -50.477  14.727  22.312  0.00  0.00     0.100 C 
ENDBRANCH  17  20
ENDBRANCH  13  14
ENDBRANCH   1  13
TORSDOF 4
ENDMDL
MODEL 2
REMARK VINA RESULT:      -5.4      8.215      9.509
REMARK  4 active torsions:
REMARK  status: ('A' for Active; 'I' for Inactive)
REMARK    1  A    between atoms: C_2  and  C_3 
REMARK    2  A    between atoms: N_4  and  C_2 
REMARK    3  A    between atoms: C_12  and  N_4 
REMARK    4  A    between atoms: N_8  and  C_7 
ROOT
ATOM      1  C   UNL d   1     -39.074  14.546  19.547  0.00  0.00     0.153 C 
ATOM      2  S   UNL d   1     -38.524  15.087  19.840  0.00  0.00    -0.056 SA
ENDROOT
BRANCH   1   3
ATOM      3  C   UNL d   1     -39.410  14.666  18.805  0.00  0.00     0.109 A 
ATOM      4  N   UNL d   1     -40.061  15.168  18.721  0.00  0.00    -0.243 NA
ATOM      5  C   UNL d   1     -40.396  15.288  17.980  0.00  0.00     0.081 A 
ATOM      6  C   UNL d   1     -40.083  14.908  17.318  0.00  0.00     0.018 A 
ATOM      7  C   UNL d   1     -41.051  15.792  17.893  0.00  0.00     0.019 A 
ATOM      8  C   UNL d   1     -39.432  14.406  17.395  0.00  0.00     0.003 A 
ATOM      9  C   UNL d   1     -40.423  15.031  16.570  0.00  0.00     0.002 A 
ATOM     10  C   UNL d   1     -39.094  14.284  18.140  0.00  0.00     0.021 A 
ATOM     11  C   UNL d   1     -41.072  15.531  16.490  0.00  0.00     0.000 A 
ATOM     12  C   UNL d   1     -41.386  15.912  17.152  0.00  0.00     0.002 A 
ENDBRANCH   1   3
BRANCH   1  13
ATOM     13  N   UNL d   1     -39.288  13.887  19.995  0.00  0.00    -0.233 NA
BRANCH  13  14
ATOM     14  C   UNL d   1     -39.102  13.858  20.795  0.00  0.00     0.083 A 
ATOM     15  C   UNL d   1     -38.383  13.523  21.034  0.00  0.00     0.021 A 
ATOM     16  C   UNL d   1     -38.199  13.495  21.836  0.00  0.00     0.019 A 
ATOM     17  C   UNL d   1     -38.733  13.801  22.398  0.00  0.00     0.064 A 
ATOM     18  C   UNL d   1     -39.445  14.132  22.153  0.00  0.00     0.019 A 
ATOM     19  C   UNL d   1     -39.630  14.160  21.351  0.00  0.00     0.021 A 
BRANCH  17  20
ATOM     20  N   UNL d   1     -38.540  13.769  23.209  0.00  0.00    -0.301 N 
ATOM     21  C   UNL d   1     -38.648  14.431  23.676  0.00  0.00     0.100 C 
ATOM     22  C   UNL d   1     -38.245  13.079  23.536  0.00  0.00     0.100 C 
ENDBRANCH  17  20
ENDBRANCH  13  14
ENDBRANCH   1  13
TORSDOF 4
ENDMDL
MODEL 3
REMARK VINA RESULT:      -5.2      1.053      5.186
REMARK  4 active torsions:
REMARK  status: ('A' for Active; 'I' for Inactive)
REMARK    1  A    between atoms: C_2  and  C_3 
REMARK    2  A    between atoms: N_4  and  C_2 
REMARK    3  A    between atoms: C_12  and  N_4 
REMARK    4  A    between atoms: N_8  and  C_7 
ROOT
ATOM      1  C   UNL d   1     -48.067  13.208  22.740  0.00  0.00     0.153 C 
ATOM      2  S   UNL d   1     -47.907  12.847  22.016  0.00  0.00    -0.056 SA
ENDROOT
BRANCH   1   3
ATOM      3  C   UNL d   1     -48.802  13.558  22.868  0.00  0.00     0.109 A 
ATOM      4  N   UNL d   1     -48.852  14.364  23.045  0.00  0.00    -0.243 NA
ATOM      5  C   UNL d   1     -49.586  14.713  23.172  0.00  0.00     0.081 A 
ATOM      6  C   UNL d   1     -50.273  14.259  23.124  0.00  0.00     0.018 A 
ATOM      7  C   UNL d   1     -49.639  15.522  23.350  0.00  0.00     0.019 A 
ATOM      8  C   UNL d   1     -50.230  13.454  22.948  0.00  0.00     0.003 A 
ATOM      9  C   UNL d   1     -51.013  14.614  23.253  0.00  0.00     0.002 A 
ATOM     10  C   UNL d   1     -49.493  13.101  22.819  0.00  0.00     0.021 A 
ATOM     11  C   UNL d   1     -51.060  15.417  23.429  0.00  0.00     0.000 A 
ATOM     12  C   UNL d   1     -50.373  15.871  23.478  0.00  0.00     0.002 A 
ENDBRANCH   1   3
BRANCH   1  13
ATOM     13  N   UNL d   1     -47.495  13.220  23.335  0.00  0.00    -0.233 NA
BRANCH  13  14
ATOM     14  C   UNL d   1     -46.895  12.660  23.336  0.00  0.00     0.083 A 
ATOM     15  C   UNL d   1     -47.021  11.927  23.698  0.00  0.00     0.021 A 
ATOM     16  C   UNL d   1     -46.417  11.367  23.698  0.00  0.00     0.019 A 
ATOM     17  C   UNL d   1     -45.687  11.541  23.335  0.00  0.00     0.064 A 
ATOM     18  C   UNL d   1     -45.568  12.272  22.977  0.00  0.00     0.019 A 
ATOM     19  C   UNL d   1     -46.172  12.833  22.977  0.00  0.00     0.021 A 
BRANCH  17  20
ATOM     20  N   UNL d   1     -45.079  10.970  23.338  0.00  0.00    -0.301 N 
ATOM     21  C   UNL d   1     -45.218  10.235  23.666  0.00  0.00     0.100 C 
ATOM     22  C   UNL d   1     -44.347  11.146  23.015  0.00  0.00     0.100 C 
ENDBRANCH  17  20
ENDBRANCH  13  14
ENDBRANCH   1  13
TORSDOF 4
ENDMDL
MODEL 4
REMARK VINA RESULT:      -5.2      8.322      9.612
REMARK  4 active torsions:
REMARK  status: ('A' for Active; 'I' for Inactive)
REMARK    1  A    between atoms: C_2  and  C_3 
REMARK    2  A    between atoms: N_4  and  C_2 
REMARK    3  A    between atoms: C_12  and  N_4 
REMARK    4  A    between atoms: N_8  and  C_7 
ROOT
ATOM      1  C   UNL d   1     -39.921  14.977  19.115  0.00  0.00     0.153 C 
ATOM      2  S   UNL d   1     -40.471  14.463  19.450  0.00  0.00    -0.056 SA
ENDROOT
BRANCH   1   3
ATOM      3  C   UNL d   1     -39.653  14.843  18.347  0.00  0.00     0.109 A 
ATOM      4  N   UNL d   1     -39.149  14.207  18.189  0.00  0.00    -0.243 NA
ATOM      5  C   UNL d   1     -38.882  14.074  17.422  0.00  0.00     0.081 A 
ATOM      6  C   UNL d   1     -39.117  14.575  16.810  0.00  0.00     0.018 A 
ATOM      7  C   UNL d   1     -38.376  13.436  17.261  0.00  0.00     0.019 A 
ATOM      8  C   UNL d   1     -39.620  15.212  16.962  0.00  0.00     0.003 A 
ATOM      9  C   UNL d   1     -38.846  14.438  16.037  0.00  0.00     0.002 A 
ATOM     10  C   UNL d   1     -39.890  15.347  17.732  0.00  0.00     0.021 A 
ATOM     11  C   UNL d   1     -38.344  13.804  15.882  0.00  0.00     0.000 A 
ATOM     12  C   UNL d   1     -38.109  13.303  16.494  0.00  0.00     0.002 A 
ENDBRANCH   1   3
BRANCH   1  13
ATOM     13  N   UNL d   1     -39.638  15.622  19.544  0.00  0.00    -0.233 NA
BRANCH  13  14
ATOM     14  C   UNL d   1     -39.461  15.537  20.341  0.00  0.00     0.083 A 
ATOM     15  C   UNL d   1     -40.070  15.583  20.901  0.00  0.00     0.021 A 
ATOM     16  C   UNL d   1     -39.890  15.498  21.700  0.00  0.00     0.019 A 
ATOM     17  C   UNL d   1     -39.102  15.367  21.939  0.00  0.00     0.064 A 
ATOM     18  C   UNL d   1     -38.503  15.322  21.377  0.00  0.00     0.019 A 
ATOM     19  C   UNL d   1     -38.682  15.408  20.578  0.00  0.00     0.021 A 
BRANCH  17  20
ATOM     20  N   UNL d   1     -38.927  15.281  22.750  0.00  0.00    -0.301 N 
ATOM     21  C   UNL d   1     -38.685  14.555  23.036  0.00  0.00     0.100 C 
ATOM     22  C   UNL d   1     -38.997  15.921  23.256  0.00  0.00     0.100 C 
ENDBRANCH  17  20
ENDBRANCH  13  14
ENDBRANCH   1  13
TORSDOF 4
ENDMDL
MODEL 5
REMARK VINA RESULT:      -5.0      8.450      9.701
REMARK  4 active torsions:
REMARK  status: ('A' for Active; 'I' for Inactive)
REMARK    1  A    between atoms: C_2  and  C_3 
REMARK    2  A    between atoms: N_4  and  C_2 
REMARK    3  A    between atoms: C_12  and  N_4 
REMARK    4  A    between atoms: N_8  and  C_7 
ROOT
ATOM      1  C   UNL d   1     -39.689  14.901  19.325  0.00  0.00     0.153 C 
ATOM      2  S   UNL d   1     -40.203  14.357  18.979  0.00  0.00    -0.056 SA
ENDROOT
BRANCH   1   3
ATOM      3  C   UNL d   1     -39.564  14.883  20.139  0.00  0.00     0.109 A 
ATOM      4  N   UNL d   1     -39.218  14.220  20.491  0.00  0.00    -0.243 NA
ATOM      5  C   UNL d   1     -39.093  14.202  21.304  0.00  0.00     0.081 A 
ATOM      6  C   UNL d   1     -39.313  14.846  21.769  0.00  0.00     0.018 A 
ATOM      7  C   UNL d   1     -38.745  13.537  21.659  0.00  0.00     0.019 A 
ATOM      8  C   UNL d   1     -39.659  15.511  21.425  0.00  0.00     0.003 A 
ATOM      9  C   UNL d   1     -39.185  14.825  22.590  0.00  0.00     0.002 A 
ATOM     10  C   UNL d   1     -39.786  15.531  20.608  0.00  0.00     0.021 A 
ATOM     11  C   UNL d   1     -38.841  14.163  22.937  0.00  0.00     0.000 A 
ATOM     12  C   UNL d   1     -38.621  13.519  22.471  0.00  0.00     0.002 A 
ENDBRANCH   1   3
BRANCH   1  13
ATOM     13  N   UNL d   1     -39.302  15.462  18.860  0.00  0.00    -0.233 NA
BRANCH  13  14
ATOM     14  C   UNL d   1     -39.036  15.258  18.111  0.00  0.00     0.083 A 
ATOM     15  C   UNL d   1     -39.561  15.280  17.471  0.00  0.00     0.021 A 
ATOM     16  C   UNL d   1     -39.292  15.075  16.721  0.00  0.00     0.019 A 
ATOM     17  C   UNL d   1     -38.498  14.848  16.610  0.00  0.00     0.064 A 
ATOM     18  C   UNL d   1     -37.981  14.828  17.249  0.00  0.00     0.019 A 
ATOM     19  C   UNL d   1     -38.250  15.033  18.001  0.00  0.00     0.021 A 
BRANCH  17  20
ATOM     20  N   UNL d   1     -38.231  14.642  15.847  0.00  0.00    -0.301 N 
ATOM     21  C   UNL d   1     -38.261  13.861  15.606  0.00  0.00     0.100 C 
ATOM     22  C   UNL d   1     -37.941  15.218  15.342  0.00  0.00     0.100 C 
ENDBRANCH  17  20
ENDBRANCH  13  14
ENDBRANCH   1  13
TORSDOF 4
ENDMDL
