MODEL 1
REMARK VINA RESULT:      -1.8      0.000      0.000
REMARK  3 active torsions:
REMARK  status: ('A' for Active; 'I' for Inactive)
REMARK    1  A    between atoms: N_5  and  C_1 
REMARK    2  A    between atoms: C_2  and  C_6 
REMARK       I    between atoms: C_11  and  N_5 
REMARK    3  A    between atoms: C_9  and  C_11 
ROOT
ATOM      1  C   UNL d   1      30.560  16.789 -24.430  0.00  0.00     0.053 A 
ATOM      2  S   UNL d   1      31.184  16.258 -24.310  0.00  0.00    -0.080 SA
ATOM      3  C   UNL d   1      31.845  16.552 -24.716  0.00  0.00     0.087 A 
ATOM      4  C   UNL d   1      30.832  17.404 -24.906  0.00  0.00     0.009 A 
ATOM      5  C   UNL d   1      31.627  17.259 -25.084  0.00  0.00     0.012 A 
ENDROOT
BRANCH   3   6
ATOM      6  C   UNL d   1      32.591  16.195 -24.745  0.00  0.00     0.287 C 
ATOM      7  N   UNL d   1      33.241  16.585 -24.423  0.00  0.00    -0.182 NA
ATOM      8  O   UNL d   1      32.681  15.453 -25.097  0.00  0.00    -0.265 OA
BRANCH   7   9
ATOM      9  C   UNL d   1      33.150  17.331 -24.070  0.00  0.00     0.197 A 
ATOM     10  N   UNL d   1      33.130  18.054 -24.467  0.00  0.00    -0.221 NA
ATOM     11  C   UNL d   1      33.031  18.642 -23.904  0.00  0.00     0.090 A 
ATOM     12  C   UNL d   1      32.974  19.457 -23.977  0.00  0.00     0.020 A 
ATOM     13  C   UNL d   1      32.993  18.276 -23.171  0.00  0.00     0.050 A 
ATOM     14  C   UNL d   1      32.877  19.909 -23.304  0.00  0.00     0.002 A 
ATOM     15  C   UNL d   1      32.836  19.562 -22.564  0.00  0.00     0.001 A 
ATOM     16  C   UNL d   1      32.892  18.744 -22.480  0.00  0.00     0.008 A 
ATOM     17  C   UNL d   1      32.737  20.025 -21.887  0.00  0.00     0.000 C 
ATOM     18  S   UNL d   1      33.065  17.469 -23.268  0.00  0.00    -0.047 SA
ENDBRANCH   7   9
ENDBRANCH   3   6
BRANCH   1  19
ATOM     19  C   UNL d   1      29.795  16.713 -24.125  0.00  0.00     0.117 A 
ATOM     20  N   UNL d   1      29.339  17.328 -23.817  0.00  0.00    -0.238 NA
ATOM     21  C   UNL d   1      28.614  17.003 -23.576  0.00  0.00     0.088 A 
ATOM     22  C   UNL d   1      27.947  17.342 -23.232  0.00  0.00     0.020 A 
ATOM     23  C   UNL d   1      28.631  16.191 -23.737  0.00  0.00     0.049 A 
ATOM     24  C   UNL d   1      27.298  16.872 -23.050  0.00  0.00     0.002 A 
ATOM     25  C   UNL d   1      27.315  16.061 -23.211  0.00  0.00     0.001 A 
ATOM     26  C   UNL d   1      27.980  15.721 -23.553  0.00  0.00     0.008 A 
ATOM     27  S   UNL d   1      29.365  16.015 -24.077  0.00  0.00    -0.066 SA
ENDBRANCH   1  19
TORSDOF 3
ENDMDL
