MODEL 1
REMARK VINA RESULT:      85.9      0.000      0.000
REMARK  6 active torsions:
REMARK  status: ('A' for Active; 'I' for Inactive)
REMARK    1  A    between atoms: C_16  and  N_1 
REMARK    2  A    between atoms: C_11  and  C_2 
REMARK    3  A    between atoms: S_15  and  C_3 
REMARK    4  A    between atoms: C_8  and  C_11 
REMARK    5  A    between atoms: C_13  and  C_17 
REMARK       I    between atoms: N_14  and  C_13 
REMARK    6  A    between atoms: C_17  and  S_15 
ROOT
ATOM      1  N   UNL d   1      59.979  48.446  50.906  0.00  0.00    -0.269 N 
ATOM      2  C   UNL d   1      59.261  48.671  50.575  0.00  0.00     0.172 A 
ATOM      3  C   UNL d   1      60.163  47.709  50.617  0.00  0.00     0.201 A 
ATOM      4  N   UNL d   1      59.011  48.065  50.083  0.00  0.00    -0.128 NA
ATOM      5  N   UNL d   1      59.576  47.463  50.109  0.00  0.00    -0.121 NA
ENDROOT
BRANCH   2   6
ATOM      6  C   UNL d   1      58.932  49.391  50.763  0.00  0.00     0.059 C 
BRANCH   6   7
ATOM      7  C   UNL d   1      58.117  49.496  50.703  0.00  0.00     0.094 A 
ATOM      8  C   UNL d   1      57.763  49.546  49.963  0.00  0.00     0.082 A 
ATOM      9  C   UNL d   1      56.945  49.651  49.905  0.00  0.00     0.285 A 
ATOM     10  O   UNL d   1      56.575  49.703  49.148  0.00  0.00    -0.265 OA
ATOM     11  N   UNL d   1      56.490  49.704  50.603  0.00  0.00    -0.152 NA
ATOM     12  C   UNL d   1      56.846  49.653  51.336  0.00  0.00     0.371 A 
ATOM     13  N   UNL d   1      57.670  49.548  51.388  0.00  0.00    -0.191 NA
ATOM     14  O   UNL d   1      56.385  49.707  52.021  0.00  0.00    -0.242 OA
ENDBRANCH   6   7
ENDBRANCH   2   6
BRANCH   1  15
ATOM     15  C   UNL d   1      60.450  48.862  51.434  0.00  0.00     0.067 A 
ATOM     16  C   UNL d   1      60.248  48.882  52.238  0.00  0.00     0.018 A 
ATOM     17  C   UNL d   1      60.724  49.304  52.776  0.00  0.00     0.002 A 
ATOM     18  C   UNL d   1      61.395  49.700  52.502  0.00  0.00     0.000 A 
ATOM     19  C   UNL d   1      61.593  49.677  51.698  0.00  0.00     0.002 A 
ATOM     20  C   UNL d   1      61.120  49.259  51.167  0.00  0.00     0.018 A 
ENDBRANCH   1  15
BRANCH   3  21
ATOM     21  S   UNL d   1      60.857  47.272  50.816  0.00  0.00    -0.043 SA
BRANCH  21  22
ATOM     22  C   UNL d   1      60.992  46.530  50.455  0.00  0.00     0.099 C 
BRANCH  22  23
ATOM     23  C   UNL d   1      61.565  46.464  49.861  0.00  0.00     0.271 C 
ATOM     24  N   UNL d   1      61.816  45.712  49.616  0.00  0.00    -0.272 N 
ATOM     25  C   UNL d   1      61.593  44.948  49.863  0.00  0.00     0.083 A 
ATOM     26  C   UNL d   1      62.388  45.635  49.022  0.00  0.00     0.083 A 
ATOM     27  C   UNL d   1      62.028  44.405  49.421  0.00  0.00     0.021 A 
ATOM     28  C   UNL d   1      62.518  44.831  48.903  0.00  0.00     0.021 A 
ATOM     29  O   UNL d   1      61.890  47.141  49.509  0.00  0.00    -0.266 OA
ENDBRANCH  22  23
ENDBRANCH  21  22
ENDBRANCH   3  21
TORSDOF 6
ENDMDL
