MODEL 1
REMARK VINA RESULT:      35.1      0.000      0.000
REMARK  2 active torsions:
REMARK  status: ('A' for Active; 'I' for Inactive)
REMARK    1  A    between atoms: O_3  and  C_1 
REMARK    2  A    between atoms: C_2  and  O_3 
REMARK       I    between atoms: N_7  and  C_2 
ROOT
ATOM      1  C   UNL d   1     -57.485 -98.759 -44.681  0.00  0.00     0.133 A 
ATOM      2  C   UNL d   1     -58.123 -98.759 -44.138  0.00  0.00     0.106 A 
ATOM      3  C   UNL d   1     -58.892 -98.761 -44.419  0.00  0.00     0.030 A 
ATOM      4  C   UNL d   1     -57.632 -98.762 -45.491  0.00  0.00     0.083 A 
ATOM      5  C   UNL d   1     -59.049 -98.763 -45.227  0.00  0.00     0.060 A 
ATOM      6  C   UNL d   1     -58.411 -98.764 -45.770  0.00  0.00     0.025 A 
ATOM      7  N   UNL d   1     -57.964 -98.756 -43.327  0.00  0.00    -0.242 NA
ATOM      8 CL   UNL d   1     -57.004 -98.762 -46.025  0.00  0.00    -0.080 Cl
ATOM      9 CL   UNL d   1     -59.824 -98.765 -45.514  0.00  0.00    -0.082 Cl
ATOM     10  C   UNL d   1     -59.520 -98.760 -43.884  0.00  0.00     0.004 A 
ATOM     11  C   UNL d   1     -58.592 -98.756 -42.793  0.00  0.00     0.099 A 
ATOM     12  C   UNL d   1     -59.373 -98.758 -43.075  0.00  0.00     0.021 A 
ENDROOT
BRANCH   1  13
ATOM     13  O   UNL d   1     -56.694 -98.757 -44.408  0.00  0.00    -0.257 OA
BRANCH  13  14
ATOM     14  C   UNL d   1     -56.098 -99.147 -44.849  0.00  0.00     0.378 C 
ATOM     15  N   UNL d   1     -55.714 -99.801 -44.537  0.00  0.00    -0.252 N 
ATOM     16  C   UNL d   1     -55.126-100.182 -44.977  0.00  0.00     0.085 A 
ATOM     17  C   UNL d   1     -55.913-100.080 -43.786  0.00  0.00     0.085 A 
ATOM     18  C   UNL d   1     -54.739-100.839 -44.665  0.00  0.00     0.019 A 
ATOM     19  C   UNL d   1     -54.938-101.118 -43.914  0.00  0.00     0.003 A 
ATOM     20  C   UNL d   1     -55.522-100.738 -43.479  0.00  0.00     0.019 A 
ATOM     21  O   UNL d   1     -55.896 -98.864 -45.610  0.00  0.00    -0.237 OA
ENDBRANCH  13  14
ENDBRANCH   1  13
TORSDOF 2
ENDMDL
