MODEL 1
REMARK VINA RESULT:      69.6      0.000      0.000
REMARK  3 active torsions:
REMARK  status: ('A' for Active; 'I' for Inactive)
REMARK    1  A    between atoms: C_4  and  C_1 
REMARK    2  A    between atoms: C_12  and  N_3 
REMARK    3  A    between atoms: C_14  and  C_7 
ROOT
ATOM      1  N   UNL d   1      14.065  14.387  -3.413  0.00  0.00    -0.165 NA
ATOM      2  N   UNL d   1      13.985  13.646  -3.092  0.00  0.00    -0.230 N 
ATOM      3  C   UNL d   1      14.487  14.856  -2.926  0.00  0.00     0.108 A 
ATOM      4  C   UNL d   1      14.391  13.656  -2.345  0.00  0.00     0.084 A 
ATOM      5  C   UNL d   1      14.703  14.409  -2.243  0.00  0.00     0.040 A 
ENDROOT
BRANCH   3   6
ATOM      6  C   UNL d   1      14.660  15.637  -3.100  0.00  0.00     0.083 A 
ATOM      7  C   UNL d   1      14.651  16.202  -2.492  0.00  0.00     0.302 A 
ATOM      8  O   UNL d   1      14.826  16.998  -2.667  0.00  0.00    -0.273 OA
ATOM      9  O   UNL d   1      14.467  15.966  -1.714  0.00  0.00    -0.259 OA
ATOM     10  C   UNL d   1      15.007  17.223  -3.435  0.00  0.00     0.103 A 
ATOM     11  C   UNL d   1      15.016  16.658  -4.044  0.00  0.00     0.023 A 
ATOM     12  C   UNL d   1      15.178  18.004  -3.596  0.00  0.00     0.025 A 
ATOM     13  C   UNL d   1      14.844  15.873  -3.878  0.00  0.00     0.009 A 
ATOM     14  C   UNL d   1      15.195  16.879  -4.807  0.00  0.00     0.002 A 
ATOM     15  C   UNL d   1      15.367  17.664  -4.973  0.00  0.00     0.000 A 
ATOM     16  C   UNL d   1      15.358  18.230  -4.364  0.00  0.00     0.002 A 
ENDBRANCH   3   6
BRANCH   2  17
ATOM     17  C   UNL d   1      13.583  13.028  -3.447  0.00  0.00     0.083 A 
ATOM     18  C   UNL d   1      13.241  12.441  -2.979  0.00  0.00     0.019 A 
ATOM     19  C   UNL d   1      12.831  11.811  -3.331  0.00  0.00     0.002 A 
ATOM     20  C   UNL d   1      12.770  11.780  -4.167  0.00  0.00     0.000 A 
ATOM     21  C   UNL d   1      13.113  12.367  -4.634  0.00  0.00     0.002 A 
ATOM     22  C   UNL d   1      13.525  13.001  -4.274  0.00  0.00     0.019 A 
ENDBRANCH   2  17
BRANCH   4  23
ATOM     23  C   UNL d   1      14.464  13.041  -1.822  0.00  0.00     0.018 A 
ATOM     24  C   UNL d   1      13.843  12.824  -1.339  0.00  0.00     0.002 A 
ATOM     25  C   UNL d   1      13.918  12.202  -0.810  0.00  0.00     0.000 A 
ATOM     26  C   UNL d   1      14.626  11.781  -0.755  0.00  0.00     0.000 A 
ATOM     27  C   UNL d   1      15.260  11.997  -1.243  0.00  0.00     0.000 A 
ATOM     28  C   UNL d   1      15.176  12.630  -1.778  0.00  0.00     0.002 A 
ENDBRANCH   4  23
TORSDOF 3
ENDMDL
