MODEL 1
REMARK VINA RESULT:      40.5      0.000      0.000
REMARK  7 active torsions:
REMARK  status: ('A' for Active; 'I' for Inactive)
REMARK    1  A    between atoms: C_2  and  N_1 
REMARK    2  A    between atoms: C_4  and  O_6 
REMARK    3  A    between atoms: C_11  and  C_4 
REMARK    4  A    between atoms: O_6  and  C_12 
REMARK    5  A    between atoms: O_10  and  C_11 
REMARK    6  A    between atoms: C_13  and  O_10 
REMARK    7  A    between atoms: C_21  and  C_16 
ROOT
ATOM      1  C   UNL d   1     -55.766-102.434 -41.129  0.00  0.00     0.325 C 
ATOM      2  O   UNL d   1     -56.526-102.592 -41.426  0.00  0.00    -0.256 OA
ENDROOT
BRANCH   1   3
ATOM      3  O   UNL d   1     -55.290-101.859 -41.483  0.00  0.00    -0.272 OA
BRANCH   3   4
ATOM      4  C   UNL d   1     -55.215-101.836 -42.305  0.00  0.00     0.103 A 
ATOM      5  C   UNL d   1     -55.546-102.431 -42.766  0.00  0.00     0.026 A 
ATOM      6  C   UNL d   1     -55.459-102.392 -43.603  0.00  0.00     0.026 A 
ATOM      7  C   UNL d   1     -55.054-101.775 -43.964  0.00  0.00     0.127 A 
ATOM      8  C   UNL d   1     -54.714-101.162 -43.483  0.00  0.00     0.026 A 
ATOM      9  C   UNL d   1     -54.808-101.214 -42.653  0.00  0.00     0.026 A 
BRANCH   7  10
ATOM     10  N   UNL d   1     -54.979-101.752 -44.784  0.00  0.00    -0.114 N 
ATOM     11  O   UNL d   1     -54.906-102.425 -45.263  0.00  0.00    -0.532 OA
ATOM     12  O   UNL d   1     -54.965-101.069 -45.231  0.00  0.00    -0.532 OA
ENDBRANCH   7  10
ENDBRANCH   3   4
ENDBRANCH   1   3
BRANCH   1  13
ATOM     13  C   UNL d   1     -55.486-102.856 -40.478  0.00  0.00     0.191 C 
BRANCH  13  14
ATOM     14  O   UNL d   1     -54.767-102.645 -40.127  0.00  0.00    -0.300 OA
BRANCH  14  15
ATOM     15  C   UNL d   1     -54.753-102.349 -39.327  0.00  0.00     0.100 A 
ATOM     16  C   UNL d   1     -54.731-101.539 -39.187  0.00  0.00     0.025 A 
ATOM     17  C   UNL d   1     -54.718-101.253 -38.413  0.00  0.00     0.002 A 
ATOM     18  C   UNL d   1     -54.727-101.777 -37.780  0.00  0.00     0.000 A 
ATOM     19  C   UNL d   1     -54.749-102.591 -37.918  0.00  0.00     0.002 A 
ATOM     20  C   UNL d   1     -54.763-102.877 -38.692  0.00  0.00     0.025 A 
BRANCH  18  21
ATOM     21  C   UNL d   1     -54.713-101.483 -36.985  0.00  0.00     0.000 C 
ATOM     22  C   UNL d   1     -54.799-102.006 -36.350  0.00  0.00     0.000 C 
ENDBRANCH  18  21
ENDBRANCH  14  15
ENDBRANCH  13  14
ENDBRANCH   1  13
TORSDOF 7
ENDMDL
