MODEL 1
REMARK VINA RESULT:      -9.5      0.000      0.000
REMARK  3 active torsions:
REMARK  status: ('A' for Active; 'I' for Inactive)
REMARK    1  A    between atoms: O_10  and  C_9 
REMARK    2  A    between atoms: C_13  and  O_10 
REMARK    3  A    between atoms: C_12  and  C_13 
ROOT
ATOM      1  C   UNL d   1      53.144  34.261  54.300  0.00  0.00     0.066 A 
ATOM      2  O   UNL d   1      53.748  35.368  54.746  0.00  0.00    -0.302 OA
ATOM      3  C   UNL d   1      52.708  34.913  54.040  0.00  0.00     0.222 A 
ATOM      4  C   UNL d   1      53.785  34.546  54.735  0.00  0.00     0.103 A 
ATOM      5  C   UNL d   1      53.049  33.454  54.202  0.00  0.00     0.030 A 
ATOM      6  C   UNL d   1      53.082  35.595  54.316  0.00  0.00     0.165 A 
ATOM      7  O   UNL d   1      52.019  34.879  53.583  0.00  0.00    -0.284 OA
ATOM      8  C   UNL d   1      54.322  34.024  55.067  0.00  0.00     0.027 A 
ATOM      9  C   UNL d   1      53.591  32.930  54.538  0.00  0.00     0.100 A 
ATOM     10  C   UNL d   1      54.230  33.219  54.972  0.00  0.00     0.027 A 
ENDROOT
BRANCH   9  11
ATOM     11  O   UNL d   1      53.492  32.111  54.437  0.00  0.00    -0.305 OA
BRANCH  11  12
ATOM     12  C   UNL d   1      53.697  31.753  53.725  0.00  0.00     0.122 C 
BRANCH  12  13
ATOM     13  C   UNL d   1      53.422  30.988  53.564  0.00  0.00     0.025 A 
ATOM     14  C   UNL d   1      52.946  30.860  52.899  0.00  0.00     0.004 A 
ATOM     15  C   UNL d   1      52.672  30.103  52.736  0.00  0.00     0.030 A 
ATOM     16  C   UNL d   1      52.873  29.471  53.239  0.00  0.00     0.140 A 
ATOM     17  C   UNL d   1      53.347  29.604  53.899  0.00  0.00     0.030 A 
ATOM     18  F   UNL d   1      52.595  28.714  53.070  0.00  0.00    -0.204 F 
ATOM     19  C   UNL d   1      53.621  30.361  54.062  0.00  0.00     0.004 A 
ENDBRANCH  12  13
ENDBRANCH  11  12
ENDBRANCH   9  11
TORSDOF 3
ENDMDL
MODEL 2
REMARK VINA RESULT:      -9.4      0.863      1.546
REMARK  3 active torsions:
REMARK  status: ('A' for Active; 'I' for Inactive)
REMARK    1  A    between atoms: O_10  and  C_9 
REMARK    2  A    between atoms: C_13  and  O_10 
REMARK    3  A    between atoms: C_12  and  C_13 
ROOT
ATOM      1  C   UNL d   1      52.873  34.420  54.165  0.00  0.00     0.066 A 
ATOM      2  O   UNL d   1      52.664  35.681  53.768  0.00  0.00    -0.302 OA
ATOM      3  C   UNL d   1      53.206  34.925  54.729  0.00  0.00     0.222 A 
ATOM      4  C   UNL d   1      52.540  34.891  53.574  0.00  0.00     0.103 A 
ATOM      5  C   UNL d   1      52.827  33.605  54.106  0.00  0.00     0.030 A 
ATOM      6  C   UNL d   1      53.077  35.701  54.482  0.00  0.00     0.165 A 
ATOM      7  O   UNL d   1      53.599  34.685  55.417  0.00  0.00    -0.284 OA
ATOM      8  C   UNL d   1      52.166  34.544  52.934  0.00  0.00     0.027 A 
ATOM      9  C   UNL d   1      52.449  33.257  53.461  0.00  0.00     0.100 A 
ATOM     10  C   UNL d   1      52.117  33.731  52.872  0.00  0.00     0.027 A 
ENDROOT
BRANCH   9  11
ATOM     11  O   UNL d   1      52.403  32.430  53.404  0.00  0.00    -0.305 OA
BRANCH  11  12
ATOM     12  C   UNL d   1      53.044  31.998  53.120  0.00  0.00     0.122 C 
BRANCH  12  13
ATOM     13  C   UNL d   1      53.081  31.184  53.272  0.00  0.00     0.025 A 
ATOM     14  C   UNL d   1      53.679  30.892  53.763  0.00  0.00     0.004 A 
ATOM     15  C   UNL d   1      53.720  30.085  53.917  0.00  0.00     0.030 A 
ATOM     16  C   UNL d   1      53.161  29.569  53.579  0.00  0.00     0.140 A 
ATOM     17  C   UNL d   1      52.568  29.866  53.091  0.00  0.00     0.030 A 
ATOM     18  F   UNL d   1      53.207  28.761  53.737  0.00  0.00    -0.204 F 
ATOM     19  C   UNL d   1      52.527  30.672  52.937  0.00  0.00     0.004 A 
ENDBRANCH  12  13
ENDBRANCH  11  12
ENDBRANCH   9  11
TORSDOF 3
ENDMDL
MODEL 3
REMARK VINA RESULT:      -8.8      2.566      3.805
REMARK  3 active torsions:
REMARK  status: ('A' for Active; 'I' for Inactive)
REMARK    1  A    between atoms: O_10  and  C_9 
REMARK    2  A    between atoms: C_13  and  O_10 
REMARK    3  A    between atoms: C_12  and  C_13 
ROOT
ATOM      1  C   UNL d   1      53.747  33.540  54.452  0.00  0.00     0.066 A 
ATOM      2  O   UNL d   1      54.890  32.858  54.585  0.00  0.00    -0.302 OA
ATOM      3  C   UNL d   1      54.203  33.916  55.029  0.00  0.00     0.222 A 
ATOM      4  C   UNL d   1      54.174  32.888  54.181  0.00  0.00     0.103 A 
ATOM      5  C   UNL d   1      53.008  33.698  54.136  0.00  0.00     0.030 A 
ATOM      6  C   UNL d   1      54.907  33.494  55.110  0.00  0.00     0.165 A 
ATOM      7  O   UNL d   1      53.984  34.595  55.448  0.00  0.00    -0.284 OA
ATOM      8  C   UNL d   1      53.861  32.403  53.600  0.00  0.00     0.027 A 
ATOM      9  C   UNL d   1      52.694  33.208  53.552  0.00  0.00     0.100 A 
ATOM     10  C   UNL d   1      53.124  32.558  53.283  0.00  0.00     0.027 A 
ENDROOT
BRANCH   9  11
ATOM     11  O   UNL d   1      51.945  33.371  53.234  0.00  0.00    -0.305 OA
BRANCH  11  12
ATOM     12  C   UNL d   1      51.803  34.086  52.850  0.00  0.00     0.122 C 
BRANCH  12  13
ATOM     13  C   UNL d   1      51.053  34.229  52.527  0.00  0.00     0.025 A 
ATOM     14  C   UNL d   1      50.936  34.128  51.714  0.00  0.00     0.004 A 
ATOM     15  C   UNL d   1      50.194  34.269  51.391  0.00  0.00     0.030 A 
ATOM     16  C   UNL d   1      49.566  34.512  51.881  0.00  0.00     0.140 A 
ATOM     17  C   UNL d   1      49.688  34.611  52.689  0.00  0.00     0.030 A 
ATOM     18  F   UNL d   1      48.824  34.652  51.550  0.00  0.00    -0.204 F 
ATOM     19  C   UNL d   1      50.430  34.470  53.013  0.00  0.00     0.004 A 
ENDBRANCH  12  13
ENDBRANCH  11  12
ENDBRANCH   9  11
TORSDOF 3
ENDMDL
MODEL 4
REMARK VINA RESULT:      -8.7      2.509      4.431
REMARK  3 active torsions:
REMARK  status: ('A' for Active; 'I' for Inactive)
REMARK    1  A    between atoms: O_10  and  C_9 
REMARK    2  A    between atoms: C_13  and  O_10 
REMARK    3  A    between atoms: C_12  and  C_13 
ROOT
ATOM      1  C   UNL d   1      52.948  30.646  53.323  0.00  0.00     0.066 A 
ATOM      2  O   UNL d   1      53.995  30.137  53.983  0.00  0.00    -0.302 OA
ATOM      3  C   UNL d   1      52.819  29.835  53.422  0.00  0.00     0.222 A 
ATOM      4  C   UNL d   1      53.674  30.827  53.671  0.00  0.00     0.103 A 
ATOM      5  C   UNL d   1      52.511  31.240  52.969  0.00  0.00     0.030 A 
ATOM      6  C   UNL d   1      53.465  29.523  53.828  0.00  0.00     0.165 A 
ATOM      7  O   UNL d   1      52.155  29.419  53.155  0.00  0.00    -0.284 OA
ATOM      8  C   UNL d   1      53.955  31.597  53.661  0.00  0.00     0.027 A 
ATOM      9  C   UNL d   1      52.795  32.014  52.960  0.00  0.00     0.100 A 
ATOM     10  C   UNL d   1      53.521  32.192  53.308  0.00  0.00     0.027 A 
ENDROOT
BRANCH   9  11
ATOM     11  O   UNL d   1      52.349  32.615  52.600  0.00  0.00    -0.305 OA
BRANCH  11  12
ATOM     12  C   UNL d   1      52.075  33.252  53.045  0.00  0.00     0.122 C 
BRANCH  12  13
ATOM     13  C   UNL d   1      51.412  33.674  52.781  0.00  0.00     0.025 A 
ATOM     14  C   UNL d   1      50.762  33.762  53.284  0.00  0.00     0.004 A 
ATOM     15  C   UNL d   1      50.103  34.180  53.027  0.00  0.00     0.030 A 
ATOM     16  C   UNL d   1      50.094  34.511  52.262  0.00  0.00     0.140 A 
ATOM     17  C   UNL d   1      50.744  34.420  51.766  0.00  0.00     0.030 A 
ATOM     18  F   UNL d   1      49.430  34.929  52.009  0.00  0.00    -0.204 F 
ATOM     19  C   UNL d   1      51.403  34.002  52.024  0.00  0.00     0.004 A 
ENDBRANCH  12  13
ENDBRANCH  11  12
ENDBRANCH   9  11
TORSDOF 3
ENDMDL
MODEL 5
REMARK VINA RESULT:      -8.5      2.085      4.631
REMARK  3 active torsions:
REMARK  status: ('A' for Active; 'I' for Inactive)
REMARK    1  A    between atoms: O_10  and  C_9 
REMARK    2  A    between atoms: C_13  and  O_10 
REMARK    3  A    between atoms: C_12  and  C_13 
ROOT
ATOM      1  C   UNL d   1      53.169  30.203  54.001  0.00  0.00     0.066 A 
ATOM      2  O   UNL d   1      52.855  29.112  53.294  0.00  0.00    -0.302 OA
ATOM      3  C   UNL d   1      53.232  29.548  54.501  0.00  0.00     0.222 A 
ATOM      4  C   UNL d   1      52.936  29.930  53.258  0.00  0.00     0.103 A 
ATOM      5  C   UNL d   1      53.290  31.005  54.117  0.00  0.00     0.030 A 
ATOM      6  C   UNL d   1      53.038  28.876  54.063  0.00  0.00     0.165 A 
ATOM      7  O   UNL d   1      53.452  29.571  55.299  0.00  0.00    -0.284 OA
ATOM      8  C   UNL d   1      52.827  30.457  52.641  0.00  0.00     0.027 A 
ATOM      9  C   UNL d   1      53.180  31.534  53.495  0.00  0.00     0.100 A 
ATOM     10  C   UNL d   1      52.947  31.257  52.753  0.00  0.00     0.027 A 
ENDROOT
BRANCH   9  11
ATOM     11  O   UNL d   1      53.304  32.347  53.614  0.00  0.00    -0.305 OA
BRANCH  11  12
ATOM     12  C   UNL d   1      52.662  32.856  53.694  0.00  0.00     0.122 C 
BRANCH  12  13
ATOM     13  C   UNL d   1      52.800  33.660  53.845  0.00  0.00     0.025 A 
ATOM     14  C   UNL d   1      52.556  34.223  53.291  0.00  0.00     0.004 A 
ATOM     15  C   UNL d   1      52.691  35.020  53.436  0.00  0.00     0.030 A 
ATOM     16  C   UNL d   1      53.072  35.256  54.138  0.00  0.00     0.140 A 
ATOM     17  C   UNL d   1      53.313  34.691  54.686  0.00  0.00     0.030 A 
ATOM     18  F   UNL d   1      53.205  36.057  54.279  0.00  0.00    -0.204 F 
ATOM     19  C   UNL d   1      53.178  33.893  54.541  0.00  0.00     0.004 A 
ENDBRANCH  12  13
ENDBRANCH  11  12
ENDBRANCH   9  11
TORSDOF 3
ENDMDL
MODEL 6
REMARK VINA RESULT:      -8.3      2.599      3.891
REMARK  3 active torsions:
REMARK  status: ('A' for Active; 'I' for Inactive)
REMARK    1  A    between atoms: O_10  and  C_9 
REMARK    2  A    between atoms: C_13  and  O_10 
REMARK    3  A    between atoms: C_12  and  C_13 
ROOT
ATOM      1  C   UNL d   1      53.805  33.651  54.255  0.00  0.00     0.066 A 
ATOM      2  O   UNL d   1      54.552  34.084  55.276  0.00  0.00    -0.302 OA
ATOM      3  C   UNL d   1      54.354  33.061  54.439  0.00  0.00     0.222 A 
ATOM      4  C   UNL d   1      53.931  34.280  54.773  0.00  0.00     0.103 A 
ATOM      5  C   UNL d   1      53.212  33.704  53.692  0.00  0.00     0.030 A 
ATOM      6  C   UNL d   1      54.813  33.330  55.069  0.00  0.00     0.165 A 
ATOM      7  O   UNL d   1      54.422  32.331  54.054  0.00  0.00    -0.284 OA
ATOM      8  C   UNL d   1      53.466  34.953  54.726  0.00  0.00     0.027 A 
ATOM      9  C   UNL d   1      52.745  34.382  53.645  0.00  0.00     0.100 A 
ATOM     10  C   UNL d   1      52.875  35.009  54.166  0.00  0.00     0.027 A 
ENDROOT
BRANCH   9  11
ATOM     11  O   UNL d   1      52.145  34.433  53.074  0.00  0.00    -0.305 OA
BRANCH  11  12
ATOM     12  C   UNL d   1      51.405  34.101  53.218  0.00  0.00     0.122 C 
BRANCH  12  13
ATOM     13  C   UNL d   1      50.791  34.233  52.677  0.00  0.00     0.025 A 
ATOM     14  C   UNL d   1      50.054  34.486  52.956  0.00  0.00     0.004 A 
ATOM     15  C   UNL d   1      49.443  34.618  52.423  0.00  0.00     0.030 A 
ATOM     16  C   UNL d   1      49.567  34.495  51.609  0.00  0.00     0.140 A 
ATOM     17  C   UNL d   1      50.303  34.243  51.338  0.00  0.00     0.030 A 
ATOM     18  F   UNL d   1      48.950  34.629  51.079  0.00  0.00    -0.204 F 
ATOM     19  C   UNL d   1      50.914  34.111  51.870  0.00  0.00     0.004 A 
ENDBRANCH  12  13
ENDBRANCH  11  12
ENDBRANCH   9  11
TORSDOF 3
ENDMDL
MODEL 7
REMARK VINA RESULT:      -8.2      2.571      3.880
REMARK  3 active torsions:
REMARK  status: ('A' for Active; 'I' for Inactive)
REMARK    1  A    between atoms: O_10  and  C_9 
REMARK    2  A    between atoms: C_13  and  O_10 
REMARK    3  A    between atoms: C_12  and  C_13 
ROOT
ATOM      1  C   UNL d   1      50.273  34.608  52.711  0.00  0.00     0.066 A 
ATOM      2  O   UNL d   1      49.595  34.398  51.577  0.00  0.00    -0.302 OA
ATOM      3  C   UNL d   1      49.501  34.882  52.820  0.00  0.00     0.222 A 
ATOM      4  C   UNL d   1      50.327  34.311  51.944  0.00  0.00     0.103 A 
ATOM      5  C   UNL d   1      50.930  34.588  53.199  0.00  0.00     0.030 A 
ATOM      6  C   UNL d   1      49.085  34.752  52.120  0.00  0.00     0.165 A 
ATOM      7  O   UNL d   1      49.205  35.225  53.513  0.00  0.00    -0.284 OA
ATOM      8  C   UNL d   1      51.033  33.997  51.672  0.00  0.00     0.027 A 
ATOM      9  C   UNL d   1      51.640  34.272  52.925  0.00  0.00     0.100 A 
ATOM     10  C   UNL d   1      51.690  33.975  52.156  0.00  0.00     0.027 A 
ENDROOT
BRANCH   9  11
ATOM     11  O   UNL d   1      52.305  34.252  53.422  0.00  0.00    -0.305 OA
BRANCH  11  12
ATOM     12  C   UNL d   1      52.598  33.532  53.695  0.00  0.00     0.122 C 
BRANCH  12  13
ATOM     13  C   UNL d   1      53.307  33.521  54.124  0.00  0.00     0.025 A 
ATOM     14  C   UNL d   1      53.921  33.024  53.878  0.00  0.00     0.004 A 
ATOM     15  C   UNL d   1      54.625  33.010  54.300  0.00  0.00     0.030 A 
ATOM     16  C   UNL d   1      54.717  33.494  54.972  0.00  0.00     0.140 A 
ATOM     17  C   UNL d   1      54.102  33.987  55.212  0.00  0.00     0.030 A 
ATOM     18  F   UNL d   1      55.426  33.476  55.392  0.00  0.00    -0.204 F 
ATOM     19  C   UNL d   1      53.398  34.001  54.789  0.00  0.00     0.004 A 
ENDBRANCH  12  13
ENDBRANCH  11  12
ENDBRANCH   9  11
TORSDOF 3
ENDMDL
MODEL 8
REMARK VINA RESULT:      -7.3      3.722      5.004
REMARK  3 active torsions:
REMARK  status: ('A' for Active; 'I' for Inactive)
REMARK    1  A    between atoms: O_10  and  C_9 
REMARK    2  A    between atoms: C_13  and  O_10 
REMARK    3  A    between atoms: C_12  and  C_13 
ROOT
ATOM      1  C   UNL d   1      48.424  35.552  52.600  0.00  0.00     0.066 A 
ATOM      2  O   UNL d   1      47.514  35.781  51.646  0.00  0.00    -0.302 OA
ATOM      3  C   UNL d   1      47.874  36.094  52.896  0.00  0.00     0.222 A 
ATOM      4  C   UNL d   1      48.198  35.362  51.830  0.00  0.00     0.103 A 
ATOM      5  C   UNL d   1      49.093  35.207  52.921  0.00  0.00     0.030 A 
ATOM      6  C   UNL d   1      47.314  36.234  52.307  0.00  0.00     0.165 A 
ATOM      7  O   UNL d   1      47.891  36.431  53.651  0.00  0.00    -0.284 OA
ATOM      8  C   UNL d   1      48.641  34.832  51.389  0.00  0.00     0.027 A 
ATOM      9  C   UNL d   1      49.538  34.674  52.477  0.00  0.00     0.100 A 
ATOM     10  C   UNL d   1      49.309  34.486  51.707  0.00  0.00     0.027 A 
ENDROOT
BRANCH   9  11
ATOM     11  O   UNL d   1      50.217  34.325  52.805  0.00  0.00    -0.305 OA
BRANCH  11  12
ATOM     12  C   UNL d   1      50.926  34.326  52.387  0.00  0.00     0.122 C 
BRANCH  12  13
ATOM     13  C   UNL d   1      51.622  34.088  52.772  0.00  0.00     0.025 A 
ATOM     14  C   UNL d   1      52.162  34.663  53.022  0.00  0.00     0.004 A 
ATOM     15  C   UNL d   1      52.852  34.432  53.403  0.00  0.00     0.030 A 
ATOM     16  C   UNL d   1      53.004  33.624  53.535  0.00  0.00     0.140 A 
ATOM     17  C   UNL d   1      52.462  33.057  53.284  0.00  0.00     0.030 A 
ATOM     18  F   UNL d   1      53.697  33.398  53.918  0.00  0.00    -0.204 F 
ATOM     19  C   UNL d   1      51.772  33.287  52.902  0.00  0.00     0.004 A 
ENDBRANCH  12  13
ENDBRANCH  11  12
ENDBRANCH   9  11
TORSDOF 3
ENDMDL
