MODEL 1
REMARK VINA RESULT:      62.3      0.000      0.000
REMARK  3 active torsions:
REMARK  status: ('A' for Active; 'I' for Inactive)
REMARK    1  A    between atoms: N_2  and  S_1 
REMARK    2  A    between atoms: C_3  and  S_1 
REMARK    3  A    between atoms: C_11  and  C_6 
ROOT
ATOM      1  C   UNL d   1      61.303  46.970  50.281  0.00  0.00     0.104 A 
ATOM      2  C   UNL d   1      61.723  45.595  49.451  0.00  0.00     0.000 A 
ATOM      3  C   UNL d   1      61.786  47.019  49.615  0.00  0.00     0.013 A 
ATOM      4  C   UNL d   1      61.030  46.234  50.532  0.00  0.00     0.013 A 
ATOM      5  C   UNL d   1      61.239  45.549  50.118  0.00  0.00     0.001 A 
ATOM      6  C   UNL d   1      61.995  46.334  49.201  0.00  0.00     0.001 A 
ENDROOT
BRANCH   1   7
ATOM      7  S   UNL d   1      61.094  47.651  50.692  0.00  0.00     0.271 S 
ATOM      8  O   UNL d   1      60.653  47.199  51.218  0.00  0.00    -0.200 OA
ATOM      9  O   UNL d   1      61.541  48.110  50.159  0.00  0.00    -0.200 OA
BRANCH   7  10
ATOM     10  N   UNL d   1      60.885  48.335  51.105  0.00  0.00    -0.229 N 
ATOM     11  C   UNL d   1      61.251  48.512  51.804  0.00  0.00     0.092 A 
ATOM     12  C   UNL d   1      61.038  49.210  52.226  0.00  0.00     0.020 A 
ATOM     13  C   UNL d   1      60.465  49.707  51.933  0.00  0.00     0.003 A 
ATOM     14  C   UNL d   1      60.095  49.519  51.217  0.00  0.00     0.020 A 
ATOM     15  C   UNL d   1      60.298  48.853  50.815  0.00  0.00     0.092 A 
ENDBRANCH   7  10
ENDBRANCH   1   7
BRANCH   2  16
ATOM     16  C   UNL d   1      61.931  44.916  49.041  0.00  0.00     0.000 C 
ATOM     17  C   UNL d   1      62.714  44.790  48.828  0.00  0.00     0.000 C 
ATOM     18  C   UNL d   1      61.357  44.358  48.840  0.00  0.00     0.000 C 
ENDBRANCH   2  16
TORSDOF 3
ENDMDL
