MODEL 1
REMARK VINA RESULT:     118.7      0.000      0.000
REMARK  7 active torsions:
REMARK  status: ('A' for Active; 'I' for Inactive)
REMARK    1  A    between atoms: S_2  and  C_1 
REMARK    2  A    between atoms: C_9  and  S_2 
REMARK    3  A    between atoms: C_10  and  N_3 
REMARK    4  A    between atoms: C_8  and  C_10 
REMARK       I    between atoms: N_15  and  C_8 
REMARK    5  A    between atoms: C_20  and  N_15 
REMARK    6  A    between atoms: O_32  and  C_21 
REMARK    7  A    between atoms: C_33  and  C_27 
ROOT
ATOM      1  C   UNL d   1     -55.599-101.465 -41.728  0.00  0.00     0.144 A 
ATOM      2  N   UNL d   1     -56.093-100.499 -42.661  0.00  0.00    -0.299 N 
ATOM      3  C   UNL d   1     -55.256-101.887 -42.356  0.00  0.00     0.209 A 
ATOM      4  C   UNL d   1     -56.018-100.771 -41.881  0.00  0.00     0.095 A 
ATOM      5  C   UNL d   1     -55.334-101.613 -43.129  0.00  0.00     0.058 A 
ATOM      6  C   UNL d   1     -55.753-100.919 -43.282  0.00  0.00     0.068 A 
ATOM      7  C   UNL d   1     -55.830-100.646 -44.054  0.00  0.00     0.020 A 
ATOM      8  C   UNL d   1     -54.993-102.035 -43.749  0.00  0.00     0.029 A 
ATOM      9  O   UNL d   1     -54.836-102.585 -42.203  0.00  0.00    -0.286 OA
ATOM     10  C   UNL d   1     -55.070-101.761 -44.526  0.00  0.00     0.094 A 
ATOM     11  C   UNL d   1     -55.488-101.067 -44.679  0.00  0.00     0.026 A 
ENDROOT
BRANCH   2  12
ATOM     12  C   UNL d   1     -56.512 -99.804 -42.814  0.00  0.00     0.144 C 
BRANCH  12  13
ATOM     13  C   UNL d   1     -57.029 -99.766 -43.453  0.00  0.00     0.297 C 
ATOM     14  N   UNL d   1     -57.821 -99.567 -43.334  0.00  0.00    -0.207 NA
ATOM     15  O   UNL d   1     -56.753 -99.926 -44.213  0.00  0.00    -0.264 OA
BRANCH  14  16
ATOM     16  C   UNL d   1     -58.337 -99.529 -43.975  0.00  0.00     0.085 A 
ATOM     17  C   UNL d   1     -58.621-100.222 -44.315  0.00  0.00     0.019 A 
ATOM     18  C   UNL d   1     -59.137-100.184 -44.955  0.00  0.00     0.002 A 
ATOM     19  C   UNL d   1     -59.369 -99.451 -45.256  0.00  0.00     0.000 A 
ATOM     20  C   UNL d   1     -59.082 -98.755 -44.913  0.00  0.00     0.002 A 
ATOM     21  C   UNL d   1     -58.566 -98.795 -44.272  0.00  0.00     0.019 A 
BRANCH  19  22
ATOM     22  C   UNL d   1     -59.887 -99.405 -45.899  0.00  0.00     0.000 C 
ATOM     23  C   UNL d   1     -59.595 -99.182 -46.636  0.00  0.00     0.000 C 
ENDBRANCH  19  22
ENDBRANCH  14  16
ENDBRANCH  12  13
ENDBRANCH   2  12
BRANCH   1  24
ATOM     24  S   UNL d   1     -55.522-101.739 -40.952  0.00  0.00     0.214 S 
ATOM     25  O   UNL d   1     -54.757-101.996 -41.117  0.00  0.00    -0.217 OA
ATOM     26  O   UNL d   1     -56.296-101.480 -40.778  0.00  0.00    -0.217 OA
BRANCH  24  27
ATOM     27  C   UNL d   1     -55.442-102.015 -40.173  0.00  0.00     0.088 A 
ATOM     28  C   UNL d   1     -56.005-102.526 -39.850  0.00  0.00     0.014 A 
ATOM     29  C   UNL d   1     -55.922-102.797 -39.078  0.00  0.00     0.030 A 
ATOM     30  C   UNL d   1     -55.278-102.564 -38.618  0.00  0.00     0.140 A 
ATOM     31  C   UNL d   1     -54.712-102.050 -38.942  0.00  0.00     0.030 A 
ATOM     32  F   UNL d   1     -55.195-102.837 -37.841  0.00  0.00    -0.204 F 
ATOM     33  C   UNL d   1     -54.796-101.779 -39.716  0.00  0.00     0.014 A 
ENDBRANCH  24  27
ENDBRANCH   1  24
BRANCH  10  34
ATOM     34  O   UNL d   1     -54.722-102.192 -45.143  0.00  0.00    -0.328 OA
ATOM     35  C   UNL d   1     -54.942-102.031 -45.927  0.00  0.00     0.181 C 
ENDBRANCH  10  34
TORSDOF 7
ENDMDL
