MODEL 1
REMARK VINA RESULT:      38.9      0.000      0.000
REMARK  7 active torsions:
REMARK  status: ('A' for Active; 'I' for Inactive)
REMARK    1  A    between atoms: C_3  and  C_1 
REMARK    2  A    between atoms: C_9  and  N_2 
REMARK    3  A    between atoms: C_6  and  C_3 
REMARK    4  A    between atoms: C_8  and  C_3 
REMARK       I    between atoms: N_11  and  C_6 
REMARK    5  A    between atoms: C_26  and  C_7 
REMARK    6  A    between atoms: C_21  and  N_11 
REMARK    7  A    between atoms: C_12  and  C_21 
ROOT
ATOM      1  C   UNL d   1      46.126 -16.730  43.091  0.00  0.00     0.103 A 
ATOM      2  N   UNL d   1      46.179 -17.532  43.259  0.00  0.00    -0.269 N 
ATOM      3  S   UNL d   1      45.998 -16.646  42.279  0.00  0.00    -0.064 SA
ATOM      4  C   UNL d   1      46.085 -17.953  42.554  0.00  0.00     0.271 A 
ATOM      5  C   UNL d   1      45.973 -17.401  41.950  0.00  0.00     0.087 A 
ATOM      6  O   UNL d   1      46.100 -18.771  42.472  0.00  0.00    -0.266 OA
ENDROOT
BRANCH   1   7
ATOM      7  C   UNL d   1      46.189 -16.111  43.636  0.00  0.00     0.101 C 
BRANCH   7   8
ATOM      8  C   UNL d   1      45.797 -15.396  43.500  0.00  0.00     0.283 C 
ATOM      9  N   UNL d   1      45.011 -15.311  43.710  0.00  0.00    -0.204 NA
ATOM     10  O   UNL d   1      46.204 -14.766  43.149  0.00  0.00    -0.265 OA
BRANCH   9  11
ATOM     11  C   UNL d   1      44.618 -14.598  43.574  0.00  0.00     0.127 C 
BRANCH  11  12
ATOM     12  C   UNL d   1      44.884 -13.899  43.916  0.00  0.00     0.119 A 
ATOM     13  O   UNL d   1      45.261 -13.275  43.535  0.00  0.00    -0.304 OA
ATOM     14  C   UNL d   1      45.428 -12.692  44.094  0.00  0.00     0.123 A 
ATOM     15  C   UNL d   1      45.154 -12.956  44.822  0.00  0.00     0.029 A 
ATOM     16  C   UNL d   1      44.818 -13.699  44.716  0.00  0.00     0.028 A 
ENDBRANCH  11  12
ENDBRANCH   9  11
ENDBRANCH   7   8
BRANCH   7  17
ATOM     17  C   UNL d   1      46.647 -16.207  44.322  0.00  0.00     0.129 C 
ATOM     18  N   UNL d   1      46.544 -15.689  44.952  0.00  0.00    -0.146 N 
ENDBRANCH   7  17
ENDBRANCH   1   7
BRANCH   2  19
ATOM     19  C   UNL d   1      46.268 -18.237  43.679  0.00  0.00     0.067 A 
ATOM     20  C   UNL d   1      46.511 -18.916  43.297  0.00  0.00     0.018 A 
ATOM     21  C   UNL d   1      46.600 -19.615  43.714  0.00  0.00     0.008 A 
ATOM     22  C   UNL d   1      46.441 -19.632  44.527  0.00  0.00     0.035 A 
ATOM     23  C   UNL d   1      46.196 -18.945  44.910  0.00  0.00     0.008 A 
ATOM     24 BR   UNL d   1      46.527 -20.329  44.953  0.00  0.00    -0.049 Br
ATOM     25  C   UNL d   1      46.109 -18.248  44.489  0.00  0.00     0.018 A 
ENDBRANCH   2  19
BRANCH   5  26
ATOM     26  C   UNL d   1      45.856 -17.582  41.153  0.00  0.00     0.011 C 
ATOM     27  C   UNL d   1      46.314 -18.171  40.796  0.00  0.00     0.001 C 
ENDBRANCH   5  26
TORSDOF 7
ENDMDL
MODEL 2
REMARK VINA RESULT:      40.9      4.670      6.642
REMARK  7 active torsions:
REMARK  status: ('A' for Active; 'I' for Inactive)
REMARK    1  A    between atoms: C_3  and  C_1 
REMARK    2  A    between atoms: C_9  and  N_2 
REMARK    3  A    between atoms: C_6  and  C_3 
REMARK    4  A    between atoms: C_8  and  C_3 
REMARK       I    between atoms: N_11  and  C_6 
REMARK    5  A    between atoms: C_26  and  C_7 
REMARK    6  A    between atoms: C_21  and  N_11 
REMARK    7  A    between atoms: C_12  and  C_21 
ROOT
ATOM      1  C   UNL d   1      44.941 -16.523  37.971  0.00  0.00     0.103 A 
ATOM      2  N   UNL d   1      45.116 -15.843  37.544  0.00  0.00    -0.269 N 
ATOM      3  S   UNL d   1      44.249 -16.848  37.661  0.00  0.00    -0.064 SA
ATOM      4  C   UNL d   1      44.534 -15.741  36.967  0.00  0.00     0.271 A 
ATOM      5  C   UNL d   1      43.999 -16.365  37.043  0.00  0.00     0.087 A 
ATOM      6  O   UNL d   1      44.497 -15.129  36.419  0.00  0.00    -0.266 OA
ENDROOT
BRANCH   1   7
ATOM      7  C   UNL d   1      45.380 -16.831  38.601  0.00  0.00     0.101 C 
BRANCH   7   8
ATOM      8  C   UNL d   1      44.994 -17.145  39.261  0.00  0.00     0.283 C 
ATOM      9  N   UNL d   1      45.332 -17.761  39.681  0.00  0.00    -0.204 NA
ATOM     10  O   UNL d   1      44.265 -16.833  39.496  0.00  0.00    -0.265 OA
BRANCH   9  11
ATOM     11  C   UNL d   1      44.947 -18.076  40.340  0.00  0.00     0.127 C 
BRANCH  11  12
ATOM     12  C   UNL d   1      45.375 -18.407  40.959  0.00  0.00     0.119 A 
ATOM     13  O   UNL d   1      46.064 -18.851  40.900  0.00  0.00    -0.304 OA
ATOM     14  C   UNL d   1      46.299 -19.069  41.660  0.00  0.00     0.123 A 
ATOM     15  C   UNL d   1      45.753 -18.759  42.191  0.00  0.00     0.029 A 
ATOM     16  C   UNL d   1      45.182 -18.351  41.762  0.00  0.00     0.028 A 
ENDBRANCH  11  12
ENDBRANCH   9  11
ENDBRANCH   7   8
BRANCH   7  17
ATOM     17  C   UNL d   1      46.210 -16.825  38.571  0.00  0.00     0.129 C 
ATOM     18  N   UNL d   1      46.634 -16.511  39.202  0.00  0.00    -0.146 N 
ENDBRANCH   7  17
ENDBRANCH   1   7
BRANCH   2  19
ATOM     19  C   UNL d   1      45.502 -15.158  37.291  0.00  0.00     0.067 A 
ATOM     20  C   UNL d   1      45.922 -15.158  36.591  0.00  0.00     0.018 A 
ATOM     21  C   UNL d   1      46.305 -14.479  36.340  0.00  0.00     0.008 A 
ATOM     22  C   UNL d   1      46.265 -13.791  36.799  0.00  0.00     0.035 A 
ATOM     23  C   UNL d   1      45.841 -13.794  37.505  0.00  0.00     0.008 A 
ATOM     24 BR   UNL d   1      46.647 -13.106  36.554  0.00  0.00    -0.049 Br
ATOM     25  C   UNL d   1      45.459 -14.476  37.753  0.00  0.00     0.018 A 
ENDBRANCH   2  19
BRANCH   5  26
ATOM     26  C   UNL d   1      43.329 -16.479  36.574  0.00  0.00     0.011 C 
ATOM     27  C   UNL d   1      42.730 -15.909  36.571  0.00  0.00     0.001 C 
ENDBRANCH   5  26
TORSDOF 7
ENDMDL
