MODEL 1
REMARK VINA RESULT:      63.9      0.000      0.000
REMARK  3 active torsions:
REMARK  status: ('A' for Active; 'I' for Inactive)
REMARK    1  A    between atoms: N_2  and  S_1 
REMARK    2  A    between atoms: C_3  and  S_1 
REMARK    3  A    between atoms: C_10  and  C_9 
ROOT
ATOM      1  C   UNL d   1      60.155  49.324  51.659  0.00  0.00     0.104 A 
ATOM      2  C   UNL d   1      58.782  49.425  50.734  0.00  0.00     0.000 A 
ATOM      3  C   UNL d   1      60.158  49.046  50.883  0.00  0.00     0.013 A 
ATOM      4  C   UNL d   1      59.468  49.652  51.973  0.00  0.00     0.013 A 
ATOM      5  C   UNL d   1      58.779  49.703  51.508  0.00  0.00     0.001 A 
ATOM      6  C   UNL d   1      59.468  49.097  50.419  0.00  0.00     0.001 A 
ENDROOT
BRANCH   1   7
ATOM      7  S   UNL d   1      60.840  49.272  52.115  0.00  0.00     0.271 S 
ATOM      8  O   UNL d   1      60.434  49.557  52.767  0.00  0.00    -0.200 OA
ATOM      9  O   UNL d   1      61.517  49.221  52.569  0.00  0.00    -0.200 OA
BRANCH   7  10
ATOM     10  N   UNL d   1      61.245  48.987  51.465  0.00  0.00    -0.226 N 
ATOM     11  C   UNL d   1      61.151  48.203  51.230  0.00  0.00     0.111 A 
ATOM     12  C   UNL d   1      61.566  47.927  50.572  0.00  0.00     0.100 A 
ATOM     13  N   UNL d   1      62.066  48.425  50.154  0.00  0.00    -0.299 N 
ATOM     14  C   UNL d   1      62.162  49.208  50.384  0.00  0.00     0.100 A 
ATOM     15  C   UNL d   1      62.475  48.138  49.497  0.00  0.00     0.100 C 
ATOM     16  C   UNL d   1      61.751  49.497  51.044  0.00  0.00     0.111 A 
ENDBRANCH   7  10
ENDBRANCH   1   7
BRANCH   2  17
ATOM     17  C   UNL d   1      58.108  49.473  50.275  0.00  0.00     0.000 A 
ATOM     18  C   UNL d   1      57.361  49.523  50.633  0.00  0.00     0.000 A 
ATOM     19  C   UNL d   1      56.684  49.571  50.165  0.00  0.00     0.000 A 
ATOM     20  C   UNL d   1      56.748  49.569  49.345  0.00  0.00     0.000 A 
ATOM     21  C   UNL d   1      57.497  49.519  48.982  0.00  0.00     0.000 A 
ATOM     22  C   UNL d   1      56.071  49.617  48.877  0.00  0.00     0.000 C 
ATOM     23  C   UNL d   1      58.173  49.472  49.453  0.00  0.00     0.000 A 
ENDBRANCH   2  17
TORSDOF 3
ENDMDL
