MODEL 1
REMARK VINA RESULT:      35.1      0.000      0.000
REMARK  3 active torsions:
REMARK  status: ('A' for Active; 'I' for Inactive)
REMARK    1  A    between atoms: C_6  and  C_16 
REMARK    2  A    between atoms: S_14  and  C_8 
REMARK    3  A    between atoms: C_16  and  S_14 
ROOT
ATOM      1  C   UNL d   1     -57.373 -98.768 -44.049  0.00  0.00     0.141 A 
ATOM      2  O   UNL d   1     -57.498 -98.759 -43.233  0.00  0.00    -0.303 OA
ATOM      3  C   UNL d   1     -58.109 -98.778 -44.420  0.00  0.00     0.110 A 
ATOM      4  C   UNL d   1     -58.690 -98.775 -43.834  0.00  0.00     0.043 A 
ATOM      5  C   UNL d   1     -56.682 -98.769 -44.502  0.00  0.00     0.137 A 
ATOM      6  C   UNL d   1     -58.312 -98.763 -43.101  0.00  0.00     0.102 A 
ATOM      7  N   UNL d   1     -56.730 -98.780 -45.326  0.00  0.00    -0.215 NA
ATOM      8  N   UNL d   1     -58.157 -98.789 -45.243  0.00  0.00    -0.222 NA
ATOM      9  C   UNL d   1     -57.467 -98.790 -45.697  0.00  0.00     0.200 A 
ATOM     10  C   UNL d   1     -59.514 -98.782 -43.874  0.00  0.00     0.004 A 
ATOM     11  C   UNL d   1     -58.759 -98.757 -42.406  0.00  0.00     0.025 A 
ATOM     12  C   UNL d   1     -59.961 -98.776 -43.179  0.00  0.00     0.000 A 
ATOM     13  C   UNL d   1     -59.583 -98.764 -42.445  0.00  0.00     0.002 A 
ENDROOT
BRANCH   5  14
ATOM     14  S   UNL d   1     -55.945 -98.759 -44.131  0.00  0.00    -0.062 SA
BRANCH  14  15
ATOM     15  C   UNL d   1     -55.296 -99.117 -44.493  0.00  0.00     0.076 C 
BRANCH  15  16
ATOM     16  C   UNL d   1     -55.192 -99.933 -44.436  0.00  0.00     0.169 A 
ATOM     17  N   UNL d   1     -55.313-100.483 -45.040  0.00  0.00    -0.225 NA
ATOM     18  C   UNL d   1     -55.145-101.232 -44.741  0.00  0.00     0.101 A 
ATOM     19  C   UNL d   1     -55.167-101.982 -45.085  0.00  0.00     0.021 A 
ATOM     20  C   UNL d   1     -54.919-101.148 -43.952  0.00  0.00     0.101 A 
ATOM     21  C   UNL d   1     -54.964-102.647 -44.639  0.00  0.00     0.002 A 
ATOM     22  C   UNL d   1     -54.739-102.562 -43.852  0.00  0.00     0.002 A 
ATOM     23  C   UNL d   1     -54.717-101.812 -43.507  0.00  0.00     0.021 A 
ATOM     24  N   UNL d   1     -54.949-100.345 -43.764  0.00  0.00    -0.225 NA
ENDBRANCH  15  16
ENDBRANCH  14  15
ENDBRANCH   5  14
TORSDOF 3
ENDMDL
