MODEL 1
REMARK VINA RESULT:      31.9      0.000      0.000
REMARK  4 active torsions:
REMARK  status: ('A' for Active; 'I' for Inactive)
REMARK    1  A    between atoms: S_11  and  C_4 
REMARK       I    between atoms: N_8  and  C_10 
REMARK    2  A    between atoms: C_20  and  N_9 
REMARK    3  A    between atoms: C_10  and  C_15 
REMARK    4  A    between atoms: C_15  and  S_11 
ROOT
ATOM      1  N   UNL d   1      45.934 -18.018  43.526  0.00  0.00    -0.269 N 
ATOM      2  N   UNL d   1      46.218 -18.765  42.088  0.00  0.00    -0.301 N 
ATOM      3  C   UNL d   1      45.791 -17.643  44.247  0.00  0.00     0.272 C 
ATOM      4  C   UNL d   1      45.758 -17.631  42.818  0.00  0.00     0.102 A 
ATOM      5  C   UNL d   1      46.252 -18.779  43.513  0.00  0.00     0.102 A 
ATOM      6  C   UNL d   1      46.394 -19.152  42.795  0.00  0.00     0.100 A 
ATOM      7  C   UNL d   1      45.900 -18.003  42.101  0.00  0.00     0.100 A 
ATOM      8  O   UNL d   1      45.966 -18.030  44.955  0.00  0.00    -0.266 OA
ENDROOT
BRANCH   3   9
ATOM      9  C   UNL d   1      45.473 -16.882  44.261  0.00  0.00     0.099 C 
BRANCH   9  10
ATOM     10  S   UNL d   1      45.656 -16.369  44.881  0.00  0.00    -0.044 SA
BRANCH  10  11
ATOM     11  C   UNL d   1      45.504 -15.553  44.800  0.00  0.00     0.182 A 
ATOM     12  N   UNL d   1      46.138 -15.018  44.720  0.00  0.00    -0.222 NA
ATOM     13  C   UNL d   1      45.988 -14.222  44.641  0.00  0.00     0.095 A 
ATOM     14  C   UNL d   1      45.213 -13.940  44.640  0.00  0.00     0.104 A 
ATOM     15  C   UNL d   1      46.496 -13.578  44.554  0.00  0.00     0.026 A 
ATOM     16  C   UNL d   1      44.587 -14.455  44.718  0.00  0.00     0.274 A 
ATOM     17  S   UNL d   1      45.242 -13.123  44.552  0.00  0.00    -0.081 SA
ATOM     18  N   UNL d   1      44.729 -15.272  44.799  0.00  0.00    -0.251 N 
ATOM     19  O   UNL d   1      43.812 -14.173  44.717  0.00  0.00    -0.266 OA
ATOM     20  C   UNL d   1      44.092 -15.801  44.879  0.00  0.00     0.104 C 
ATOM     21  C   UNL d   1      46.039 -12.903  44.499  0.00  0.00     0.031 A 
ATOM     22  C   UNL d   1      46.332 -12.137  44.407  0.00  0.00     0.007 C 
ENDBRANCH  10  11
ENDBRANCH   9  10
ENDBRANCH   3   9
BRANCH   2  23
ATOM     23  C   UNL d   1      46.361 -19.139  41.367  0.00  0.00     0.064 A 
ATOM     24  C   UNL d   1      46.362 -18.701  40.667  0.00  0.00     0.018 A 
ATOM     25  C   UNL d   1      46.505 -19.075  39.946  0.00  0.00     0.002 A 
ATOM     26  C   UNL d   1      46.646 -19.888  39.924  0.00  0.00     0.000 A 
ATOM     27  C   UNL d   1      46.645 -20.327  40.623  0.00  0.00     0.002 A 
ATOM     28  C   UNL d   1      46.502 -19.952  41.344  0.00  0.00     0.018 A 
ENDBRANCH   2  23
TORSDOF 4
ENDMDL
