MODEL 1
REMARK VINA RESULT:      10.9      0.000      0.000
REMARK  7 active torsions:
REMARK  status: ('A' for Active; 'I' for Inactive)
REMARK    1  A    between atoms: N_3  and  S_1 
REMARK    2  A    between atoms: C_6  and  S_1 
REMARK    3  A    between atoms: N_2  and  C_5 
REMARK    4  A    between atoms: C_4  and  N_3 
REMARK    5  A    between atoms: C_5  and  C_4 
REMARK    6  A    between atoms: C_10  and  C_5 
REMARK    7  A    between atoms: C_22  and  N_7 
ROOT
ATOM      1  C   UNL d   1     -42.026-122.458 -49.851  0.00  0.00     0.086 C 
ENDROOT
BRANCH   1   2
ATOM      2  N   UNL d   1     -42.833-122.534 -50.012  0.00  0.00    -0.300 N 
ATOM      3  C   UNL d   1     -43.290-121.863 -50.138  0.00  0.00     0.100 A 
ATOM      4  C   UNL d   1     -44.099-121.934 -50.299  0.00  0.00     0.100 A 
ATOM      5  N   UNL d   1     -44.446-122.680 -50.332  0.00  0.00    -0.300 N 
ATOM      6  C   UNL d   1     -43.982-123.355 -50.203  0.00  0.00     0.100 A 
ATOM      7  C   UNL d   1     -43.180-123.280 -50.044  0.00  0.00     0.100 A 
BRANCH   5   8
ATOM      8  C   UNL d   1     -45.255-122.760 -50.492  0.00  0.00     0.080 C 
ATOM      9  C   UNL d   1     -45.761-122.112 -50.394  0.00  0.00     0.021 C 
ENDBRANCH   5   8
ENDBRANCH   1   2
BRANCH   1  10
ATOM     10  C   UNL d   1     -41.515-122.152 -50.427  0.00  0.00     0.130 C 
BRANCH  10  11
ATOM     11  N   UNL d   1     -41.743-122.156 -51.223  0.00  0.00    -0.155 NA
BRANCH  11  12
ATOM     12  S   UNL d   1     -41.434-121.599 -51.742  0.00  0.00     0.285 S 
ATOM     13  O   UNL d   1     -41.124-121.039 -52.262  0.00  0.00    -0.198 OA
ATOM     14  O   UNL d   1     -41.374-121.052 -51.116  0.00  0.00    -0.198 OA
BRANCH  12  15
ATOM     15  C   UNL d   1     -41.497-122.150 -52.363  0.00  0.00     0.105 A 
ATOM     16  C   UNL d   1     -41.124-122.882 -52.308  0.00  0.00     0.013 A 
ATOM     17  C   UNL d   1     -41.187-123.423 -52.923  0.00  0.00     0.001 A 
ATOM     18  C   UNL d   1     -41.625-123.233 -53.597  0.00  0.00     0.000 A 
ATOM     19  C   UNL d   1     -41.997-122.501 -53.652  0.00  0.00     0.001 A 
ATOM     20  C   UNL d   1     -41.690-123.781 -54.222  0.00  0.00     0.000 C 
ATOM     21  C   UNL d   1     -41.933-121.960 -53.037  0.00  0.00     0.013 A 
ENDBRANCH  12  15
ENDBRANCH  11  12
ENDBRANCH  10  11
ENDBRANCH   1  10
BRANCH   1  22
ATOM     22  C   UNL d   1     -41.723-122.688 -49.111  0.00  0.00     0.037 A 
ATOM     23  C   UNL d   1     -41.716-122.148 -48.484  0.00  0.00     0.100 A 
ATOM     24  N   UNL d   1     -41.417-122.376 -47.752  0.00  0.00    -0.242 NA
ATOM     25  C   UNL d   1     -41.125-123.144 -47.647  0.00  0.00     0.099 A 
ATOM     26  C   UNL d   1     -41.134-123.677 -48.273  0.00  0.00     0.021 A 
ATOM     27  C   UNL d   1     -41.433-123.449 -49.005  0.00  0.00     0.005 A 
ENDBRANCH   1  22
TORSDOF 7
ENDMDL
MODEL 2
REMARK VINA RESULT:      11.5      1.527      4.197
REMARK  7 active torsions:
REMARK  status: ('A' for Active; 'I' for Inactive)
REMARK    1  A    between atoms: N_3  and  S_1 
REMARK    2  A    between atoms: C_6  and  S_1 
REMARK    3  A    between atoms: N_2  and  C_5 
REMARK    4  A    between atoms: C_4  and  N_3 
REMARK    5  A    between atoms: C_5  and  C_4 
REMARK    6  A    between atoms: C_10  and  C_5 
REMARK    7  A    between atoms: C_22  and  N_7 
ROOT
ATOM      1  C   UNL d   1     -42.493-122.159 -51.254  0.00  0.00     0.086 C 
ENDROOT
BRANCH   1   2
ATOM      2  N   UNL d   1     -42.232-122.187 -52.038  0.00  0.00    -0.300 N 
ATOM      3  C   UNL d   1     -42.089-122.913 -52.395  0.00  0.00     0.100 A 
ATOM      4  C   UNL d   1     -41.827-122.947 -53.180  0.00  0.00     0.100 A 
ATOM      5  N   UNL d   1     -41.712-122.249 -53.603  0.00  0.00    -0.300 N 
ATOM      6  C   UNL d   1     -41.857-121.519 -53.240  0.00  0.00     0.100 A 
ATOM      7  C   UNL d   1     -42.117-121.490 -52.461  0.00  0.00     0.100 A 
BRANCH   5   8
ATOM      8  C   UNL d   1     -41.450-122.274 -54.389  0.00  0.00     0.080 C 
ATOM      9  C   UNL d   1     -41.884-121.889 -54.980  0.00  0.00     0.021 C 
ENDBRANCH   5   8
ENDBRANCH   1   2
BRANCH   1  10
ATOM     10  C   UNL d   1     -41.962-122.301 -50.634  0.00  0.00     0.130 C 
BRANCH  10  11
ATOM     11  N   UNL d   1     -42.195-122.772 -49.994  0.00  0.00    -0.155 NA
BRANCH  11  12
ATOM     12  S   UNL d   1     -41.660-123.293 -49.651  0.00  0.00     0.285 S 
ATOM     13  O   UNL d   1     -41.123-123.816 -49.308  0.00  0.00    -0.198 OA
ATOM     14  O   UNL d   1     -41.202-123.276 -50.347  0.00  0.00    -0.198 OA
BRANCH  12  15
ATOM     15  C   UNL d   1     -42.123-123.306 -48.959  0.00  0.00     0.105 A 
ATOM     16  C   UNL d   1     -42.798-123.775 -48.919  0.00  0.00     0.013 A 
ATOM     17  C   UNL d   1     -43.253-123.785 -48.235  0.00  0.00     0.001 A 
ATOM     18  C   UNL d   1     -43.031-123.326 -47.586  0.00  0.00     0.000 A 
ATOM     19  C   UNL d   1     -42.356-122.857 -47.626  0.00  0.00     0.001 A 
ATOM     20  C   UNL d   1     -43.491-123.335 -46.890  0.00  0.00     0.000 C 
ATOM     21  C   UNL d   1     -41.902-122.847 -48.310  0.00  0.00     0.013 A 
ENDBRANCH  12  15
ENDBRANCH  11  12
ENDBRANCH  10  11
ENDBRANCH   1  10
BRANCH   1  22
ATOM     22  C   UNL d   1     -43.289-121.987 -51.085  0.00  0.00     0.037 A 
ATOM     23  C   UNL d   1     -43.487-121.269 -50.723  0.00  0.00     0.100 A 
ATOM     24  N   UNL d   1     -44.274-121.099 -50.555  0.00  0.00    -0.242 NA
ATOM     25  C   UNL d   1     -44.865-121.648 -50.749  0.00  0.00     0.099 A 
ATOM     26  C   UNL d   1     -44.664-122.359 -51.108  0.00  0.00     0.021 A 
ATOM     27  C   UNL d   1     -43.876-122.529 -51.276  0.00  0.00     0.005 A 
ENDBRANCH   1  22
TORSDOF 7
ENDMDL
MODEL 3
REMARK VINA RESULT:      12.9      1.986      4.554
REMARK  7 active torsions:
REMARK  status: ('A' for Active; 'I' for Inactive)
REMARK    1  A    between atoms: N_3  and  S_1 
REMARK    2  A    between atoms: C_6  and  S_1 
REMARK    3  A    between atoms: N_2  and  C_5 
REMARK    4  A    between atoms: C_4  and  N_3 
REMARK    5  A    between atoms: C_5  and  C_4 
REMARK    6  A    between atoms: C_10  and  C_5 
REMARK    7  A    between atoms: C_22  and  N_7 
ROOT
ATOM      1  C   UNL d   1     -41.631-121.529 -53.077  0.00  0.00     0.086 C 
ENDROOT
BRANCH   1   2
ATOM      2  N   UNL d   1     -41.506-120.771 -52.770  0.00  0.00    -0.300 N 
ATOM      3  C   UNL d   1     -41.408-120.135 -53.280  0.00  0.00     0.100 A 
ATOM      4  C   UNL d   1     -41.282-119.374 -52.977  0.00  0.00     0.100 A 
ATOM      5  N   UNL d   1     -41.255-119.257 -52.162  0.00  0.00    -0.300 N 
ATOM      6  C   UNL d   1     -41.355-119.902 -51.651  0.00  0.00     0.100 A 
ATOM      7  C   UNL d   1     -41.479-120.655 -51.954  0.00  0.00     0.100 A 
BRANCH   5   8
ATOM      8  C   UNL d   1     -41.130-118.500 -51.851  0.00  0.00     0.080 C 
ATOM      9  C   UNL d   1     -41.127-118.385 -51.031  0.00  0.00     0.021 C 
ENDBRANCH   5   8
ENDBRANCH   1   2
BRANCH   1  10
ATOM     10  C   UNL d   1     -41.381-122.195 -52.653  0.00  0.00     0.130 C 
BRANCH  10  11
ATOM     11  N   UNL d   1     -41.807-122.443 -51.988  0.00  0.00    -0.155 NA
BRANCH  11  12
ATOM     12  S   UNL d   1     -41.589-123.128 -51.592  0.00  0.00     0.285 S 
ATOM     13  O   UNL d   1     -41.369-123.817 -51.195  0.00  0.00    -0.198 OA
ATOM     14  O   UNL d   1     -41.137-123.363 -52.252  0.00  0.00    -0.198 OA
BRANCH  12  15
ATOM     15  C   UNL d   1     -42.042-122.889 -50.935  0.00  0.00     0.105 A 
ATOM     16  C   UNL d   1     -41.672-122.602 -50.258  0.00  0.00     0.013 A 
ATOM     17  C   UNL d   1     -42.122-122.366 -49.612  0.00  0.00     0.001 A 
ATOM     18  C   UNL d   1     -42.945-122.417 -49.642  0.00  0.00     0.000 A 
ATOM     19  C   UNL d   1     -43.314-122.703 -50.319  0.00  0.00     0.001 A 
ATOM     20  C   UNL d   1     -43.403-122.178 -48.987  0.00  0.00     0.000 C 
ATOM     21  C   UNL d   1     -42.865-122.939 -50.964  0.00  0.00     0.013 A 
ENDBRANCH  12  15
ENDBRANCH  11  12
ENDBRANCH  10  11
ENDBRANCH   1  10
BRANCH   1  22
ATOM     22  C   UNL d   1     -42.009-121.624 -53.812  0.00  0.00     0.037 A 
ATOM     23  C   UNL d   1     -42.834-121.576 -53.859  0.00  0.00     0.100 A 
ATOM     24  N   UNL d   1     -43.208-121.670 -54.587  0.00  0.00    -0.242 NA
ATOM     25  C   UNL d   1     -42.756-121.813 -55.266  0.00  0.00     0.099 A 
ATOM     26  C   UNL d   1     -41.937-121.860 -55.214  0.00  0.00     0.021 A 
ATOM     27  C   UNL d   1     -41.564-121.766 -54.487  0.00  0.00     0.005 A 
ENDBRANCH   1  22
TORSDOF 7
ENDMDL
