MODEL 1
REMARK VINA RESULT:      -4.8      0.000      0.000
REMARK  6 active torsions:
REMARK  status: ('A' for Active; 'I' for Inactive)
REMARK    1  A    between atoms: C_3  and  N_1 
REMARK       I    between atoms: C_2  and  N_10 
REMARK    2  A    between atoms: C_9  and  C_2 
REMARK    3  A    between atoms: C_15  and  N_4 
REMARK    4  A    between atoms: O_14  and  C_8 
REMARK    5  A    between atoms: N_10  and  C_13 
REMARK    6  A    between atoms: C_13  and  C_15 
ROOT
ATOM      1  N   UNL d   1     -41.713-123.051 -49.662  0.00  0.00    -0.300 N 
ATOM      2  N   UNL d   1     -41.320-122.812 -51.245  0.00  0.00    -0.299 N 
ATOM      3  C   UNL d   1     -41.873-122.330 -50.020  0.00  0.00     0.100 A 
ATOM      4  C   UNL d   1     -41.353-123.659 -50.096  0.00  0.00     0.100 A 
ATOM      5  C   UNL d   1     -41.678-122.211 -50.810  0.00  0.00     0.100 A 
ATOM      6  C   UNL d   1     -41.158-123.540 -50.882  0.00  0.00     0.100 A 
ENDROOT
BRANCH   2   7
ATOM      7  C   UNL d   1     -41.124-122.692 -52.034  0.00  0.00     0.101 C 
BRANCH   7   8
ATOM      8  C   UNL d   1     -41.594-123.007 -52.636  0.00  0.00     0.121 C 
BRANCH   8   9
ATOM      9  N   UNL d   1     -41.702-122.601 -53.333  0.00  0.00    -0.205 NA
ATOM     10  C   UNL d   1     -41.973-122.993 -54.000  0.00  0.00     0.279 C 
ATOM     11  O   UNL d   1     -42.137-123.793 -53.970  0.00  0.00    -0.265 OA
BRANCH  10  12
ATOM     12  C   UNL d   1     -42.084-122.576 -54.715  0.00  0.00     0.058 A 
ATOM     13  C   UNL d   1     -42.813-122.353 -54.937  0.00  0.00     0.005 A 
ATOM     14  C   UNL d   1     -42.923-121.936 -55.652  0.00  0.00     0.000 A 
ATOM     15  C   UNL d   1     -42.278-121.756 -56.127  0.00  0.00     0.000 A 
ATOM     16  C   UNL d   1     -41.513-121.997 -55.882  0.00  0.00     0.000 A 
ATOM     17  C   UNL d   1     -41.415-122.401 -55.187  0.00  0.00     0.005 A 
ENDBRANCH  10  12
ENDBRANCH   8   9
ENDBRANCH   7   8
ENDBRANCH   2   7
BRANCH   1  18
ATOM     18  C   UNL d   1     -41.909-123.171 -48.871  0.00  0.00     0.086 A 
ATOM     19  C   UNL d   1     -42.650-123.469 -48.663  0.00  0.00     0.110 A 
ATOM     20  C   UNL d   1     -42.847-123.589 -47.870  0.00  0.00     0.026 A 
ATOM     21  C   UNL d   1     -42.300-123.410 -47.292  0.00  0.00     0.002 A 
ATOM     22  C   UNL d   1     -41.555-123.111 -47.489  0.00  0.00     0.002 A 
ATOM     23  C   UNL d   1     -41.361-122.993 -48.271  0.00  0.00     0.019 A 
BRANCH  19  24
ATOM     24  O   UNL d   1     -43.203-123.648 -49.264  0.00  0.00    -0.327 OA
ATOM     25  C   UNL d   1     -43.984-123.817 -49.053  0.00  0.00     0.181 C 
ENDBRANCH  19  24
ENDBRANCH   1  18
TORSDOF 6
ENDMDL
MODEL 2
REMARK VINA RESULT:      -3.3      0.809      5.903
REMARK  6 active torsions:
REMARK  status: ('A' for Active; 'I' for Inactive)
REMARK    1  A    between atoms: C_3  and  N_1 
REMARK       I    between atoms: C_2  and  N_10 
REMARK    2  A    between atoms: C_9  and  C_2 
REMARK    3  A    between atoms: C_15  and  N_4 
REMARK    4  A    between atoms: O_14  and  C_8 
REMARK    5  A    between atoms: N_10  and  C_13 
REMARK    6  A    between atoms: C_13  and  C_15 
ROOT
ATOM      1  N   UNL d   1     -41.457-122.817 -53.452  0.00  0.00    -0.300 N 
ATOM      2  N   UNL d   1     -41.234-123.160 -51.854  0.00  0.00    -0.299 N 
ATOM      3  C   UNL d   1     -41.566-123.583 -53.176  0.00  0.00     0.100 A 
ATOM      4  C   UNL d   1     -41.235-122.216 -52.926  0.00  0.00     0.100 A 
ATOM      5  C   UNL d   1     -41.455-123.754 -52.380  0.00  0.00     0.100 A 
ATOM      6  C   UNL d   1     -41.124-122.386 -52.133  0.00  0.00     0.100 A 
ENDROOT
BRANCH   2   7
ATOM      7  C   UNL d   1     -41.123-123.330 -51.058  0.00  0.00     0.101 C 
BRANCH   7   8
ATOM      8  C   UNL d   1     -41.719-123.176 -50.508  0.00  0.00     0.121 C 
BRANCH   8   9
ATOM      9  N   UNL d   1     -41.579-123.260 -49.711  0.00  0.00    -0.205 NA
ATOM     10  C   UNL d   1     -42.206-123.353 -49.190  0.00  0.00     0.279 C 
ATOM     11  O   UNL d   1     -42.974-123.361 -49.468  0.00  0.00    -0.265 OA
BRANCH  10  12
ATOM     12  C   UNL d   1     -42.062-123.439 -48.372  0.00  0.00     0.058 A 
ATOM     13  C   UNL d   1     -41.350-123.261 -48.072  0.00  0.00     0.005 A 
ATOM     14  C   UNL d   1     -41.206-123.348 -47.254  0.00  0.00     0.000 A 
ATOM     15  C   UNL d   1     -41.802-123.617 -46.758  0.00  0.00     0.000 A 
ATOM     16  C   UNL d   1     -42.551-123.802 -47.086  0.00  0.00     0.000 A 
ATOM     17  C   UNL d   1     -42.683-123.716 -47.881  0.00  0.00     0.005 A 
ENDBRANCH  10  12
ENDBRANCH   8   9
ENDBRANCH   7   8
ENDBRANCH   2   7
BRANCH   1  18
ATOM     18  C   UNL d   1     -41.569-122.647 -54.249  0.00  0.00     0.086 A 
ATOM     19  C   UNL d   1     -42.124-122.082 -54.484  0.00  0.00     0.110 A 
ATOM     20  C   UNL d   1     -42.236-121.911 -55.284  0.00  0.00     0.026 A 
ATOM     21  C   UNL d   1     -41.792-122.305 -55.843  0.00  0.00     0.002 A 
ATOM     22  C   UNL d   1     -41.233-122.872 -55.618  0.00  0.00     0.002 A 
ATOM     23  C   UNL d   1     -41.123-123.041 -54.830  0.00  0.00     0.019 A 
BRANCH  19  24
ATOM     24  O   UNL d   1     -42.574-121.684 -53.902  0.00  0.00    -0.327 OA
ATOM     25  C   UNL d   1     -43.254-121.274 -54.133  0.00  0.00     0.181 C 
ENDBRANCH  19  24
ENDBRANCH   1  18
TORSDOF 6
ENDMDL
