MODEL 1
REMARK VINA RESULT:      44.2      0.000      0.000
REMARK  6 active torsions:
REMARK  status: ('A' for Active; 'I' for Inactive)
REMARK    1  A    between atoms: C_6  and  C_1 
REMARK    2  A    between atoms: C_9  and  N_3 
REMARK    3  A    between atoms: C_17  and  C_9 
REMARK    4  A    between atoms: O_15  and  C_10 
REMARK    5  A    between atoms: O_16  and  C_17 
REMARK    6  A    between atoms: C_18  and  O_16 
ROOT
ATOM      1  C   UNL d   1     -51.489  25.972  33.494  0.00  0.00     0.148 A 
ATOM      2  N   UNL d   1     -51.730  26.768  33.426  0.00  0.00    -0.227 NA
ATOM      3  N   UNL d   1     -50.663  25.944  33.504  0.00  0.00    -0.287 N 
ATOM      4  C   UNL d   1     -50.380  26.720  33.442  0.00  0.00     0.083 A 
ATOM      5  C   UNL d   1     -51.036  27.225  33.394  0.00  0.00     0.099 A 
ATOM      6  C   UNL d   1     -49.613  27.045  33.423  0.00  0.00     0.019 A 
ATOM      7  C   UNL d   1     -50.925  28.047  33.327  0.00  0.00     0.021 A 
ATOM      8  C   UNL d   1     -49.504  27.859  33.356  0.00  0.00     0.002 A 
ATOM      9  C   UNL d   1     -50.162  28.361  33.308  0.00  0.00     0.002 A 
ENDROOT
BRANCH   1  10
ATOM     10  C   UNL d   1     -51.996  25.323  33.543  0.00  0.00     0.035 A 
ATOM     11  C   UNL d   1     -52.783  25.398  33.308  0.00  0.00     0.005 A 
ATOM     12  C   UNL d   1     -53.287  24.752  33.357  0.00  0.00     0.024 A 
ATOM     13  C   UNL d   1     -53.013  24.027  33.640  0.00  0.00     0.094 A 
ATOM     14  C   UNL d   1     -52.213  23.950  33.880  0.00  0.00     0.024 A 
ATOM     15  C   UNL d   1     -51.712  24.601  33.829  0.00  0.00     0.005 A 
BRANCH  13  16
ATOM     16  O   UNL d   1     -53.515  23.374  33.692  0.00  0.00    -0.328 OA
ATOM     17  C   UNL d   1     -54.261  23.408  33.341  0.00  0.00     0.181 C 
ENDBRANCH  13  16
ENDBRANCH   1  10
BRANCH   3  18
ATOM     18  C   UNL d   1     -50.349  25.189  33.570  0.00  0.00     0.108 C 
BRANCH  18  19
ATOM     19  C   UNL d   1     -49.562  25.051  33.374  0.00  0.00     0.142 C 
BRANCH  19  20
ATOM     20  O   UNL d   1     -49.284  24.282  33.305  0.00  0.00    -0.302 OA
BRANCH  20  21
ATOM     21  C   UNL d   1     -48.768  23.981  33.871  0.00  0.00     0.123 C 
ATOM     22  C   UNL d   1     -47.983  23.822  33.667  0.00  0.00     0.029 C 
ENDBRANCH  20  21
ENDBRANCH  19  20
ENDBRANCH  18  19
ENDBRANCH   3  18
TORSDOF 6
ENDMDL
