MODEL 1
REMARK VINA RESULT:     115.4      0.000      0.000
REMARK  6 active torsions:
REMARK  status: ('A' for Active; 'I' for Inactive)
REMARK    1  A    between atoms: C_9  and  N_2 
REMARK       I    between atoms: N_5  and  C_6 
REMARK    2  A    between atoms: C_6  and  C_10 
REMARK    3  A    between atoms: C_11  and  N_7 
REMARK    4  A    between atoms: C_10  and  C_9 
REMARK    5  A    between atoms: C_18  and  C_11 
REMARK    6  A    between atoms: C_19  and  C_11 
ROOT
ATOM      1  N   UNL d   1      61.504  46.413  50.283  0.00  0.00    -0.269 N 
ATOM      2  C   UNL d   1      61.810  45.683  50.063  0.00  0.00     0.266 C 
ATOM      3  N   UNL d   1      60.885  47.886  50.732  0.00  0.00    -0.301 N 
ATOM      4  C   UNL d   1      61.221  46.526  51.057  0.00  0.00     0.102 A 
ATOM      5  C   UNL d   1      61.476  47.030  49.745  0.00  0.00     0.102 A 
ATOM      6  C   UNL d   1      61.167  47.767  49.969  0.00  0.00     0.100 A 
ATOM      7  C   UNL d   1      60.915  47.253  51.281  0.00  0.00     0.100 A 
ATOM      8  O   UNL d   1      62.090  45.572  49.294  0.00  0.00    -0.267 OA
ENDROOT
BRANCH   2   9
ATOM      9  C   UNL d   1      61.838  45.061  50.603  0.00  0.00     0.080 C 
BRANCH   9  10
ATOM     10  C   UNL d   1      61.592  44.307  50.386  0.00  0.00     0.090 C 
BRANCH  10  11
ATOM     11  N   UNL d   1      61.713  43.669  50.891  0.00  0.00    -0.251 N 
ATOM     12  C   UNL d   1      61.363  43.559  51.627  0.00  0.00     0.378 A 
ATOM     13  O   UNL d   1      61.678  42.843  51.880  0.00  0.00    -0.258 OA
ATOM     14  O   UNL d   1      60.828  44.073  51.989  0.00  0.00    -0.237 OA
ATOM     15  C   UNL d   1      62.163  42.518  51.393  0.00  0.00     0.121 A 
ATOM     16  C   UNL d   1      62.606  41.817  51.404  0.00  0.00     0.026 A 
ATOM     17  C   UNL d   1      62.209  43.025  50.744  0.00  0.00     0.092 A 
ATOM     18  C   UNL d   1      63.095  41.625  50.762  0.00  0.00     0.002 A 
ATOM     19  C   UNL d   1      63.133  42.140  50.117  0.00  0.00     0.002 A 
ATOM     20  C   UNL d   1      62.690  42.838  50.110  0.00  0.00     0.020 A 
ENDBRANCH  10  11
ENDBRANCH   9  10
ENDBRANCH   2   9
BRANCH   3  21
ATOM     21  C   UNL d   1      60.573  48.620  50.969  0.00  0.00     0.064 C 
BRANCH  21  22
ATOM     22  C   UNL d   1      59.972  48.982  50.541  0.00  0.00     0.016 A 
ATOM     23  C   UNL d   1      60.143  49.343  49.820  0.00  0.00     0.001 A 
ATOM     24  C   UNL d   1      59.541  49.705  49.392  0.00  0.00     0.000 A 
ATOM     25  C   UNL d   1      58.769  49.707  49.685  0.00  0.00     0.000 A 
ATOM     26  C   UNL d   1      58.602  49.346  50.405  0.00  0.00     0.000 A 
ATOM     27  C   UNL d   1      59.204  48.984  50.833  0.00  0.00     0.001 A 
ENDBRANCH  21  22
BRANCH  21  28
ATOM     28  C   UNL d   1      60.880  48.983  51.650  0.00  0.00     0.016 A 
ATOM     29  C   UNL d   1      60.350  49.264  52.226  0.00  0.00     0.001 A 
ATOM     30  C   UNL d   1      60.657  49.627  52.907  0.00  0.00     0.000 A 
ATOM     31  C   UNL d   1      61.470  49.705  53.005  0.00  0.00     0.000 A 
ATOM     32  C   UNL d   1      61.984  49.421  52.425  0.00  0.00     0.000 A 
ATOM     33  C   UNL d   1      61.690  49.059  51.745  0.00  0.00     0.001 A 
ENDBRANCH  21  28
ENDBRANCH   3  21
TORSDOF 6
ENDMDL
