MODEL 1
REMARK VINA RESULT:      19.6      0.000      0.000
REMARK  2 active torsions:
REMARK  status: ('A' for Active; 'I' for Inactive)
REMARK    1  A    between atoms: C_7  and  C_1 
REMARK    2  A    between atoms: C_5  and  C_3 
ROOT
ATOM      1  C   UNL d   1      13.635  13.643  -3.337  0.00  0.00     0.067 A 
ATOM      2  N   UNL d   1      13.631  12.022  -3.024  0.00  0.00    -0.244 NA
ATOM      3  C   UNL d   1      13.917  12.544  -2.456  0.00  0.00     0.104 A 
ATOM      4  C   UNL d   1      13.920  13.354  -2.609  0.00  0.00     0.027 A 
ATOM      5  C   UNL d   1      13.349  13.119  -3.904  0.00  0.00     0.024 A 
ATOM      6  C   UNL d   1      13.346  12.310  -3.752  0.00  0.00     0.082 A 
ATOM      7  C   UNL d   1      13.067  13.405  -4.625  0.00  0.00     0.002 A 
ATOM      8  C   UNL d   1      13.059  11.779  -4.322  0.00  0.00     0.019 A 
ATOM      9  C   UNL d   1      12.781  12.882  -5.193  0.00  0.00     0.000 A 
ATOM     10  C   UNL d   1      12.776  12.065  -5.042  0.00  0.00     0.002 A 
ENDROOT
BRANCH   3  11
ATOM     11  C   UNL d   1      14.200  12.257  -1.732  0.00  0.00     0.118 A 
ATOM     12  O   UNL d   1      14.983  12.144  -1.496  0.00  0.00    -0.304 OA
ATOM     13  C   UNL d   1      14.969  11.848  -0.726  0.00  0.00     0.123 A 
ATOM     14  C   UNL d   1      14.192  11.779  -0.492  0.00  0.00     0.029 A 
ATOM     15  C   UNL d   1      13.717  12.033  -1.116  0.00  0.00     0.028 A 
ENDBRANCH   3  11
BRANCH   1  16
ATOM     16  C   UNL d   1      13.639  14.465  -3.490  0.00  0.00     0.211 C 
ATOM     17  O   UNL d   1      12.949  14.830  -3.755  0.00  0.00    -0.644 OA
ATOM     18  O   UNL d   1      14.330  14.904  -3.375  0.00  0.00    -0.644 OA
ENDBRANCH   1  16
TORSDOF 2
ENDMDL
