MODEL 1
REMARK VINA RESULT:      -4.1      0.000      0.000
REMARK  4 active torsions:
REMARK  status: ('A' for Active; 'I' for Inactive)
REMARK    1  A    between atoms: C_9  and  N_1 
REMARK    2  A    between atoms: C_2  and  C_9 
REMARK    3  A    between atoms: S_13  and  C_5 
REMARK    4  A    between atoms: C_17  and  S_13 
ROOT
ATOM      1  N   UNL d   1      58.579   0.393  29.797  0.00  0.00    -0.265 N 
ATOM      2  C   UNL d   1      58.189   0.471  29.071  0.00  0.00     0.296 A 
ATOM      3  S   UNL d   1      58.734   0.306  28.478  0.00  0.00    -0.025 SA
ATOM      4  C   UNL d   1      59.357   0.181  29.658  0.00  0.00     0.074 A 
ATOM      5  C   UNL d   1      59.461   0.125  28.844  0.00  0.00     0.050 A 
ATOM      6  O   UNL d   1      57.401   0.677  28.966  0.00  0.00    -0.259 OA
ATOM      7  C   UNL d   1      59.996   0.028  30.165  0.00  0.00     0.018 A 
ATOM      8  C   UNL d   1      60.198  -0.081  28.531  0.00  0.00     0.008 A 
ATOM      9  C   UNL d   1      60.733  -0.178  29.857  0.00  0.00     0.002 A 
ATOM     10  C   UNL d   1      60.825  -0.231  29.033  0.00  0.00     0.001 A 
ENDROOT
BRANCH   1  11
ATOM     11  C   UNL d   1      58.244   0.508  30.542  0.00  0.00     0.123 C 
BRANCH  11  12
ATOM     12  C   UNL d   1      57.766  -0.065  30.873  0.00  0.00     0.189 A 
ATOM     13  N   UNL d   1      57.469   0.038  31.628  0.00  0.00    -0.265 N 
ATOM     14  C   UNL d   1      57.012  -0.621  31.812  0.00  0.00     0.201 A 
ATOM     15  C   UNL d   1      57.595   0.681  32.128  0.00  0.00     0.103 C 
ATOM     16  N   UNL d   1      57.028  -1.131  31.168  0.00  0.00    -0.121 NA
ATOM     17  N   UNL d   1      57.496  -0.784  30.588  0.00  0.00    -0.126 NA
BRANCH  14  18
ATOM     18  S   UNL d   1      56.607  -0.750  32.518  0.00  0.00    -0.048 SA
BRANCH  18  19
ATOM     19  C   UNL d   1      55.981  -1.286  32.551  0.00  0.00     0.038 C 
ATOM     20  C   UNL d   1      55.536  -1.366  33.242  0.00  0.00     0.008 C 
ENDBRANCH  18  19
ENDBRANCH  14  18
ENDBRANCH  11  12
ENDBRANCH   1  11
TORSDOF 4
ENDMDL
MODEL 2
REMARK VINA RESULT:      -3.2      1.942      4.451
REMARK  4 active torsions:
REMARK  status: ('A' for Active; 'I' for Inactive)
REMARK    1  A    between atoms: C_9  and  N_1 
REMARK    2  A    between atoms: C_2  and  C_9 
REMARK    3  A    between atoms: S_13  and  C_5 
REMARK    4  A    between atoms: C_17  and  S_13 
ROOT
ATOM      1  N   UNL d   1      56.912   0.663  32.710  0.00  0.00    -0.265 N 
ATOM      2  C   UNL d   1      57.514   0.662  33.278  0.00  0.00     0.296 A 
ATOM      3  S   UNL d   1      57.157   0.665  34.019  0.00  0.00    -0.025 SA
ATOM      4  C   UNL d   1      56.188   0.666  33.092  0.00  0.00     0.074 A 
ATOM      5  C   UNL d   1      56.331   0.667  33.902  0.00  0.00     0.050 A 
ATOM      6  O   UNL d   1      58.321   0.659  33.126  0.00  0.00    -0.259 OA
ATOM      7  C   UNL d   1      55.406   0.667  32.813  0.00  0.00     0.018 A 
ATOM      8  C   UNL d   1      55.700   0.670  34.436  0.00  0.00     0.008 A 
ATOM      9  C   UNL d   1      54.774   0.670  33.343  0.00  0.00     0.002 A 
ATOM     10  C   UNL d   1      54.932   0.671  34.159  0.00  0.00     0.001 A 
ENDROOT
BRANCH   1  11
ATOM     11  C   UNL d   1      57.017   0.661  31.892  0.00  0.00     0.123 C 
BRANCH  11  12
ATOM     12  C   UNL d   1      57.212  -0.029  31.502  0.00  0.00     0.189 A 
ATOM     13  N   UNL d   1      57.636   0.003  30.803  0.00  0.00    -0.265 N 
ATOM     14  C   UNL d   1      57.749  -0.769  30.540  0.00  0.00     0.201 A 
ATOM     15  C   UNL d   1      57.908   0.679  30.418  0.00  0.00     0.103 C 
ATOM     16  N   UNL d   1      57.393  -1.277  31.079  0.00  0.00    -0.121 NA
ATOM     17  N   UNL d   1      57.062  -0.816  31.673  0.00  0.00    -0.126 NA
BRANCH  14  18
ATOM     18  S   UNL d   1      58.148  -0.996  29.857  0.00  0.00    -0.048 SA
BRANCH  18  19
ATOM     19  C   UNL d   1      58.298  -1.792  29.702  0.00  0.00     0.038 C 
ATOM     20  C   UNL d   1      58.838  -2.009  29.117  0.00  0.00     0.008 C 
ENDBRANCH  18  19
ENDBRANCH  14  18
ENDBRANCH  11  12
ENDBRANCH   1  11
TORSDOF 4
ENDMDL
MODEL 3
REMARK VINA RESULT:      -2.7      1.334      4.388
REMARK  4 active torsions:
REMARK  status: ('A' for Active; 'I' for Inactive)
REMARK    1  A    between atoms: C_9  and  N_1 
REMARK    2  A    between atoms: C_2  and  C_9 
REMARK    3  A    between atoms: S_13  and  C_5 
REMARK    4  A    between atoms: C_17  and  S_13 
ROOT
ATOM      1  N   UNL d   1      56.632  -0.249  31.907  0.00  0.00    -0.265 N 
ATOM      2  C   UNL d   1      56.684  -1.072  31.845  0.00  0.00     0.296 A 
ATOM      3  S   UNL d   1      56.292  -1.395  32.492  0.00  0.00    -0.025 SA
ATOM      4  C   UNL d   1      56.213  -0.060  32.584  0.00  0.00     0.074 A 
ATOM      5  C   UNL d   1      55.999  -0.763  32.951  0.00  0.00     0.050 A 
ATOM      6  O   UNL d   1      57.060  -1.489  31.245  0.00  0.00    -0.259 OA
ATOM      7  C   UNL d   1      55.992   0.665  32.923  0.00  0.00     0.018 A 
ATOM      8  C   UNL d   1      55.566  -0.751  33.655  0.00  0.00     0.008 A 
ATOM      9  C   UNL d   1      55.560   0.682  33.626  0.00  0.00     0.002 A 
ATOM     10  C   UNL d   1      55.349  -0.036  33.987  0.00  0.00     0.001 A 
ENDROOT
BRANCH   1  11
ATOM     11  C   UNL d   1      56.949   0.298  31.376  0.00  0.00     0.123 C 
BRANCH  11  12
ATOM     12  C   UNL d   1      57.756   0.406  31.326  0.00  0.00     0.189 A 
ATOM     13  N   UNL d   1      58.114   0.482  30.595  0.00  0.00    -0.265 N 
ATOM     14  C   UNL d   1      58.922   0.583  30.717  0.00  0.00     0.201 A 
ATOM     15  C   UNL d   1      57.746   0.462  29.858  0.00  0.00     0.103 C 
ATOM     16  N   UNL d   1      59.061   0.570  31.527  0.00  0.00    -0.121 NA
ATOM     17  N   UNL d   1      58.338   0.460  31.902  0.00  0.00    -0.126 NA
BRANCH  14  18
ATOM     18  S   UNL d   1      59.493   0.681  30.132  0.00  0.00    -0.048 SA
BRANCH  18  19
ATOM     19  C   UNL d   1      60.295   0.645  30.319  0.00  0.00     0.038 C 
ATOM     20  C   UNL d   1      60.816   0.212  29.845  0.00  0.00     0.008 C 
ENDBRANCH  18  19
ENDBRANCH  14  18
ENDBRANCH  11  12
ENDBRANCH   1  11
TORSDOF 4
ENDMDL
MODEL 4
REMARK VINA RESULT:      -2.0      2.261      3.890
REMARK  4 active torsions:
REMARK  status: ('A' for Active; 'I' for Inactive)
REMARK    1  A    between atoms: C_9  and  N_1 
REMARK    2  A    between atoms: C_2  and  C_9 
REMARK    3  A    between atoms: S_13  and  C_5 
REMARK    4  A    between atoms: C_17  and  S_13 
ROOT
ATOM      1  N   UNL d   1      58.133  -0.676  29.760  0.00  0.00    -0.265 N 
ATOM      2  C   UNL d   1      58.399   0.036  29.434  0.00  0.00     0.296 A 
ATOM      3  S   UNL d   1      58.163   0.643  29.935  0.00  0.00    -0.025 SA
ATOM      4  C   UNL d   1      57.735  -0.515  30.457  0.00  0.00     0.074 A 
ATOM      5  C   UNL d   1      57.748   0.298  30.572  0.00  0.00     0.050 A 
ATOM      6  O   UNL d   1      58.824   0.119  28.735  0.00  0.00    -0.259 OA
ATOM      7  C   UNL d   1      57.355  -1.003  31.011  0.00  0.00     0.018 A 
ATOM      8  C   UNL d   1      57.387   0.631  31.237  0.00  0.00     0.008 A 
ATOM      9  C   UNL d   1      56.993  -0.674  31.676  0.00  0.00     0.002 A 
ATOM     10  C   UNL d   1      57.014   0.150  31.781  0.00  0.00     0.001 A 
ENDROOT
BRANCH   1  11
ATOM     11  C   UNL d   1      58.247  -1.428  29.441  0.00  0.00     0.123 C 
BRANCH  11  12
ATOM     12  C   UNL d   1      58.994  -1.754  29.406  0.00  0.00     0.189 A 
ATOM     13  N   UNL d   1      59.094  -2.519  29.135  0.00  0.00    -0.265 N 
ATOM     14  C   UNL d   1      59.897  -2.695  29.163  0.00  0.00     0.201 A 
ATOM     15  C   UNL d   1      58.505  -3.035  28.876  0.00  0.00     0.103 C 
ATOM     16  N   UNL d   1      60.293  -2.036  29.452  0.00  0.00    -0.121 NA
ATOM     17  N   UNL d   1      59.731  -1.455  29.602  0.00  0.00    -0.126 NA
BRANCH  14  18
ATOM     18  S   UNL d   1      60.247  -3.406  28.940  0.00  0.00    -0.048 SA
BRANCH  18  19
ATOM     19  C   UNL d   1      60.965  -3.642  29.269  0.00  0.00     0.038 C 
ATOM     20  C   UNL d   1      61.116  -4.442  29.414  0.00  0.00     0.008 C 
ENDBRANCH  18  19
ENDBRANCH  14  18
ENDBRANCH  11  12
ENDBRANCH   1  11
TORSDOF 4
ENDMDL
MODEL 5
REMARK VINA RESULT:      -1.8      1.876      2.496
REMARK  4 active torsions:
REMARK  status: ('A' for Active; 'I' for Inactive)
REMARK    1  A    between atoms: C_9  and  N_1 
REMARK    2  A    between atoms: C_2  and  C_9 
REMARK    3  A    between atoms: S_13  and  C_5 
REMARK    4  A    between atoms: C_17  and  S_13 
ROOT
ATOM      1  N   UNL d   1      59.875  -0.794  28.878  0.00  0.00    -0.265 N 
ATOM      2  C   UNL d   1      60.663  -0.544  28.875  0.00  0.00     0.296 A 
ATOM      3  S   UNL d   1      61.133  -1.208  28.753  0.00  0.00    -0.025 SA
ATOM      4  C   UNL d   1      59.852  -1.603  28.760  0.00  0.00     0.074 A 
ATOM      5  C   UNL d   1      60.627  -1.867  28.681  0.00  0.00     0.050 A 
ATOM      6  O   UNL d   1      60.927   0.228  28.975  0.00  0.00    -0.259 OA
ATOM      7  C   UNL d   1      59.226  -2.146  28.711  0.00  0.00     0.018 A 
ATOM      8  C   UNL d   1      60.783  -2.669  28.555  0.00  0.00     0.008 A 
ATOM      9  C   UNL d   1      59.378  -2.947  28.585  0.00  0.00     0.002 A 
ATOM     10  C   UNL d   1      60.165  -3.201  28.507  0.00  0.00     0.001 A 
ENDROOT
BRANCH   1  11
ATOM     11  C   UNL d   1      59.214  -0.310  28.983  0.00  0.00     0.123 C 
BRANCH  11  12
ATOM     12  C   UNL d   1      58.961  -0.113  29.733  0.00  0.00     0.189 A 
ATOM     13  N   UNL d   1      58.220   0.216  29.841  0.00  0.00    -0.265 N 
ATOM     14  C   UNL d   1      58.119   0.355  30.646  0.00  0.00     0.201 A 
ATOM     15  C   UNL d   1      57.662   0.383  29.259  0.00  0.00     0.103 C 
ATOM     16  N   UNL d   1      58.801   0.112  31.034  0.00  0.00    -0.121 NA
ATOM     17  N   UNL d   1      59.321  -0.178  30.467  0.00  0.00    -0.126 NA
BRANCH  14  18
ATOM     18  S   UNL d   1      57.453   0.681  31.003  0.00  0.00    -0.048 SA
BRANCH  18  19
ATOM     19  C   UNL d   1      57.292   0.541  31.799  0.00  0.00     0.038 C 
ATOM     20  C   UNL d   1      56.537   0.680  32.104  0.00  0.00     0.008 C 
ENDBRANCH  18  19
ENDBRANCH  14  18
ENDBRANCH  11  12
ENDBRANCH   1  11
TORSDOF 4
ENDMDL
