MODEL 1
REMARK VINA RESULT:      -0.6      0.000      0.000
REMARK  3 active torsions:
REMARK  status: ('A' for Active; 'I' for Inactive)
REMARK    1  A    between atoms: C_6  and  C_1 
REMARK    2  A    between atoms: N_7  and  C_2 
REMARK    3  A    between atoms: C_9  and  C_5 
REMARK       I    between atoms: N_8  and  C_6 
ROOT
ATOM      1  C   UNL d   1      31.331  17.559 -24.129  0.00  0.00     0.106 A 
ATOM      2  C   UNL d   1      29.968  17.211 -23.933  0.00  0.00     0.180 A 
ATOM      3  N   UNL d   1      30.408  16.542 -23.818  0.00  0.00    -0.222 NA
ATOM      4  S   UNL d   1      30.484  17.812 -24.114  0.00  0.00    -0.044 SA
ATOM      5  C   UNL d   1      31.186  16.724 -23.926  0.00  0.00     0.094 A 
ENDROOT
BRANCH   1   6
ATOM      6  C   UNL d   1      31.935  18.096 -24.303  0.00  0.00     0.272 C 
ATOM      7  N   UNL d   1      32.187  18.646 -23.727  0.00  0.00    -0.272 N 
ATOM      8  C   UNL d   1      32.125  18.968 -22.959  0.00  0.00     0.083 A 
ATOM      9  C   UNL d   1      32.737  18.946 -24.262  0.00  0.00     0.083 A 
ATOM     10  C   UNL d   1      32.616  19.590 -22.732  0.00  0.00     0.019 A 
ATOM     11  C   UNL d   1      33.176  19.899 -23.269  0.00  0.00     0.003 A 
ATOM     12  C   UNL d   1      33.235  19.577 -24.032  0.00  0.00     0.019 A 
ATOM     13  O   UNL d   1      32.297  18.097 -25.046  0.00  0.00    -0.266 OA
ENDBRANCH   1   6
BRANCH   5  14
ATOM     14  C   UNL d   1      31.880  16.294 -23.887  0.00  0.00     0.018 A 
ATOM     15  C   UNL d   1      32.237  16.029 -24.552  0.00  0.00     0.002 A 
ATOM     16  C   UNL d   1      32.909  15.613 -24.512  0.00  0.00     0.000 A 
ATOM     17  C   UNL d   1      33.240  15.453 -23.802  0.00  0.00     0.000 A 
ATOM     18  C   UNL d   1      32.896  15.711 -23.121  0.00  0.00     0.000 A 
ATOM     19  C   UNL d   1      32.214  16.132 -23.174  0.00  0.00     0.002 A 
ENDBRANCH   5  14
BRANCH   2  20
ATOM     20  N   UNL d   1      29.197  17.051 -23.830  0.00  0.00    -0.280 N 
ATOM     21  C   UNL d   1      28.687  17.631 -23.525  0.00  0.00     0.109 A 
ATOM     22  C   UNL d   1      27.890  17.466 -23.419  0.00  0.00     0.142 A 
ATOM     23  O   UNL d   1      27.592  16.720 -23.617  0.00  0.00    -0.300 OA
ATOM     24  C   UNL d   1      28.098  16.133 -23.923  0.00  0.00     0.142 A 
ATOM     25  C   UNL d   1      28.900  16.299 -24.030  0.00  0.00     0.109 A 
ENDBRANCH   2  20
TORSDOF 3
ENDMDL
