MODEL 1
REMARK VINA RESULT:      33.1      0.000      0.000
REMARK  7 active torsions:
REMARK  status: ('A' for Active; 'I' for Inactive)
REMARK    1  A    between atoms: C_6  and  N_2 
REMARK    2  A    between atoms: C_7  and  C_3 
REMARK    3  A    between atoms: C_12  and  C_6 
REMARK    4  A    between atoms: C_21  and  C_7 
REMARK    5  A    between atoms: C_9  and  O_11 
REMARK    6  A    between atoms: O_11  and  C_12 
REMARK    7  A    between atoms: C_19  and  C_21 
ROOT
ATOM      1  N   UNL d   1     -59.359 -98.766 -44.133  0.00  0.00    -0.227 NA
ATOM      2  N   UNL d   1     -58.044 -98.759 -43.786  0.00  0.00    -0.287 N 
ATOM      3  C   UNL d   1     -58.576 -98.764 -44.430  0.00  0.00     0.148 A 
ATOM      4  C   UNL d   1     -58.503 -98.759 -43.086  0.00  0.00     0.083 A 
ATOM      5  C   UNL d   1     -59.302 -98.763 -43.300  0.00  0.00     0.099 A 
ATOM      6  C   UNL d   1     -58.295 -98.755 -42.284  0.00  0.00     0.019 A 
ATOM      7  C   UNL d   1     -59.889 -98.764 -42.721  0.00  0.00     0.021 A 
ATOM      8  C   UNL d   1     -58.882 -98.756 -41.705  0.00  0.00     0.002 A 
ATOM      9  C   UNL d   1     -59.680 -98.760 -41.924  0.00  0.00     0.002 A 
ENDROOT
BRANCH   2  10
ATOM     10  C   UNL d   1     -57.223 -98.755 -43.825  0.00  0.00     0.108 C 
BRANCH  10  11
ATOM     11  C   UNL d   1     -56.803 -99.464 -43.925  0.00  0.00     0.142 C 
BRANCH  11  12
ATOM     12  O   UNL d   1     -55.991 -99.445 -44.030  0.00  0.00    -0.304 OA
BRANCH  12  13
ATOM     13  C   UNL d   1     -55.601-100.098 -44.342  0.00  0.00     0.100 A 
ATOM     14  C   UNL d   1     -55.625-100.815 -43.943  0.00  0.00     0.025 A 
ATOM     15  C   UNL d   1     -55.234-101.473 -44.254  0.00  0.00     0.002 A 
ATOM     16  C   UNL d   1     -55.258-102.194 -43.854  0.00  0.00     0.000 C 
ATOM     17  C   UNL d   1     -54.818-101.409 -44.969  0.00  0.00     0.000 A 
ATOM     18  C   UNL d   1     -54.798-100.681 -45.367  0.00  0.00     0.002 A 
ATOM     19  C   UNL d   1     -55.188-100.027 -45.055  0.00  0.00     0.025 A 
ENDBRANCH  12  13
ENDBRANCH  11  12
ENDBRANCH  10  11
ENDBRANCH   2  10
BRANCH   3  20
ATOM     20  C   UNL d   1     -58.786 -98.767 -45.228  0.00  0.00     0.041 C 
BRANCH  20  21
ATOM     21  C   UNL d   1     -59.502 -99.101 -45.463  0.00  0.00     0.049 C 
BRANCH  21  22
ATOM     22  C   UNL d   1     -59.912 -98.783 -46.104  0.00  0.00     0.234 C 
ATOM     23  O   UNL d   1     -59.737 -99.028 -46.869  0.00  0.00    -0.283 OA
ENDBRANCH  21  22
ENDBRANCH  20  21
ENDBRANCH   3  20
TORSDOF 7
ENDMDL
