MODEL 1
REMARK VINA RESULT:     101.4      0.000      0.000
REMARK  7 active torsions:
REMARK  status: ('A' for Active; 'I' for Inactive)
REMARK    1  A    between atoms: C_7  and  C_1 
REMARK    2  A    between atoms: C_9  and  N_2 
REMARK    3  A    between atoms: C_6  and  C_3 
REMARK    4  A    between atoms: C_8  and  C_7 
REMARK    5  A    between atoms: C_20  and  C_9 
REMARK    6  A    between atoms: O_24  and  C_10 
REMARK    7  A    between atoms: O_26  and  C_22 
ROOT
ATOM      1  C   UNL d   1      59.598  47.431  50.888  0.00  0.00     0.101 A 
ATOM      2  N   UNL d   1      58.818  48.490  50.684  0.00  0.00    -0.270 N 
ATOM      3  C   UNL d   1      59.551  48.250  50.950  0.00  0.00     0.075 A 
ATOM      4  C   UNL d   1      58.877  47.159  50.576  0.00  0.00     0.256 A 
ATOM      5  C   UNL d   1      58.395  47.814  50.450  0.00  0.00     0.304 A 
ATOM      6  O   UNL d   1      57.627  47.800  50.144  0.00  0.00    -0.263 OA
ATOM      7  O   UNL d   1      58.677  46.374  50.419  0.00  0.00    -0.281 OA
ENDROOT
BRANCH   3   8
ATOM      8  C   UNL d   1      60.159  48.737  51.239  0.00  0.00     0.041 A 
ATOM      9  C   UNL d   1      60.598  49.185  50.707  0.00  0.00     0.096 A 
ATOM     10  C   UNL d   1      61.208  49.676  50.984  0.00  0.00     0.026 A 
ATOM     11  C   UNL d   1      61.369  49.708  51.799  0.00  0.00     0.026 A 
ATOM     12  C   UNL d   1      60.924  49.254  52.330  0.00  0.00     0.094 A 
ATOM     13  C   UNL d   1      60.320  48.770  52.048  0.00  0.00     0.028 A 
BRANCH   9  14
ATOM     14  O   UNL d   1      60.440  49.154  49.903  0.00  0.00    -0.328 OA
ATOM     15  C   UNL d   1      60.776  49.701  49.385  0.00  0.00     0.181 C 
ENDBRANCH   9  14
BRANCH  12  16
ATOM     16  O   UNL d   1      61.085  49.286  53.142  0.00  0.00    -0.328 OA
ATOM     17  C   UNL d   1      61.757  49.694  53.410  0.00  0.00     0.181 C 
ENDBRANCH  12  16
ENDBRANCH   3   8
BRANCH   2  18
ATOM     18  C   UNL d   1      58.537  49.273  50.651  0.00  0.00     0.085 C 
BRANCH  18  19
ATOM     19  C   UNL d   1      57.723  49.418  50.650  0.00  0.00     0.037 A 
ATOM     20  C   UNL d   1      57.330  49.551  51.372  0.00  0.00     0.100 A 
ATOM     21  N   UNL d   1      56.522  49.694  51.371  0.00  0.00    -0.242 NA
ATOM     22  C   UNL d   1      56.098  49.706  50.664  0.00  0.00     0.099 A 
ATOM     23  C   UNL d   1      56.491  49.574  49.952  0.00  0.00     0.021 A 
ATOM     24  C   UNL d   1      57.306  49.429  49.946  0.00  0.00     0.005 A 
ENDBRANCH  18  19
ENDBRANCH   2  18
BRANCH   1  25
ATOM     25  C   UNL d   1      60.245  46.954  51.097  0.00  0.00     0.223 C 
ATOM     26  O   UNL d   1      60.398  46.798  51.888  0.00  0.00    -0.284 OA
BRANCH  25  27
ATOM     27  C   UNL d   1      60.724  46.644  50.513  0.00  0.00     0.139 A 
ATOM     28  O   UNL d   1      61.172  46.968  49.902  0.00  0.00    -0.302 OA
ATOM     29  C   UNL d   1      61.538  46.352  49.496  0.00  0.00     0.123 A 
ATOM     30  C   UNL d   1      61.318  45.651  49.853  0.00  0.00     0.029 A 
ATOM     31  C   UNL d   1      60.816  45.830  50.480  0.00  0.00     0.030 A 
ENDBRANCH  25  27
ENDBRANCH   1  25
TORSDOF 7
ENDMDL
