MODEL 1
REMARK VINA RESULT:      -7.4      0.000      0.000
REMARK  3 active torsions:
REMARK  status: ('A' for Active; 'I' for Inactive)
REMARK    1  A    between atoms: C_10  and  C_3 
REMARK    2  A    between atoms: C_13  and  C_7 
REMARK    3  A    between atoms: C_12  and  C_13 
ROOT
ATOM      1  C   UNL d   1     -48.976  12.609  23.200  0.00  0.00     0.171 A 
ATOM      2  N   UNL d   1     -48.390  12.084  23.446  0.00  0.00    -0.212 N 
ATOM      3  C   UNL d   1     -49.710  12.234  23.295  0.00  0.00     0.121 A 
ATOM      4  N   UNL d   1     -48.773  13.355  22.924  0.00  0.00    -0.227 NA
ATOM      5  N   UNL d   1     -48.759  11.380  23.695  0.00  0.00    -0.162 NA
ATOM      6  C   UNL d   1     -47.599  12.302  23.417  0.00  0.00     0.086 A 
ATOM      7  C   UNL d   1     -47.394  13.051  23.139  0.00  0.00     0.035 A 
ATOM      8  C   UNL d   1     -47.979  13.576  22.893  0.00  0.00     0.085 A 
ATOM      9  C   UNL d   1     -49.578  11.478  23.599  0.00  0.00     0.130 A 
ATOM     10  C   UNL d   1     -47.013  11.776  23.664  0.00  0.00     0.021 C 
ATOM     11  C   UNL d   1     -47.772  14.326  22.615  0.00  0.00     0.021 C 
ENDROOT
BRANCH   3  12
ATOM     12  C   UNL d   1     -50.445  12.562  23.115  0.00  0.00     0.215 C 
ATOM     13  O   UNL d   1     -50.752  12.499  22.348  0.00  0.00    -0.644 OA
ATOM     14  O   UNL d   1     -50.882  12.956  23.698  0.00  0.00    -0.644 OA
ENDBRANCH   3  12
BRANCH   7  15
ATOM     15  C   UNL d   1     -46.600  13.272  23.109  0.00  0.00     0.003 C 
BRANCH  15  16
ATOM     16  C   UNL d   1     -46.196  13.247  22.391  0.00  0.00     0.000 C 
ATOM     17  C   UNL d   1     -45.384  13.396  22.372  0.00  0.00     0.000 C 
ENDBRANCH  15  16
ENDBRANCH   7  15
TORSDOF 3
ENDMDL
MODEL 2
REMARK VINA RESULT:      -7.4      2.096      3.608
REMARK  3 active torsions:
REMARK  status: ('A' for Active; 'I' for Inactive)
REMARK    1  A    between atoms: C_10  and  C_3 
REMARK    2  A    between atoms: C_13  and  C_7 
REMARK    3  A    between atoms: C_12  and  C_13 
ROOT
ATOM      1  C   UNL d   1     -47.306  13.304  22.629  0.00  0.00     0.171 A 
ATOM      2  N   UNL d   1     -47.745  14.000  22.582  0.00  0.00    -0.212 N 
ATOM      3  C   UNL d   1     -46.527  13.510  22.827  0.00  0.00     0.121 A 
ATOM      4  N   UNL d   1     -47.662  12.579  22.487  0.00  0.00    -0.227 NA
ATOM      5  N   UNL d   1     -47.241  14.639  22.751  0.00  0.00    -0.162 NA
ATOM      6  C   UNL d   1     -48.544  13.973  22.393  0.00  0.00     0.086 A 
ATOM      7  C   UNL d   1     -48.904  13.245  22.250  0.00  0.00     0.035 A 
ATOM      8  C   UNL d   1     -48.464  12.549  22.297  0.00  0.00     0.085 A 
ATOM      9  C   UNL d   1     -46.485  14.330  22.903  0.00  0.00     0.130 A 
ATOM     10  C   UNL d   1     -48.985  14.669  22.345  0.00  0.00     0.021 C 
ATOM     11  C   UNL d   1     -48.826  11.820  22.154  0.00  0.00     0.021 C 
ENDROOT
BRANCH   3  12
ATOM     12  C   UNL d   1     -45.901  12.982  22.931  0.00  0.00     0.215 C 
ATOM     13  O   UNL d   1     -45.337  12.883  22.332  0.00  0.00    -0.644 OA
ATOM     14  O   UNL d   1     -45.832  12.547  23.632  0.00  0.00    -0.644 OA
ENDBRANCH   3  12
BRANCH   7  15
ATOM     15  C   UNL d   1     -49.706  13.215  22.060  0.00  0.00     0.003 C 
BRANCH  15  16
ATOM     16  C   UNL d   1     -50.263  13.096  22.657  0.00  0.00     0.000 C 
ATOM     17  C   UNL d   1     -51.064  13.041  22.464  0.00  0.00     0.000 C 
ENDBRANCH  15  16
ENDBRANCH   7  15
TORSDOF 3
ENDMDL
MODEL 3
REMARK VINA RESULT:      -7.3      1.370      2.437
REMARK  3 active torsions:
REMARK  status: ('A' for Active; 'I' for Inactive)
REMARK    1  A    between atoms: C_10  and  C_3 
REMARK    2  A    between atoms: C_13  and  C_7 
REMARK    3  A    between atoms: C_12  and  C_13 
ROOT
ATOM      1  C   UNL d   1     -48.895  14.173  22.898  0.00  0.00     0.171 A 
ATOM      2  N   UNL d   1     -48.091  14.172  22.719  0.00  0.00    -0.212 N 
ATOM      3  C   UNL d   1     -49.172  14.952  22.820  0.00  0.00     0.121 A 
ATOM      4  N   UNL d   1     -49.274  13.476  23.107  0.00  0.00    -0.227 NA
ATOM      5  N   UNL d   1     -47.865  14.950  22.529  0.00  0.00    -0.162 NA
ATOM      6  C   UNL d   1     -47.661  13.473  22.748  0.00  0.00     0.086 A 
ATOM      7  C   UNL d   1     -48.039  12.772  22.959  0.00  0.00     0.035 A 
ATOM      8  C   UNL d   1     -48.844  12.773  23.137  0.00  0.00     0.085 A 
ATOM      9  C   UNL d   1     -48.539  15.431  22.593  0.00  0.00     0.130 A 
ATOM     10  C   UNL d   1     -46.855  13.472  22.569  0.00  0.00     0.021 C 
ATOM     11  C   UNL d   1     -49.222  12.068  23.348  0.00  0.00     0.021 C 
ENDROOT
BRANCH   3  12
ATOM     12  C   UNL d   1     -49.947  15.202  22.947  0.00  0.00     0.215 C 
ATOM     13  O   UNL d   1     -50.494  15.196  22.325  0.00  0.00    -0.644 OA
ATOM     14  O   UNL d   1     -50.186  15.461  23.697  0.00  0.00    -0.644 OA
ENDBRANCH   3  12
BRANCH   7  15
ATOM     15  C   UNL d   1     -47.609  12.069  22.989  0.00  0.00     0.003 C 
BRANCH  15  16
ATOM     16  C   UNL d   1     -47.223  11.856  23.685  0.00  0.00     0.000 C 
ATOM     17  C   UNL d   1     -46.739  11.186  23.698  0.00  0.00     0.000 C 
ENDBRANCH  15  16
ENDBRANCH   7  15
TORSDOF 3
ENDMDL
MODEL 4
REMARK VINA RESULT:      -5.3      8.813      9.653
REMARK  3 active torsions:
REMARK  status: ('A' for Active; 'I' for Inactive)
REMARK    1  A    between atoms: C_10  and  C_3 
REMARK    2  A    between atoms: C_13  and  C_7 
REMARK    3  A    between atoms: C_12  and  C_13 
ROOT
ATOM      1  C   UNL d   1     -40.222  14.885  18.742  0.00  0.00     0.171 A 
ATOM      2  N   UNL d   1     -39.653  14.410  19.102  0.00  0.00    -0.212 N 
ATOM      3  C   UNL d   1     -40.197  14.737  17.926  0.00  0.00     0.121 A 
ATOM      4  N   UNL d   1     -40.689  15.388  19.193  0.00  0.00    -0.227 NA
ATOM      5  N   UNL d   1     -39.272  13.966  18.511  0.00  0.00    -0.162 NA
ATOM      6  C   UNL d   1     -39.548  14.436  19.916  0.00  0.00     0.086 A 
ATOM      7  C   UNL d   1     -40.015  14.940  20.371  0.00  0.00     0.035 A 
ATOM      8  C   UNL d   1     -40.584  15.415  20.011  0.00  0.00     0.085 A 
ATOM      9  C   UNL d   1     -39.613  14.172  17.782  0.00  0.00     0.130 A 
ATOM     10  C   UNL d   1     -38.978  13.960  20.277  0.00  0.00     0.021 C 
ATOM     11  C   UNL d   1     -41.053  15.920  20.469  0.00  0.00     0.021 C 
ENDROOT
BRANCH   3  12
ATOM     12  C   UNL d   1     -40.674  15.095  17.356  0.00  0.00     0.215 C 
ATOM     13  O   UNL d   1     -40.425  15.792  16.983  0.00  0.00    -0.644 OA
ATOM     14  O   UNL d   1     -41.405  14.764  17.154  0.00  0.00    -0.644 OA
ENDBRANCH   3  12
BRANCH   7  15
ATOM     15  C   UNL d   1     -39.911  14.967  21.189  0.00  0.00     0.003 C 
BRANCH  15  16
ATOM     16  C   UNL d   1     -39.431  15.549  21.520  0.00  0.00     0.000 C 
ATOM     17  C   UNL d   1     -39.299  15.556  22.336  0.00  0.00     0.000 C 
ENDBRANCH  15  16
ENDBRANCH   7  15
TORSDOF 3
ENDMDL
