MODEL 1
REMARK VINA RESULT:      40.4      0.000      0.000
REMARK  10 active torsions:
REMARK  status: ('A' for Active; 'I' for Inactive)
REMARK    1  A    between atoms: C_5  and  C_1 
REMARK    2  A    between atoms: C_8  and  N_2 
REMARK    3  A    between atoms: C_9  and  C_5 
REMARK    4  A    between atoms: C_7  and  C_8 
REMARK       I    between atoms: N_13  and  C_7 
REMARK       I    between atoms: N_19  and  C_9 
REMARK    5  A    between atoms: N_11  and  C_21 
REMARK    6  A    between atoms: C_24  and  N_13 
REMARK    7  A    between atoms: C_25  and  N_13 
REMARK    8  A    between atoms: C_26  and  N_19 
REMARK    9  A    between atoms: C_21  and  C_23 
REMARK   10  A    between atoms: C_23  and  C_26 
ROOT
ATOM      1  C   UNL d   1      45.986 -18.143  42.168  0.00  0.00     0.063 A 
ATOM      2  N   UNL d   1      46.158 -17.596  43.379  0.00  0.00    -0.300 N 
ATOM      3  C   UNL d   1      45.959 -17.425  42.598  0.00  0.00     0.084 A 
ATOM      4  C   UNL d   1      46.201 -18.744  42.690  0.00  0.00     0.021 A 
ATOM      5  C   UNL d   1      46.308 -18.400  43.444  0.00  0.00     0.064 A 
ATOM      6  C   UNL d   1      46.314 -19.547  42.588  0.00  0.00     0.002 A 
ATOM      7  C   UNL d   1      46.527 -18.879  44.080  0.00  0.00     0.018 A 
ATOM      8  C   UNL d   1      46.535 -20.028  43.226  0.00  0.00     0.000 A 
ATOM      9  C   UNL d   1      46.640 -19.687  43.971  0.00  0.00     0.002 A 
ENDROOT
BRANCH   1  10
ATOM     10  C   UNL d   1      45.826 -18.227  41.366  0.00  0.00     0.254 C 
ATOM     11  O   UNL d   1      46.447 -18.367  40.839  0.00  0.00    -0.281 OA
BRANCH  10  12
ATOM     12  C   UNL d   1      45.053 -18.173  41.085  0.00  0.00     0.318 C 
ATOM     13  O   UNL d   1      44.432 -18.443  41.553  0.00  0.00    -0.262 OA
ATOM     14  N   UNL d   1      44.909 -17.849  40.340  0.00  0.00    -0.204 NA
BRANCH  14  15
ATOM     15  C   UNL d   1      45.533 -17.583  39.881  0.00  0.00     0.104 C 
BRANCH  15  16
ATOM     16  C   UNL d   1      45.392 -17.359  39.102  0.00  0.00     0.040 C 
BRANCH  16  17
ATOM     17  C   UNL d   1      45.206 -16.568  38.930  0.00  0.00     0.083 C 
BRANCH  17  18
ATOM     18  N   UNL d   1      44.943 -16.358  38.169  0.00  0.00    -0.285 N 
ATOM     19  C   UNL d   1      45.415 -16.040  37.572  0.00  0.00     0.183 A 
ATOM     20  N   UNL d   1      44.920 -15.918  36.911  0.00  0.00    -0.222 NA
ATOM     21  C   UNL d   1      44.146 -16.162  37.108  0.00  0.00     0.120 A 
ATOM     22  C   UNL d   1      44.171 -16.434  37.892  0.00  0.00     0.102 A 
ENDBRANCH  17  18
ENDBRANCH  16  17
ENDBRANCH  15  16
ENDBRANCH  14  15
ENDBRANCH  10  12
ENDBRANCH   1  10
BRANCH   2  23
ATOM     23  C   UNL d   1      46.200 -17.047  43.994  0.00  0.00     0.142 C 
BRANCH  23  24
ATOM     24  C   UNL d   1      45.572 -16.540  44.139  0.00  0.00     0.282 C 
ATOM     25  N   UNL d   1      45.706 -15.797  44.471  0.00  0.00    -0.271 N 
ATOM     26  O   UNL d   1      44.802 -16.776  43.951  0.00  0.00    -0.265 OA
BRANCH  25  27
ATOM     27  C   UNL d   1      46.473 -15.561  44.658  0.00  0.00     0.083 C 
ATOM     28  C   UNL d   1      46.647 -14.764  44.750  0.00  0.00     0.021 C 
ENDBRANCH  25  27
BRANCH  25  29
ATOM     29  C   UNL d   1      45.070 -15.289  44.615  0.00  0.00     0.083 C 
ATOM     30  C   UNL d   1      44.998 -14.588  44.186  0.00  0.00     0.021 C 
ENDBRANCH  25  29
ENDBRANCH  23  24
ENDBRANCH   2  23
TORSDOF 10
ENDMDL
