MODEL 1
REMARK VINA RESULT:      88.1      0.000      0.000
REMARK  3 active torsions:
REMARK  status: ('A' for Active; 'I' for Inactive)
REMARK    1  A    between atoms: N_3  and  C_1 
REMARK       I    between atoms: C_5  and  N_3 
REMARK    2  A    between atoms: C_9  and  C_5 
REMARK    3  A    between atoms: O_22  and  C_20 
ROOT
ATOM      1  N   UNL d   1      58.955  49.056  53.041  0.00  0.00    -0.183 NA
ATOM      2  C   UNL d   1      59.218  49.401  53.743  0.00  0.00     0.281 C 
ATOM      3  O   UNL d   1      60.004  49.706  53.788  0.00  0.00    -0.265 OA
ENDROOT
BRANCH   1   4
ATOM      4  C   UNL d   1      59.449  49.005  52.384  0.00  0.00     0.197 A 
ATOM      5  N   UNL d   1      59.505  49.579  51.786  0.00  0.00    -0.221 NA
ATOM      6  C   UNL d   1      60.066  49.303  51.238  0.00  0.00     0.090 A 
ATOM      7  C   UNL d   1      60.348  49.633  50.537  0.00  0.00     0.022 A 
ATOM      8  C   UNL d   1      60.342  48.572  51.503  0.00  0.00     0.052 A 
ATOM      9  C   UNL d   1      60.920  49.216  50.101  0.00  0.00     0.026 A 
ATOM     10  C   UNL d   1      61.193  48.493  50.363  0.00  0.00     0.095 A 
ATOM     11  C   UNL d   1      60.913  48.154  51.067  0.00  0.00     0.032 A 
ATOM     12  S   UNL d   1      59.959  48.401  52.204  0.00  0.00    -0.047 SA
BRANCH  10  13
ATOM     13  O   UNL d   1      61.781  48.058  49.918  0.00  0.00    -0.328 OA
ATOM     14  C   UNL d   1      61.832  47.225  50.017  0.00  0.00     0.181 C 
ENDBRANCH  10  13
ENDBRANCH   1   4
BRANCH   2  15
ATOM     15  C   UNL d   1      58.723  49.453  54.401  0.00  0.00     0.059 A 
ATOM     16  C   UNL d   1      57.914  49.546  54.293  0.00  0.00     0.013 A 
ATOM     17  C   UNL d   1      57.412  49.598  54.938  0.00  0.00     0.049 A 
ATOM     18  S   UNL d   1      56.588  49.692  54.998  0.00  0.00    -0.064 SA
ATOM     19  C   UNL d   1      57.726  49.556  55.716  0.00  0.00     0.088 A 
ATOM     20  C   UNL d   1      56.406  49.707  55.808  0.00  0.00     0.135 A 
ATOM     21  N   UNL d   1      57.091  49.625  56.254  0.00  0.00    -0.236 NA
ATOM     22  C   UNL d   1      58.542  49.462  55.837  0.00  0.00     0.020 A 
ATOM     23  C   UNL d   1      59.037  49.411  55.179  0.00  0.00     0.006 A 
ENDBRANCH   2  15
TORSDOF 3
ENDMDL
