MODEL 1
REMARK VINA RESULT:      21.5      0.000      0.000
REMARK  4 active torsions:
REMARK  status: ('A' for Active; 'I' for Inactive)
REMARK    1  A    between atoms: C_15  and  C_2 
REMARK    2  A    between atoms: C_3  and  N_6 
REMARK    3  A    between atoms: C_5  and  C_16 
REMARK       I    between atoms: N_6  and  C_5 
REMARK    4  A    between atoms: C_16  and  C_15 
ROOT
ATOM      1  C   UNL d   1      22.202  13.158  -1.813  0.00  0.00     0.279 C 
ATOM      2  N   UNL d   1      22.304  13.269  -1.005  0.00  0.00    -0.208 NA
ATOM      3  O   UNL d   1      21.448  13.147  -2.136  0.00  0.00    -0.265 OA
ENDROOT
BRANCH   1   4
ATOM      4  C   UNL d   1      22.855  13.058  -2.306  0.00  0.00     0.065 C 
BRANCH   4   5
ATOM      5  C   UNL d   1      22.848  12.478  -2.886  0.00  0.00     0.030 C 
BRANCH   5   6
ATOM      6  C   UNL d   1      23.521  12.340  -3.342  0.00  0.00     0.100 A 
ATOM      7  O   UNL d   1      23.674  12.626  -4.102  0.00  0.00    -0.307 OA
ATOM      8  C   UNL d   1      24.405  12.354  -4.345  0.00  0.00     0.100 A 
ATOM      9  C   UNL d   1      24.716  11.892  -3.733  0.00  0.00     0.027 A 
ATOM     10  C   UNL d   1      24.766  12.508  -5.061  0.00  0.00     0.027 C 
ATOM     11  C   UNL d   1      24.171  11.883  -3.115  0.00  0.00     0.027 A 
ENDBRANCH   5   6
ENDBRANCH   4   5
ENDBRANCH   1   4
BRANCH   2  12
ATOM     12  C   UNL d   1      23.068  13.280  -0.684  0.00  0.00     0.085 A 
ATOM     13  C   UNL d   1      23.429  14.002  -0.508  0.00  0.00     0.019 A 
ATOM     14  C   UNL d   1      24.183  14.015  -0.191  0.00  0.00     0.002 A 
ATOM     15  C   UNL d   1      24.541  14.733  -0.017  0.00  0.00     0.000 C 
ATOM     16  C   UNL d   1      24.587  13.301  -0.045  0.00  0.00     0.000 A 
ATOM     17  C   UNL d   1      24.215  12.583  -0.225  0.00  0.00     0.002 A 
ATOM     18  C   UNL d   1      23.463  12.573  -0.541  0.00  0.00     0.019 A 
ATOM     19  C   UNL d   1      24.617  11.874  -0.080  0.00  0.00     0.000 C 
ENDBRANCH   2  12
TORSDOF 4
ENDMDL
MODEL 2
REMARK VINA RESULT:      23.5      8.599     10.021
REMARK  4 active torsions:
REMARK  status: ('A' for Active; 'I' for Inactive)
REMARK    1  A    between atoms: C_15  and  C_2 
REMARK    2  A    between atoms: C_3  and  N_6 
REMARK    3  A    between atoms: C_5  and  C_16 
REMARK       I    between atoms: N_6  and  C_5 
REMARK    4  A    between atoms: C_16  and  C_15 
ROOT
ATOM      1  C   UNL d   1      13.475  12.369  -3.394  0.00  0.00     0.279 C 
ATOM      2  N   UNL d   1      13.699  11.779  -2.868  0.00  0.00    -0.208 NA
ATOM      3  O   UNL d   1      13.235  12.176  -4.154  0.00  0.00    -0.265 OA
ENDROOT
BRANCH   1   4
ATOM      4  C   UNL d   1      13.489  13.161  -3.164  0.00  0.00     0.065 C 
BRANCH   4   5
ATOM      5  C   UNL d   1      13.137  13.734  -3.633  0.00  0.00     0.030 C 
BRANCH   5   6
ATOM      6  C   UNL d   1      13.523  14.448  -3.776  0.00  0.00     0.100 A 
ATOM      7  O   UNL d   1      13.847  14.960  -3.214  0.00  0.00    -0.307 OA
ATOM      8  C   UNL d   1      14.175  15.601  -3.599  0.00  0.00     0.100 A 
ATOM      9  C   UNL d   1      14.058  15.493  -4.411  0.00  0.00     0.027 A 
ATOM     10  C   UNL d   1      14.552  16.236  -3.249  0.00  0.00     0.027 C 
ATOM     11  C   UNL d   1      13.656  14.782  -4.520  0.00  0.00     0.027 A 
ENDBRANCH   5   6
ENDBRANCH   4   5
ENDBRANCH   1   4
BRANCH   2  12
ATOM     12  C   UNL d   1      13.940  11.980  -2.101  0.00  0.00     0.085 A 
ATOM     13  C   UNL d   1      13.463  11.783  -1.456  0.00  0.00     0.019 A 
ATOM     14  C   UNL d   1      13.699  11.980  -0.699  0.00  0.00     0.002 A 
ATOM     15  C   UNL d   1      13.225  11.784  -0.058  0.00  0.00     0.000 C 
ATOM     16  C   UNL d   1      14.420  12.380  -0.576  0.00  0.00     0.000 A 
ATOM     17  C   UNL d   1      14.891  12.573  -1.231  0.00  0.00     0.002 A 
ATOM     18  C   UNL d   1      14.652  12.375  -1.985  0.00  0.00     0.019 A 
ATOM     19  C   UNL d   1      15.606  12.970  -1.109  0.00  0.00     0.000 C 
ENDBRANCH   2  12
TORSDOF 4
ENDMDL
