MODEL 1
REMARK VINA RESULT:       0.7      0.000      0.000
REMARK  5 active torsions:
REMARK  status: ('A' for Active; 'I' for Inactive)
REMARK    1  A    between atoms: C_9  and  C_3 
REMARK    2  A    between atoms: C_8  and  C_4 
REMARK    3  A    between atoms: C_11  and  C_8 
REMARK    4  A    between atoms: O_16  and  C_9 
REMARK    5  A    between atoms: C_18  and  C_11 
ROOT
ATOM      1  N   UNL d   1      29.950  17.467 -24.456  0.00  0.00    -0.254 N 
ATOM      2  C   UNL d   1      29.422  16.882 -24.211  0.00  0.00     0.182 A 
ATOM      3  C   UNL d   1      31.034  16.710 -23.924  0.00  0.00     0.097 A 
ATOM      4  C   UNL d   1      30.757  17.385 -24.314  0.00  0.00     0.075 A 
ATOM      5  N   UNL d   1      29.704  16.214 -23.823  0.00  0.00    -0.222 NA
ATOM      6  C   UNL d   1      30.509  16.123 -23.678  0.00  0.00     0.090 A 
ATOM      7  C   UNL d   1      29.668  18.137 -24.844  0.00  0.00     0.267 A 
ATOM      8  S   UNL d   1      28.619  16.963 -24.351  0.00  0.00    -0.049 SA
ATOM      9  C   UNL d   1      28.861  18.219 -24.985  0.00  0.00     0.068 A 
ATOM     10  O   UNL d   1      30.193  18.724 -25.090  0.00  0.00    -0.267 OA
ATOM     11  C   UNL d   1      28.337  17.632 -24.739  0.00  0.00     0.043 A 
ATOM     12  C   UNL d   1      30.785  15.453 -23.290  0.00  0.00     0.021 C 
ENDROOT
BRANCH   4  13
ATOM     13  C   UNL d   1      31.282  17.972 -24.561  0.00  0.00     0.018 C 
BRANCH  13  14
ATOM     14  C   UNL d   1      31.303  18.692 -24.154  0.00  0.00     0.002 C 
BRANCH  14  15
ATOM     15  C   UNL d   1      31.950  19.194 -24.250  0.00  0.00     0.000 A 
ATOM     16  C   UNL d   1      32.261  19.594 -23.604  0.00  0.00     0.000 A 
ATOM     17  C   UNL d   1      32.908  20.096 -23.704  0.00  0.00     0.000 A 
ATOM     18  C   UNL d   1      33.241  20.196 -24.451  0.00  0.00     0.000 A 
ATOM     19  C   UNL d   1      32.926  19.793 -25.096  0.00  0.00     0.000 A 
ATOM     20  C   UNL d   1      32.280  19.291 -24.996  0.00  0.00     0.000 A 
ENDBRANCH  14  15
ENDBRANCH  13  14
ENDBRANCH   4  13
BRANCH   3  21
ATOM     21  C   UNL d   1      31.838  16.625 -23.781  0.00  0.00     0.299 C 
ATOM     22  O   UNL d   1      32.134  16.681 -23.013  0.00  0.00    -0.259 OA
BRANCH  21  23
ATOM     23  O   UNL d   1      32.356  16.482 -24.405  0.00  0.00    -0.296 OA
ATOM     24  C   UNL d   1      33.141  16.271 -24.261  0.00  0.00     0.185 C 
ENDBRANCH  21  23
ENDBRANCH   3  21
TORSDOF 5
ENDMDL
MODEL 2
REMARK VINA RESULT:       2.0      3.933      5.840
REMARK  5 active torsions:
REMARK  status: ('A' for Active; 'I' for Inactive)
REMARK    1  A    between atoms: C_9  and  C_3 
REMARK    2  A    between atoms: C_8  and  C_4 
REMARK    3  A    between atoms: C_11  and  C_8 
REMARK    4  A    between atoms: O_16  and  C_9 
REMARK    5  A    between atoms: C_18  and  C_11 
ROOT
ATOM      1  N   UNL d   1      32.802  21.728 -20.761  0.00  0.00    -0.254 N 
ATOM      2  C   UNL d   1      32.586  22.429 -20.382  0.00  0.00     0.182 A 
ATOM      3  C   UNL d   1      32.570  22.343 -22.026  0.00  0.00     0.097 A 
ATOM      4  C   UNL d   1      32.795  21.681 -21.583  0.00  0.00     0.075 A 
ATOM      5  N   UNL d   1      32.364  23.083 -20.828  0.00  0.00    -0.222 NA
ATOM      6  C   UNL d   1      32.354  23.045 -21.650  0.00  0.00     0.090 A 
ATOM      7  C   UNL d   1      33.025  21.073 -20.315  0.00  0.00     0.267 A 
ATOM      8  S   UNL d   1      32.593  22.477 -19.563  0.00  0.00    -0.049 SA
ATOM      9  C   UNL d   1      33.031  21.120 -19.493  0.00  0.00     0.068 A 
ATOM     10  O   UNL d   1      33.241  20.371 -20.690  0.00  0.00    -0.267 OA
ATOM     11  C   UNL d   1      32.815  21.822 -19.117  0.00  0.00     0.043 A 
ATOM     12  C   UNL d   1      32.131  23.702 -22.090  0.00  0.00     0.021 C 
ENDROOT
BRANCH   4  13
ATOM     13  C   UNL d   1      33.011  20.979 -21.959  0.00  0.00     0.018 C 
BRANCH  13  14
ATOM     14  C   UNL d   1      32.619  20.278 -21.763  0.00  0.00     0.002 C 
BRANCH  14  15
ATOM     15  C   UNL d   1      32.669  19.629 -22.269  0.00  0.00     0.000 A 
ATOM     16  C   UNL d   1      32.264  19.633 -22.984  0.00  0.00     0.000 A 
ATOM     17  C   UNL d   1      32.316  18.981 -23.488  0.00  0.00     0.000 A 
ATOM     18  C   UNL d   1      32.773  18.330 -23.274  0.00  0.00     0.000 A 
ATOM     19  C   UNL d   1      33.177  18.330 -22.557  0.00  0.00     0.000 A 
ATOM     20  C   UNL d   1      33.124  18.982 -22.053  0.00  0.00     0.000 A 
ENDBRANCH  14  15
ENDBRANCH  13  14
ENDBRANCH   4  13
BRANCH   3  21
ATOM     21  C   UNL d   1      32.563  22.300 -22.845  0.00  0.00     0.299 C 
ATOM     22  O   UNL d   1      31.878  22.073 -23.245  0.00  0.00    -0.259 OA
BRANCH  21  23
ATOM     23  O   UNL d   1      33.240  22.483 -23.276  0.00  0.00    -0.296 OA
ATOM     24  C   UNL d   1      33.205  22.583 -24.094  0.00  0.00     0.185 C 
ENDBRANCH  21  23
ENDBRANCH   3  21
TORSDOF 5
ENDMDL
