MODEL 1
REMARK VINA RESULT:      -7.0      0.000      0.000
REMARK  5 active torsions:
REMARK  status: ('A' for Active; 'I' for Inactive)
REMARK    1  A    between atoms: C_6  and  N_1 
REMARK    2  A    between atoms: C_8  and  C_4 
REMARK    3  A    between atoms: C_13  and  C_8 
REMARK    4  A    between atoms: O_20  and  C_11 
REMARK    5  A    between atoms: O_21  and  C_16 
ROOT
ATOM      1  N   UNL d   1     -49.167  13.190  22.481  0.00  0.00    -0.231 N 
ATOM      2  C   UNL d   1     -48.932  12.414  22.318  0.00  0.00     0.204 A 
ATOM      3  C   UNL d   1     -48.576  13.543  22.936  0.00  0.00     0.274 A 
ATOM      4  C   UNL d   1     -47.974  12.985  23.055  0.00  0.00     0.089 A 
ATOM      5  S   UNL d   1     -48.201  12.293  22.671  0.00  0.00    -0.043 SA
ATOM      6  N   UNL d   1     -49.364  11.865  21.876  0.00  0.00    -0.121 N 
ATOM      7  O   UNL d   1     -48.582  14.320  23.225  0.00  0.00    -0.266 OA
ENDROOT
BRANCH   4   8
ATOM      8  C   UNL d   1     -47.284  13.106  23.477  0.00  0.00     0.011 C 
BRANCH   8   9
ATOM      9  C   UNL d   1     -46.555  12.939  23.134  0.00  0.00     0.003 A 
ATOM     10  C   UNL d   1     -46.134  12.264  23.352  0.00  0.00     0.026 A 
ATOM     11  C   UNL d   1     -45.409  12.097  23.010  0.00  0.00     0.116 A 
ATOM     12  C   UNL d   1     -45.087  12.609  22.438  0.00  0.00     0.116 A 
ATOM     13  C   UNL d   1     -45.513  13.287  22.222  0.00  0.00     0.026 A 
ATOM     14  C   UNL d   1     -46.239  13.454  22.563  0.00  0.00     0.002 A 
BRANCH  11  15
ATOM     15  O   UNL d   1     -44.994  11.418  23.234  0.00  0.00    -0.326 OA
ATOM     16  C   UNL d   1     -45.370  10.838  23.696  0.00  0.00     0.181 C 
ENDBRANCH  11  15
BRANCH  12  17
ATOM     17  O   UNL d   1     -44.364  12.449  22.093  0.00  0.00    -0.326 OA
ATOM     18  C   UNL d   1     -44.095  12.903  21.458  0.00  0.00     0.181 C 
ENDBRANCH  12  17
ENDBRANCH   8   9
ENDBRANCH   4   8
BRANCH   1  19
ATOM     19  C   UNL d   1     -49.865  13.555  22.237  0.00  0.00     0.183 A 
ATOM     20  N   UNL d   1     -50.084  13.725  21.468  0.00  0.00    -0.220 NA
ATOM     21  C   UNL d   1     -50.822  14.088  21.480  0.00  0.00     0.108 A 
ATOM     22  C   UNL d   1     -51.062  14.143  22.271  0.00  0.00     0.059 A 
ATOM     23  S   UNL d   1     -50.470  13.813  22.735  0.00  0.00    -0.048 SA
ENDBRANCH   1  19
TORSDOF 5
ENDMDL
MODEL 2
REMARK VINA RESULT:      -5.5      8.670      9.573
REMARK  5 active torsions:
REMARK  status: ('A' for Active; 'I' for Inactive)
REMARK    1  A    between atoms: C_6  and  N_1 
REMARK    2  A    between atoms: C_8  and  C_4 
REMARK    3  A    between atoms: C_13  and  C_8 
REMARK    4  A    between atoms: O_20  and  C_11 
REMARK    5  A    between atoms: O_21  and  C_16 
ROOT
ATOM      1  N   UNL d   1     -39.059  14.885  21.408  0.00  0.00    -0.231 N 
ATOM      2  C   UNL d   1     -39.712  15.382  21.301  0.00  0.00     0.204 A 
ATOM      3  C   UNL d   1     -38.652  14.844  20.692  0.00  0.00     0.274 A 
ATOM      4  C   UNL d   1     -39.052  15.315  20.140  0.00  0.00     0.089 A 
ATOM      5  S   UNL d   1     -39.704  15.643  20.522  0.00  0.00    -0.043 SA
ATOM      6  N   UNL d   1     -40.269  15.575  21.881  0.00  0.00    -0.121 N 
ATOM      7  O   UNL d   1     -37.962  14.407  20.549  0.00  0.00    -0.266 OA
ENDROOT
BRANCH   4   8
ATOM      8  C   UNL d   1     -38.835  15.430  19.359  0.00  0.00     0.011 C 
BRANCH   8   9
ATOM      9  C   UNL d   1     -39.380  15.302  18.756  0.00  0.00     0.003 A 
ATOM     10  C   UNL d   1     -39.425  14.571  18.379  0.00  0.00     0.026 A 
ATOM     11  C   UNL d   1     -39.967  14.444  17.778  0.00  0.00     0.116 A 
ATOM     12  C   UNL d   1     -40.480  15.055  17.542  0.00  0.00     0.116 A 
ATOM     13  C   UNL d   1     -40.433  15.790  17.923  0.00  0.00     0.026 A 
ATOM     14  C   UNL d   1     -39.891  15.917  18.524  0.00  0.00     0.002 A 
BRANCH  11  15
ATOM     15  O   UNL d   1     -40.005  13.708  17.406  0.00  0.00    -0.326 OA
ATOM     16  C   UNL d   1     -39.358  13.187  17.453  0.00  0.00     0.181 C 
ENDBRANCH  11  15
BRANCH  12  17
ATOM     17  O   UNL d   1     -41.024  14.935  16.943  0.00  0.00    -0.326 OA
ATOM     18  C   UNL d   1     -41.409  15.578  16.595  0.00  0.00     0.181 C 
ENDBRANCH  12  17
ENDBRANCH   8   9
ENDBRANCH   4   8
BRANCH   1  19
ATOM     19  C   UNL d   1     -38.846  14.497  22.103  0.00  0.00     0.183 A 
ATOM     20  N   UNL d   1     -38.427  14.813  22.731  0.00  0.00    -0.220 NA
ATOM     21  C   UNL d   1     -38.339  14.231  23.306  0.00  0.00     0.108 A 
ATOM     22  C   UNL d   1     -38.711  13.545  23.028  0.00  0.00     0.059 A 
ATOM     23  S   UNL d   1     -39.021  13.712  22.287  0.00  0.00    -0.048 SA
ENDBRANCH   1  19
TORSDOF 5
ENDMDL
MODEL 3
REMARK VINA RESULT:      -5.2      8.238      8.895
REMARK  5 active torsions:
REMARK  status: ('A' for Active; 'I' for Inactive)
REMARK    1  A    between atoms: C_6  and  N_1 
REMARK    2  A    between atoms: C_8  and  C_4 
REMARK    3  A    between atoms: C_13  and  C_8 
REMARK    4  A    between atoms: O_20  and  C_11 
REMARK    5  A    between atoms: O_21  and  C_16 
ROOT
ATOM      1  N   UNL d   1     -40.070  14.827  18.595  0.00  0.00    -0.231 N 
ATOM      2  C   UNL d   1     -39.311  14.548  18.773  0.00  0.00     0.204 A 
ATOM      3  C   UNL d   1     -40.529  14.765  19.278  0.00  0.00     0.274 A 
ATOM      4  C   UNL d   1     -40.056  14.447  19.879  0.00  0.00     0.089 A 
ATOM      5  S   UNL d   1     -39.307  14.316  19.561  0.00  0.00    -0.043 SA
ATOM      6  N   UNL d   1     -38.677  14.513  18.245  0.00  0.00    -0.121 N 
ATOM      7  O   UNL d   1     -41.326  14.982  19.350  0.00  0.00    -0.266 OA
ENDROOT
BRANCH   4   8
ATOM      8  C   UNL d   1     -40.294  14.293  20.647  0.00  0.00     0.011 C 
BRANCH   8   9
ATOM      9  C   UNL d   1     -39.814  14.510  21.280  0.00  0.00     0.003 A 
ATOM     10  C   UNL d   1     -39.378  13.942  21.689  0.00  0.00     0.026 A 
ATOM     11  C   UNL d   1     -38.901  14.158  22.319  0.00  0.00     0.116 A 
ATOM     12  C   UNL d   1     -38.850  14.955  22.552  0.00  0.00     0.116 A 
ATOM     13  C   UNL d   1     -39.290  15.524  22.138  0.00  0.00     0.026 A 
ATOM     14  C   UNL d   1     -39.767  15.308  21.508  0.00  0.00     0.002 A 
BRANCH  11  15
ATOM     15  O   UNL d   1     -38.468  13.583  22.724  0.00  0.00    -0.326 OA
ATOM     16  C   UNL d   1     -38.111  12.961  22.302  0.00  0.00     0.181 C 
ENDBRANCH  11  15
BRANCH  12  17
ATOM     17  O   UNL d   1     -38.376  15.178  23.179  0.00  0.00    -0.326 OA
ATOM     18  C   UNL d   1     -38.466  15.922  23.527  0.00  0.00     0.181 C 
ENDBRANCH  12  17
ENDBRANCH   8   9
ENDBRANCH   4   8
BRANCH   1  19
ATOM     19  C   UNL d   1     -40.329  15.118  17.868  0.00  0.00     0.183 A 
ATOM     20  N   UNL d   1     -40.841  14.748  17.349  0.00  0.00    -0.220 NA
ATOM     21  C   UNL d   1     -40.946  15.235  16.694  0.00  0.00     0.108 A 
ATOM     22  C   UNL d   1     -40.491  15.917  16.813  0.00  0.00     0.059 A 
ATOM     23  S   UNL d   1     -40.112  15.842  17.537  0.00  0.00    -0.048 SA
ENDBRANCH   1  19
TORSDOF 5
ENDMDL
MODEL 4
REMARK VINA RESULT:      -4.9      2.138      4.633
REMARK  5 active torsions:
REMARK  status: ('A' for Active; 'I' for Inactive)
REMARK    1  A    between atoms: C_6  and  N_1 
REMARK    2  A    between atoms: C_8  and  C_4 
REMARK    3  A    between atoms: C_13  and  C_8 
REMARK    4  A    between atoms: O_20  and  C_11 
REMARK    5  A    between atoms: O_21  and  C_16 
ROOT
ATOM      1  N   UNL d   1     -45.621  12.475  22.700  0.00  0.00    -0.231 N 
ATOM      2  C   UNL d   1     -45.955  11.868  23.152  0.00  0.00     0.204 A 
ATOM      3  C   UNL d   1     -46.161  13.099  22.675  0.00  0.00     0.274 A 
ATOM      4  C   UNL d   1     -46.830  12.878  23.113  0.00  0.00     0.089 A 
ATOM      5  S   UNL d   1     -46.695  12.119  23.404  0.00  0.00    -0.043 SA
ATOM      6  N   UNL d   1     -45.597  11.141  23.317  0.00  0.00    -0.121 N 
ATOM      7  O   UNL d   1     -46.055  13.820  22.282  0.00  0.00    -0.266 OA
ENDROOT
BRANCH   4   8
ATOM      8  C   UNL d   1     -47.498  13.334  23.232  0.00  0.00     0.011 C 
BRANCH   8   9
ATOM      9  C   UNL d   1     -48.246  13.013  23.107  0.00  0.00     0.003 A 
ATOM     10  C   UNL d   1     -48.653  13.159  22.405  0.00  0.00     0.026 A 
ATOM     11  C   UNL d   1     -49.397  12.840  22.280  0.00  0.00     0.116 A 
ATOM     12  C   UNL d   1     -49.750  12.362  22.863  0.00  0.00     0.116 A 
ATOM     13  C   UNL d   1     -49.338  12.216  23.568  0.00  0.00     0.026 A 
ATOM     14  C   UNL d   1     -48.594  12.536  23.693  0.00  0.00     0.002 A 
BRANCH  11  15
ATOM     15  O   UNL d   1     -49.798  12.991  21.575  0.00  0.00    -0.326 OA
ATOM     16  C   UNL d   1     -49.541  13.606  21.078  0.00  0.00     0.181 C 
ENDBRANCH  11  15
BRANCH  12  17
ATOM     17  O   UNL d   1     -50.492  12.039  22.746  0.00  0.00    -0.326 OA
ATOM     18  C   UNL d   1     -51.033  12.000  23.369  0.00  0.00     0.181 C 
ENDBRANCH  12  17
ENDBRANCH   8   9
ENDBRANCH   4   8
BRANCH   1  19
ATOM     19  C   UNL d   1     -44.882  12.468  22.334  0.00  0.00     0.183 A 
ATOM     20  N   UNL d   1     -44.240  12.005  22.541  0.00  0.00    -0.220 NA
ATOM     21  C   UNL d   1     -43.619  12.177  22.029  0.00  0.00     0.108 A 
ATOM     22  C   UNL d   1     -43.883  12.755  21.498  0.00  0.00     0.059 A 
ATOM     23  S   UNL d   1     -44.662  12.932  21.689  0.00  0.00    -0.048 SA
ENDBRANCH   1  19
TORSDOF 5
ENDMDL
