MODEL 1
REMARK VINA RESULT:      57.4      0.000      0.000
REMARK  7 active torsions:
REMARK  status: ('A' for Active; 'I' for Inactive)
REMARK    1  A    between atoms: C_2  and  S_1 
REMARK    2  A    between atoms: N_3  and  S_1 
REMARK    3  A    between atoms: C_18  and  N_3 
REMARK    4  A    between atoms: C_6  and  C_21 
REMARK       I    between atoms: N_7  and  C_6 
REMARK    5  A    between atoms: C_12  and  N_7 
REMARK    6  A    between atoms: C_22  and  C_18 
REMARK    7  A    between atoms: C_21  and  C_22 
ROOT
ATOM      1  N   UNL d   1     -55.066-102.036 -39.906  0.00  0.00    -0.228 N 
ATOM      2  C   UNL d   1     -54.897-102.691 -40.359  0.00  0.00     0.111 C 
ENDROOT
BRANCH   1   3
ATOM      3  S   UNL d   1     -55.138-102.102 -39.089  0.00  0.00     0.271 S 
ATOM      4  O   UNL d   1     -54.844-102.850 -39.140  0.00  0.00    -0.200 OA
ATOM      5  O   UNL d   1     -55.442-101.330 -39.035  0.00  0.00    -0.200 OA
BRANCH   3   6
ATOM      6  C   UNL d   1     -55.205-102.175 -38.280  0.00  0.00     0.104 A 
ATOM      7  C   UNL d   1     -54.746-102.720 -37.875  0.00  0.00     0.013 A 
ATOM      8  C   UNL d   1     -54.808-102.801 -37.050  0.00  0.00     0.001 A 
ATOM      9  C   UNL d   1     -55.339-102.328 -36.637  0.00  0.00     0.000 A 
ATOM     10  C   UNL d   1     -55.804-101.780 -37.033  0.00  0.00     0.001 A 
ATOM     11  C   UNL d   1     -55.405-102.403 -35.826  0.00  0.00     0.000 C 
ATOM     12  C   UNL d   1     -55.742-101.699 -37.855  0.00  0.00     0.013 A 
ENDBRANCH   3   6
ENDBRANCH   1   3
BRANCH   1  13
ATOM     13  C   UNL d   1     -55.169-101.298 -40.265  0.00  0.00     0.092 C 
BRANCH  13  14
ATOM     14  C   UNL d   1     -54.745-101.114 -40.950  0.00  0.00     0.025 C 
BRANCH  14  15
ATOM     15  C   UNL d   1     -55.081-100.623 -41.520  0.00  0.00     0.064 C 
BRANCH  15  16
ATOM     16  C   UNL d   1     -55.140-100.879 -42.303  0.00  0.00     0.279 C 
ATOM     17  N   UNL d   1     -55.618-100.469 -42.840  0.00  0.00    -0.208 NA
ATOM     18  O   UNL d   1     -54.720-101.545 -42.552  0.00  0.00    -0.265 OA
BRANCH  17  19
ATOM     19  C   UNL d   1     -55.676-100.725 -43.622  0.00  0.00     0.088 A 
ATOM     20  C   UNL d   1     -55.690-101.529 -43.791  0.00  0.00     0.040 A 
ATOM     21  C   UNL d   1     -55.748-101.790 -44.571  0.00  0.00     0.101 A 
ATOM     22  N   UNL d   1     -55.793-101.237 -45.186  0.00  0.00    -0.242 NA
ATOM     23  C   UNL d   1     -55.779-100.429 -45.016  0.00  0.00     0.101 A 
ATOM     24  C   UNL d   1     -55.721-100.174 -44.234  0.00  0.00     0.040 A 
ENDBRANCH  17  19
ENDBRANCH  15  16
ENDBRANCH  14  15
ENDBRANCH  13  14
ENDBRANCH   1  13
TORSDOF 7
ENDMDL
MODEL 2
REMARK VINA RESULT:      57.8      4.375      6.158
REMARK  7 active torsions:
REMARK  status: ('A' for Active; 'I' for Inactive)
REMARK    1  A    between atoms: C_2  and  S_1 
REMARK    2  A    between atoms: N_3  and  S_1 
REMARK    3  A    between atoms: C_18  and  N_3 
REMARK    4  A    between atoms: C_6  and  C_21 
REMARK       I    between atoms: N_7  and  C_6 
REMARK    5  A    between atoms: C_12  and  N_7 
REMARK    6  A    between atoms: C_22  and  C_18 
REMARK    7  A    between atoms: C_21  and  C_22 
ROOT
ATOM      1  N   UNL d   1     -57.906 -99.050 -43.049  0.00  0.00    -0.228 N 
ATOM      2  C   UNL d   1     -58.234 -98.766 -42.359  0.00  0.00     0.111 C 
ENDROOT
BRANCH   1   3
ATOM      3  S   UNL d   1     -58.321 -99.000 -43.758  0.00  0.00     0.271 S 
ATOM      4  O   UNL d   1     -57.657 -99.236 -44.145  0.00  0.00    -0.200 OA
ATOM      5  O   UNL d   1     -59.009 -98.755 -43.358  0.00  0.00    -0.200 OA
BRANCH   3   6
ATOM      6  C   UNL d   1     -58.726 -98.952 -44.463  0.00  0.00     0.104 A 
ATOM      7  C   UNL d   1     -58.322 -98.806 -45.161  0.00  0.00     0.013 A 
ATOM      8  C   UNL d   1     -58.727 -98.757 -45.886  0.00  0.00     0.001 A 
ATOM      9  C   UNL d   1     -59.542 -98.856 -45.901  0.00  0.00     0.000 A 
ATOM     10  C   UNL d   1     -59.957 -99.002 -45.207  0.00  0.00     0.001 A 
ATOM     11  C   UNL d   1     -59.946 -98.808 -46.609  0.00  0.00     0.000 C 
ATOM     12  C   UNL d   1     -59.553 -99.052 -44.485  0.00  0.00     0.013 A 
ENDBRANCH   3   6
ENDBRANCH   1   3
BRANCH   1  13
ATOM     13  C   UNL d   1     -57.153 -99.390 -43.042  0.00  0.00     0.092 C 
BRANCH  13  14
ATOM     14  C   UNL d   1     -56.520 -98.974 -42.712  0.00  0.00     0.025 C 
BRANCH  14  15
ATOM     15  C   UNL d   1     -55.806 -98.920 -43.122  0.00  0.00     0.064 C 
BRANCH  15  16
ATOM     16  C   UNL d   1     -55.444 -99.603 -43.412  0.00  0.00     0.279 C 
ATOM     17  N   UNL d   1     -55.802-100.039 -44.017  0.00  0.00    -0.208 NA
ATOM     18  O   UNL d   1     -54.721 -99.851 -43.098  0.00  0.00    -0.265 OA
BRANCH  17  19
ATOM     19  C   UNL d   1     -55.440-100.721 -44.307  0.00  0.00     0.088 A 
ATOM     20  C   UNL d   1     -55.094-100.717 -45.053  0.00  0.00     0.040 A 
ATOM     21  C   UNL d   1     -54.731-101.396 -45.347  0.00  0.00     0.101 A 
ATOM     22  N   UNL d   1     -54.713-102.084 -44.887  0.00  0.00    -0.242 NA
ATOM     23  C   UNL d   1     -55.060-102.088 -44.138  0.00  0.00     0.101 A 
ATOM     24  C   UNL d   1     -55.423-101.407 -43.848  0.00  0.00     0.040 A 
ENDBRANCH  17  19
ENDBRANCH  15  16
ENDBRANCH  14  15
ENDBRANCH  13  14
ENDBRANCH   1  13
TORSDOF 7
ENDMDL
