MODEL 1
REMARK VINA RESULT:      27.3      0.000      0.000
REMARK  4 active torsions:
REMARK  status: ('A' for Active; 'I' for Inactive)
REMARK    1  A    between atoms: C_6  and  C_1 
REMARK    2  A    between atoms: S_7  and  C_3 
REMARK    3  A    between atoms: C_17  and  S_7 
REMARK    4  A    between atoms: C_18  and  C_17 
ROOT
ATOM      1  C   UNL d   1      44.026 -15.356  36.671  0.00  0.00     0.087 A 
ATOM      2  N   UNL d   1      44.382 -14.689  36.360  0.00  0.00    -0.245 NA
ATOM      3  C   UNL d   1      44.580 -15.782  37.111  0.00  0.00     0.049 A 
ATOM      4  C   UNL d   1      45.290 -15.381  37.075  0.00  0.00     0.025 A 
ATOM      5  C   UNL d   1      45.169 -14.704  36.611  0.00  0.00     0.082 A 
ATOM      6  C   UNL d   1      46.025 -15.548  37.407  0.00  0.00     0.002 A 
ATOM      7  C   UNL d   1      45.777 -14.185  36.471  0.00  0.00     0.019 A 
ATOM      8  C   UNL d   1      46.646 -15.021  37.265  0.00  0.00     0.000 A 
ATOM      9  C   UNL d   1      46.517 -14.350  36.802  0.00  0.00     0.002 A 
ENDROOT
BRANCH   1  10
ATOM     10  C   UNL d   1      43.251 -15.601  36.588  0.00  0.00     0.018 A 
ATOM     11  C   UNL d   1      43.086 -16.401  36.416  0.00  0.00     0.002 A 
ATOM     12  C   UNL d   1      42.318 -16.656  36.330  0.00  0.00     0.011 A 
ATOM     13  C   UNL d   1      41.708 -16.111  36.416  0.00  0.00     0.058 A 
ATOM     14  C   UNL d   1      41.887 -15.306  36.590  0.00  0.00     0.011 A 
ATOM     15 CL   UNL d   1      40.934 -16.367  36.330  0.00  0.00    -0.082 Cl
ATOM     16  C   UNL d   1      42.646 -15.056  36.674  0.00  0.00     0.002 A 
ENDBRANCH   1  10
BRANCH   3  17
ATOM     17  S   UNL d   1      44.462 -16.491  37.522  0.00  0.00    -0.083 SA
BRANCH  17  18
ATOM     18  C   UNL d   1      44.872 -16.657  38.231  0.00  0.00     0.058 C 
BRANCH  18  19
ATOM     19  C   UNL d   1      44.608 -17.234  38.760  0.00  0.00     0.129 C 
ATOM     20  N   UNL d   1      45.123 -17.590  39.301  0.00  0.00    -0.146 N 
ENDBRANCH  18  19
ENDBRANCH  17  18
ENDBRANCH   3  17
TORSDOF 4
ENDMDL
MODEL 2
REMARK VINA RESULT:      27.9      7.207      7.988
REMARK  4 active torsions:
REMARK  status: ('A' for Active; 'I' for Inactive)
REMARK    1  A    between atoms: C_6  and  C_1 
REMARK    2  A    between atoms: S_7  and  C_3 
REMARK    3  A    between atoms: C_17  and  S_7 
REMARK    4  A    between atoms: C_18  and  C_17 
ROOT
ATOM      1  C   UNL d   1      45.926 -14.900  44.252  0.00  0.00     0.087 A 
ATOM      2  N   UNL d   1      46.481 -14.380  43.951  0.00  0.00    -0.245 NA
ATOM      3  C   UNL d   1      45.302 -14.473  44.584  0.00  0.00     0.049 A 
ATOM      4  C   UNL d   1      45.465 -13.679  44.492  0.00  0.00     0.025 A 
ATOM      5  C   UNL d   1      46.193 -13.619  44.101  0.00  0.00     0.082 A 
ATOM      6  C   UNL d   1      45.042 -13.009  44.716  0.00  0.00     0.002 A 
ATOM      7  C   UNL d   1      46.511 -12.893  43.927  0.00  0.00     0.019 A 
ATOM      8  C   UNL d   1      45.362 -12.268  44.540  0.00  0.00     0.000 A 
ATOM      9  C   UNL d   1      46.089 -12.217  44.150  0.00  0.00     0.002 A 
ENDROOT
BRANCH   1  10
ATOM     10  C   UNL d   1      45.944 -15.717  44.246  0.00  0.00     0.018 A 
ATOM     11  C   UNL d   1      46.197 -16.129  44.926  0.00  0.00     0.002 A 
ATOM     12  C   UNL d   1      46.220 -16.943  44.932  0.00  0.00     0.011 A 
ATOM     13  C   UNL d   1      45.989 -17.350  44.257  0.00  0.00     0.058 A 
ATOM     14  C   UNL d   1      45.735 -16.922  43.576  0.00  0.00     0.011 A 
ATOM     15 CL   UNL d   1      46.011 -18.170  44.261  0.00  0.00    -0.082 Cl
ATOM     16  C   UNL d   1      45.714 -16.119  43.572  0.00  0.00     0.002 A 
ENDBRANCH   1  10
BRANCH   3  17
ATOM     17  S   UNL d   1      44.623 -14.774  44.950  0.00  0.00    -0.083 SA
BRANCH  17  18
ATOM     18  C   UNL d   1      43.902 -14.349  44.949  0.00  0.00     0.058 C 
BRANCH  18  19
ATOM     19  C   UNL d   1      43.172 -14.733  44.933  0.00  0.00     0.129 C 
ATOM     20  N   UNL d   1      42.470 -14.318  44.795  0.00  0.00    -0.146 N 
ENDBRANCH  18  19
ENDBRANCH  17  18
ENDBRANCH   3  17
TORSDOF 4
ENDMDL
MODEL 3
REMARK VINA RESULT:      28.5      6.162      7.340
REMARK  4 active torsions:
REMARK  status: ('A' for Active; 'I' for Inactive)
REMARK    1  A    between atoms: C_6  and  C_1 
REMARK    2  A    between atoms: S_7  and  C_3 
REMARK    3  A    between atoms: C_17  and  S_7 
REMARK    4  A    between atoms: C_18  and  C_17 
ROOT
ATOM      1  C   UNL d   1      46.161 -17.795  42.846  0.00  0.00     0.087 A 
ATOM      2  N   UNL d   1      46.194 -17.751  42.030  0.00  0.00    -0.245 NA
ATOM      3  C   UNL d   1      46.289 -18.575  43.084  0.00  0.00     0.049 A 
ATOM      4  C   UNL d   1      46.405 -19.026  42.414  0.00  0.00     0.025 A 
ATOM      5  C   UNL d   1      46.346 -18.518  41.761  0.00  0.00     0.082 A 
ATOM      6  C   UNL d   1      46.554 -19.830  42.320  0.00  0.00     0.002 A 
ATOM      7  C   UNL d   1      46.436 -18.802  41.006  0.00  0.00     0.019 A 
ATOM      8  C   UNL d   1      46.647 -20.123  41.552  0.00  0.00     0.000 A 
ATOM      9  C   UNL d   1      46.587 -19.610  40.908  0.00  0.00     0.002 A 
ENDROOT
BRANCH   1  10
ATOM     10  C   UNL d   1      46.024 -17.191  43.379  0.00  0.00     0.018 A 
ATOM     11  C   UNL d   1      45.890 -16.416  43.099  0.00  0.00     0.002 A 
ATOM     12  C   UNL d   1      45.754 -15.805  43.621  0.00  0.00     0.011 A 
ATOM     13  C   UNL d   1      45.750 -15.968  44.427  0.00  0.00     0.058 A 
ATOM     14  C   UNL d   1      45.886 -16.755  44.697  0.00  0.00     0.011 A 
ATOM     15 CL   UNL d   1      45.612 -15.354  44.954  0.00  0.00    -0.082 Cl
ATOM     16  C   UNL d   1      46.021 -17.356  44.180  0.00  0.00     0.002 A 
ENDBRANCH   1  10
BRANCH   3  17
ATOM     17  S   UNL d   1      46.303 -18.871  43.857  0.00  0.00    -0.083 SA
BRANCH  17  18
ATOM     18  C   UNL d   1      46.211 -19.688  44.013  0.00  0.00     0.058 C 
BRANCH  18  19
ATOM     19  C   UNL d   1      45.488 -20.005  44.254  0.00  0.00     0.129 C 
ATOM     20  N   UNL d   1      45.122 -19.758  44.954  0.00  0.00    -0.146 N 
ENDBRANCH  18  19
ENDBRANCH  17  18
ENDBRANCH   3  17
TORSDOF 4
ENDMDL
