MODEL 1
REMARK VINA RESULT:      42.4      0.000      0.000
REMARK  4 active torsions:
REMARK  status: ('A' for Active; 'I' for Inactive)
REMARK    1  A    between atoms: C_4  and  C_1 
REMARK    2  A    between atoms: C_2  and  C_3 
REMARK    3  A    between atoms: O_7  and  C_13 
REMARK    4  A    between atoms: C_12  and  O_7 
ROOT
ATOM      1  O   UNL d   1     -54.980-102.358 -42.118  0.00  0.00    -0.307 OA
ENDROOT
BRANCH   1   2
ATOM      2  C   UNL d   1     -54.976-101.695 -42.618  0.00  0.00     0.100 A 
ATOM      3  C   UNL d   1     -54.802-101.799 -43.408  0.00  0.00     0.025 A 
ATOM      4  C   UNL d   1     -54.794-101.142 -43.921  0.00  0.00     0.005 A 
ATOM      5  C   UNL d   1     -54.959-100.404 -43.639  0.00  0.00     0.039 A 
ATOM      6  C   UNL d   1     -55.138-100.294 -42.832  0.00  0.00     0.005 A 
ATOM      7  C   UNL d   1     -55.146-100.949 -42.316  0.00  0.00     0.025 A 
BRANCH   5   8
ATOM      8  C   UNL d   1     -54.951 -99.748 -44.152  0.00  0.00     0.196 C 
ATOM      9  O   UNL d   1     -55.116 -99.843 -44.964  0.00  0.00    -0.287 OA
ATOM     10  C   UNL d   1     -54.782 -98.990 -43.877  0.00  0.00     0.045 C 
ENDBRANCH   5   8
ENDBRANCH   1   2
BRANCH   1  11
ATOM     11  C   UNL d   1     -55.034-102.275 -41.288  0.00  0.00     0.100 A 
ATOM     12  C   UNL d   1     -55.428-102.874 -40.876  0.00  0.00     0.025 A 
ATOM     13  C   UNL d   1     -55.483-102.793 -40.043  0.00  0.00     0.005 A 
ATOM     14  C   UNL d   1     -55.157-102.141 -39.648  0.00  0.00     0.039 A 
ATOM     15  C   UNL d   1     -54.773-101.569 -40.091  0.00  0.00     0.005 A 
ATOM     16  C   UNL d   1     -54.712-101.634 -40.909  0.00  0.00     0.025 A 
BRANCH  14  17
ATOM     17  C   UNL d   1     -55.210-102.064 -38.847  0.00  0.00     0.196 C 
ATOM     18  O   UNL d   1     -55.503-101.360 -38.511  0.00  0.00    -0.287 OA
ATOM     19  C   UNL d   1     -54.975-102.681 -38.361  0.00  0.00     0.045 C 
ENDBRANCH  14  17
ENDBRANCH   1  11
TORSDOF 4
ENDMDL
MODEL 2
REMARK VINA RESULT:      42.8      0.930      1.462
REMARK  4 active torsions:
REMARK  status: ('A' for Active; 'I' for Inactive)
REMARK    1  A    between atoms: C_4  and  C_1 
REMARK    2  A    between atoms: C_2  and  C_3 
REMARK    3  A    between atoms: O_7  and  C_13 
REMARK    4  A    between atoms: C_12  and  O_7 
ROOT
ATOM      1  O   UNL d   1     -54.729-102.493 -40.812  0.00  0.00    -0.307 OA
ENDROOT
BRANCH   1   2
ATOM      2  C   UNL d   1     -54.787-101.935 -41.425  0.00  0.00     0.100 A 
ATOM      3  C   UNL d   1     -54.738-101.143 -41.242  0.00  0.00     0.025 A 
ATOM      4  C   UNL d   1     -54.795-100.572 -41.847  0.00  0.00     0.005 A 
ATOM      5  C   UNL d   1     -54.900-100.803 -42.614  0.00  0.00     0.039 A 
ATOM      6  C   UNL d   1     -54.951-101.613 -42.805  0.00  0.00     0.005 A 
ATOM      7  C   UNL d   1     -54.894-102.186 -42.201  0.00  0.00     0.025 A 
BRANCH   5   8
ATOM      8  C   UNL d   1     -54.957-100.233 -43.218  0.00  0.00     0.196 C 
ATOM      9  O   UNL d   1     -54.986-100.465 -44.019  0.00  0.00    -0.287 OA
ATOM     10  C   UNL d   1     -54.987 -99.427 -43.047  0.00  0.00     0.045 C 
ENDBRANCH   5   8
ENDBRANCH   1   2
BRANCH   1  11
ATOM     11  C   UNL d   1     -54.771-102.263 -40.009  0.00  0.00     0.100 A 
ATOM     12  C   UNL d   1     -54.852-102.866 -39.450  0.00  0.00     0.025 A 
ATOM     13  C   UNL d   1     -54.895-102.637 -38.644  0.00  0.00     0.005 A 
ATOM     14  C   UNL d   1     -54.856-101.841 -38.417  0.00  0.00     0.039 A 
ATOM     15  C   UNL d   1     -54.775-101.272 -39.001  0.00  0.00     0.005 A 
ATOM     16  C   UNL d   1     -54.732-101.481 -39.796  0.00  0.00     0.025 A 
BRANCH  14  17
ATOM     17  C   UNL d   1     -54.897-101.622 -37.642  0.00  0.00     0.196 C 
ATOM     18  O   UNL d   1     -55.087-102.183 -37.056  0.00  0.00    -0.287 OA
ATOM     19  C   UNL d   1     -54.751-100.844 -37.429  0.00  0.00     0.045 C 
ENDBRANCH  14  17
ENDBRANCH   1  11
TORSDOF 4
ENDMDL
