MODEL 1
REMARK VINA RESULT:      59.0      0.000      0.000
REMARK  5 active torsions:
REMARK  status: ('A' for Active; 'I' for Inactive)
REMARK    1  A    between atoms: C_3  and  S_1 
REMARK    2  A    between atoms: N_2  and  C_4 
REMARK    3  A    between atoms: N_5  and  C_16 
REMARK    4  A    between atoms: C_11  and  N_5 
REMARK    5  A    between atoms: C_17  and  C_11 
ROOT
ATOM      1  N   UNL d   1      59.281  49.636  53.298  0.00  0.00    -0.244 NA
ENDROOT
BRANCH   1   2
ATOM      2  C   UNL d   1      59.704  49.442  52.611  0.00  0.00     0.082 A 
ATOM      3  C   UNL d   1      60.384  48.999  52.654  0.00  0.00     0.020 A 
ATOM      4  C   UNL d   1      60.806  48.805  51.972  0.00  0.00     0.015 A 
ATOM      5  C   UNL d   1      60.520  49.070  51.246  0.00  0.00     0.107 A 
ATOM      6  C   UNL d   1      59.840  49.513  51.202  0.00  0.00     0.015 A 
ATOM      7  C   UNL d   1      59.418  49.708  51.883  0.00  0.00     0.020 A 
BRANCH   5   8
ATOM      8  S   UNL d   1      60.943  48.877  50.552  0.00  0.00     0.302 S 
ATOM      9  O   UNL d   1      60.938  49.676  50.330  0.00  0.00    -0.197 OA
ATOM     10  O   UNL d   1      61.362  48.696  49.861  0.00  0.00    -0.197 OA
ATOM     11  N   UNL d   1      60.947  48.085  50.774  0.00  0.00    -0.043 N 
ENDBRANCH   5   8
ENDBRANCH   1   2
BRANCH   1  12
ATOM     12  C   UNL d   1      58.471  49.703  53.281  0.00  0.00     0.099 C 
BRANCH  12  13
ATOM     13  C   UNL d   1      58.015  49.550  53.954  0.00  0.00     0.019 A 
ATOM     14  C   UNL d   1      57.248  49.232  53.847  0.00  0.00     0.003 A 
ATOM     15  C   UNL d   1      56.792  49.078  54.520  0.00  0.00     0.024 A 
ATOM     16  C   UNL d   1      57.087  49.236  55.291  0.00  0.00     0.127 A 
ATOM     17  C   UNL d   1      57.834  49.545  55.373  0.00  0.00     0.024 A 
ATOM     18  C   UNL d   1      58.310  49.708  54.725  0.00  0.00     0.003 A 
BRANCH  16  19
ATOM     19  N   UNL d   1      56.645  49.089  55.970  0.00  0.00    -0.114 N 
ATOM     20  O   UNL d   1      56.642  48.321  56.301  0.00  0.00    -0.532 OA
ATOM     21  O   UNL d   1      56.208  49.703  56.317  0.00  0.00    -0.532 OA
ENDBRANCH  16  19
ENDBRANCH  12  13
ENDBRANCH   1  12
TORSDOF 5
ENDMDL
