MODEL 1
REMARK VINA RESULT:      56.6      0.000      0.000
REMARK  7 active torsions:
REMARK  status: ('A' for Active; 'I' for Inactive)
REMARK    1  A    between atoms: C_19  and  N_1 
REMARK    2  A    between atoms: C_6  and  C_3 
REMARK    3  A    between atoms: C_9  and  C_6 
REMARK    4  A    between atoms: C_7  and  N_8 
REMARK       I    between atoms: N_8  and  C_11 
REMARK    5  A    between atoms: C_11  and  C_23 
REMARK    6  A    between atoms: C_22  and  C_19 
REMARK    7  A    between atoms: C_23  and  C_22 
ROOT
ATOM      1  C   UNL d   1      14.251  12.569  -2.936  0.00  0.00     0.024 C 
ENDROOT
BRANCH   1   2
ATOM      2  C   UNL d   1      13.524  12.507  -3.290  0.00  0.00     0.084 C 
BRANCH   2   3
ATOM      3  N   UNL d   1      13.319  12.934  -3.966  0.00  0.00    -0.259 N 
ATOM      4  C   UNL d   1      13.229  12.602  -4.724  0.00  0.00     0.153 A 
ATOM      5  S   UNL d   1      13.024  13.221  -5.228  0.00  0.00    -0.053 SA
ATOM      6  S   UNL d   1      13.328  11.799  -4.925  0.00  0.00    -0.052 SA
ATOM      7  C   UNL d   1      12.980  13.929  -4.827  0.00  0.00     0.090 A 
ATOM      8  C   UNL d   1      13.163  13.748  -4.049  0.00  0.00     0.272 A 
ATOM      9  O   UNL d   1      13.185  14.322  -3.425  0.00  0.00    -0.266 OA
BRANCH   7  10
ATOM     10  C   UNL d   1      12.788  14.681  -5.148  0.00  0.00     0.036 C 
BRANCH  10  11
ATOM     11  C   UNL d   1      13.364  15.251  -5.267  0.00  0.00     0.101 A 
ATOM     12  O   UNL d   1      13.559  15.977  -4.894  0.00  0.00    -0.305 OA
ATOM     13  C   UNL d   1      14.220  16.292  -5.296  0.00  0.00     0.123 A 
ATOM     14  C   UNL d   1      14.429  15.801  -5.883  0.00  0.00     0.029 A 
ATOM     15  C   UNL d   1      13.914  15.162  -5.874  0.00  0.00     0.027 A 
ENDBRANCH  10  11
ENDBRANCH   7  10
ENDBRANCH   2   3
ENDBRANCH   1   2
BRANCH   1  16
ATOM     16  C   UNL d   1      14.360  12.463  -2.107  0.00  0.00     0.064 C 
BRANCH  16  17
ATOM     17  C   UNL d   1      15.088  12.329  -1.779  0.00  0.00     0.279 C 
ATOM     18  N   UNL d   1      15.324  12.724  -1.094  0.00  0.00    -0.208 NA
ATOM     19  O   UNL d   1      15.607  11.786  -2.136  0.00  0.00    -0.265 OA
BRANCH  18  20
ATOM     20  C   UNL d   1      14.801  13.275  -0.729  0.00  0.00     0.085 A 
ATOM     21  C   UNL d   1      15.077  14.026  -0.553  0.00  0.00     0.018 A 
ATOM     22  C   UNL d   1      14.571  14.578  -0.194  0.00  0.00     0.002 A 
ATOM     23  C   UNL d   1      15.856  14.230  -0.733  0.00  0.00     0.002 A 
ATOM     24  C   UNL d   1      14.841  15.328  -0.016  0.00  0.00     0.000 A 
ATOM     25  C   UNL d   1      13.782  14.364  -0.014  0.00  0.00     0.000 A 
ATOM     26  C   UNL d   1      15.622  15.549  -0.190  0.00  0.00     0.000 A 
ATOM     27  C   UNL d   1      16.134  14.992  -0.553  0.00  0.00     0.000 A 
ATOM     28  C   UNL d   1      13.512  13.620  -0.190  0.00  0.00     0.002 A 
ATOM     29  C   UNL d   1      14.021  13.071  -0.549  0.00  0.00     0.019 A 
ENDBRANCH  18  20
ENDBRANCH  16  17
ENDBRANCH   1  16
TORSDOF 7
ENDMDL
MODEL 2
REMARK VINA RESULT:      57.3      2.239      3.297
REMARK  7 active torsions:
REMARK  status: ('A' for Active; 'I' for Inactive)
REMARK    1  A    between atoms: C_19  and  N_1 
REMARK    2  A    between atoms: C_6  and  C_3 
REMARK    3  A    between atoms: C_9  and  C_6 
REMARK    4  A    between atoms: C_7  and  N_8 
REMARK       I    between atoms: N_8  and  C_11 
REMARK    5  A    between atoms: C_11  and  C_23 
REMARK    6  A    between atoms: C_22  and  C_19 
REMARK    7  A    between atoms: C_23  and  C_22 
ROOT
ATOM      1  C   UNL d   1      15.042  14.836  -0.723  0.00  0.00     0.024 C 
ENDROOT
BRANCH   1   2
ATOM      2  C   UNL d   1      14.553  15.336  -1.131  0.00  0.00     0.084 C 
BRANCH   2   3
ATOM      3  N   UNL d   1      14.816  15.806  -1.757  0.00  0.00    -0.259 N 
ATOM      4  C   UNL d   1      15.275  16.496  -1.668  0.00  0.00     0.153 A 
ATOM      5  S   UNL d   1      15.411  16.786  -2.426  0.00  0.00    -0.053 SA
ATOM      6  S   UNL d   1      15.539  16.821  -0.947  0.00  0.00    -0.052 SA
ATOM      7  C   UNL d   1      15.062  16.316  -2.992  0.00  0.00     0.090 A 
ATOM      8  C   UNL d   1      14.696  15.712  -2.576  0.00  0.00     0.272 A 
ATOM      9  O   UNL d   1      14.258  15.084  -2.942  0.00  0.00    -0.266 OA
BRANCH   7  10
ATOM     10  C   UNL d   1      15.077  16.429  -3.824  0.00  0.00     0.036 C 
BRANCH  10  11
ATOM     11  C   UNL d   1      14.932  17.163  -4.156  0.00  0.00     0.101 A 
ATOM     12  O   UNL d   1      15.035  17.955  -3.900  0.00  0.00    -0.305 OA
ATOM     13  C   UNL d   1      14.770  18.452  -4.517  0.00  0.00     0.123 A 
ATOM     14  C   UNL d   1      14.516  18.006  -5.122  0.00  0.00     0.029 A 
ATOM     15  C   UNL d   1      14.610  17.218  -4.912  0.00  0.00     0.027 A 
ENDBRANCH  10  11
ENDBRANCH   7  10
ENDBRANCH   2   3
ENDBRANCH   1   2
BRANCH   1  16
ATOM     16  C   UNL d   1      14.863  14.020  -0.612  0.00  0.00     0.064 C 
BRANCH  16  17
ATOM     17  C   UNL d   1      15.439  13.462  -0.494  0.00  0.00     0.279 C 
ATOM     18  N   UNL d   1      15.258  12.657  -0.502  0.00  0.00    -0.208 NA
ATOM     19  O   UNL d   1      16.225  13.702  -0.363  0.00  0.00    -0.265 OA
BRANCH  18  20
ATOM     20  C   UNL d   1      14.463  12.411  -0.634  0.00  0.00     0.085 A 
ATOM     21  C   UNL d   1      14.230  12.218  -1.396  0.00  0.00     0.018 A 
ATOM     22  C   UNL d   1      13.449  11.973  -1.539  0.00  0.00     0.002 A 
ATOM     23  C   UNL d   1      14.772  12.267  -2.016  0.00  0.00     0.002 A 
ATOM     24  C   UNL d   1      13.212  11.780  -2.297  0.00  0.00     0.000 A 
ATOM     25  C   UNL d   1      12.905  11.926  -0.906  0.00  0.00     0.000 A 
ATOM     26  C   UNL d   1      13.745  11.824  -2.931  0.00  0.00     0.000 A 
ATOM     27  C   UNL d   1      14.534  12.071  -2.788  0.00  0.00     0.000 A 
ATOM     28  C   UNL d   1      13.138  12.117  -0.153  0.00  0.00     0.002 A 
ATOM     29  C   UNL d   1      13.920  12.361  -0.014  0.00  0.00     0.019 A 
ENDBRANCH  18  20
ENDBRANCH  16  17
ENDBRANCH   1  16
TORSDOF 7
ENDMDL
MODEL 3
REMARK VINA RESULT:      57.8      2.726      5.591
REMARK  7 active torsions:
REMARK  status: ('A' for Active; 'I' for Inactive)
REMARK    1  A    between atoms: C_19  and  N_1 
REMARK    2  A    between atoms: C_6  and  C_3 
REMARK    3  A    between atoms: C_9  and  C_6 
REMARK    4  A    between atoms: C_7  and  N_8 
REMARK       I    between atoms: N_8  and  C_11 
REMARK    5  A    between atoms: C_11  and  C_23 
REMARK    6  A    between atoms: C_22  and  C_19 
REMARK    7  A    between atoms: C_23  and  C_22 
ROOT
ATOM      1  C   UNL d   1      14.823  16.559  -4.418  0.00  0.00     0.024 C 
ENDROOT
BRANCH   1   2
ATOM      2  C   UNL d   1      14.270  16.331  -3.871  0.00  0.00     0.084 C 
BRANCH   2   3
ATOM      3  N   UNL d   1      13.968  15.563  -3.834  0.00  0.00    -0.259 N 
ATOM      4  C   UNL d   1      14.158  15.010  -3.242  0.00  0.00     0.153 A 
ATOM      5  S   UNL d   1      13.738  14.324  -3.418  0.00  0.00    -0.053 SA
ATOM      6  S   UNL d   1      14.675  15.135  -2.600  0.00  0.00    -0.052 SA
ATOM      7  C   UNL d   1      13.290  14.415  -4.093  0.00  0.00     0.090 A 
ATOM      8  C   UNL d   1      13.434  15.181  -4.347  0.00  0.00     0.272 A 
ATOM      9  O   UNL d   1      13.082  15.523  -5.039  0.00  0.00    -0.266 OA
BRANCH   7  10
ATOM     10  C   UNL d   1      12.789  13.843  -4.449  0.00  0.00     0.036 C 
BRANCH  10  11
ATOM     11  C   UNL d   1      13.002  13.053  -4.483  0.00  0.00     0.101 A 
ATOM     12  O   UNL d   1      13.441  12.586  -5.024  0.00  0.00    -0.305 OA
ATOM     13  C   UNL d   1      13.452  11.806  -4.725  0.00  0.00     0.123 A 
ATOM     14  C   UNL d   1      13.049  11.780  -4.042  0.00  0.00     0.029 A 
ATOM     15  C   UNL d   1      12.769  12.537  -3.884  0.00  0.00     0.027 A 
ENDBRANCH  10  11
ENDBRANCH   7  10
ENDBRANCH   2   3
ENDBRANCH   1   2
BRANCH   1  16
ATOM     16  C   UNL d   1      14.788  17.303  -4.812  0.00  0.00     0.064 C 
BRANCH  16  17
ATOM     17  C   UNL d   1      15.450  17.677  -5.091  0.00  0.00     0.279 C 
ATOM     18  N   UNL d   1      15.390  18.319  -5.607  0.00  0.00    -0.208 NA
ATOM     19  O   UNL d   1      16.203  17.413  -4.856  0.00  0.00    -0.265 OA
BRANCH  18  20
ATOM     20  C   UNL d   1      14.629  18.589  -5.848  0.00  0.00     0.085 A 
ATOM     21  C   UNL d   1      14.457  19.388  -5.790  0.00  0.00     0.018 A 
ATOM     22  C   UNL d   1      13.710  19.667  -6.024  0.00  0.00     0.002 A 
ATOM     23  C   UNL d   1      15.025  19.911  -5.500  0.00  0.00     0.002 A 
ATOM     24  C   UNL d   1      13.534  20.463  -5.968  0.00  0.00     0.000 A 
ATOM     25  C   UNL d   1      13.139  19.132  -6.317  0.00  0.00     0.000 A 
ATOM     26  C   UNL d   1      14.094  21.002  -5.679  0.00  0.00     0.000 A 
ATOM     27  C   UNL d   1      14.849  20.721  -5.442  0.00  0.00     0.000 A 
ATOM     28  C   UNL d   1      13.312  18.342  -6.373  0.00  0.00     0.002 A 
ATOM     29  C   UNL d   1      14.060  18.066  -6.138  0.00  0.00     0.019 A 
ENDBRANCH  18  20
ENDBRANCH  16  17
ENDBRANCH   1  16
TORSDOF 7
ENDMDL
MODEL 4
REMARK VINA RESULT:      59.2      2.478      5.613
REMARK  7 active torsions:
REMARK  status: ('A' for Active; 'I' for Inactive)
REMARK    1  A    between atoms: C_19  and  N_1 
REMARK    2  A    between atoms: C_6  and  C_3 
REMARK    3  A    between atoms: C_9  and  C_6 
REMARK    4  A    between atoms: C_7  and  N_8 
REMARK       I    between atoms: N_8  and  C_11 
REMARK    5  A    between atoms: C_11  and  C_23 
REMARK    6  A    between atoms: C_22  and  C_19 
REMARK    7  A    between atoms: C_23  and  C_22 
ROOT
ATOM      1  C   UNL d   1      14.673  16.146  -4.001  0.00  0.00     0.024 C 
ENDROOT
BRANCH   1   2
ATOM      2  C   UNL d   1      14.066  15.618  -3.907  0.00  0.00     0.084 C 
BRANCH   2   3
ATOM      3  N   UNL d   1      14.107  14.978  -3.387  0.00  0.00    -0.259 N 
ATOM      4  C   UNL d   1      14.389  15.023  -2.606  0.00  0.00     0.153 A 
ATOM      5  S   UNL d   1      14.332  14.264  -2.292  0.00  0.00    -0.053 SA
ATOM      6  S   UNL d   1      14.673  15.708  -2.224  0.00  0.00    -0.052 SA
ATOM      7  C   UNL d   1      14.027  13.739  -2.835  0.00  0.00     0.090 A 
ATOM      8  C   UNL d   1      13.889  14.183  -3.510  0.00  0.00     0.272 A 
ATOM      9  O   UNL d   1      13.569  13.863  -4.228  0.00  0.00    -0.266 OA
BRANCH   7  10
ATOM     10  C   UNL d   1      13.886  12.920  -2.724  0.00  0.00     0.036 C 
BRANCH  10  11
ATOM     11  C   UNL d   1      14.189  12.521  -2.075  0.00  0.00     0.101 A 
ATOM     12  O   UNL d   1      14.961  12.374  -1.782  0.00  0.00    -0.305 OA
ATOM     13  C   UNL d   1      14.879  11.923  -1.084  0.00  0.00     0.123 A 
ATOM     14  C   UNL d   1      14.110  11.793  -0.943  0.00  0.00     0.029 A 
ATOM     15  C   UNL d   1      13.678  12.153  -1.542  0.00  0.00     0.027 A 
ENDBRANCH  10  11
ENDBRANCH   7  10
ENDBRANCH   2   3
ENDBRANCH   1   2
BRANCH   1  16
ATOM     16  C   UNL d   1      14.663  16.747  -4.593  0.00  0.00     0.064 C 
BRANCH  16  17
ATOM     17  C   UNL d   1      15.321  17.179  -4.783  0.00  0.00     0.279 C 
ATOM     18  N   UNL d   1      15.279  17.802  -5.323  0.00  0.00    -0.208 NA
ATOM     19  O   UNL d   1      16.051  16.996  -4.429  0.00  0.00    -0.265 OA
BRANCH  18  20
ATOM     20  C   UNL d   1      14.540  17.990  -5.683  0.00  0.00     0.085 A 
ATOM     21  C   UNL d   1      14.343  18.778  -5.792  0.00  0.00     0.018 A 
ATOM     22  C   UNL d   1      13.618  18.977  -6.146  0.00  0.00     0.002 A 
ATOM     23  C   UNL d   1      14.865  19.370  -5.550  0.00  0.00     0.002 A 
ATOM     24  C   UNL d   1      13.417  19.761  -6.257  0.00  0.00     0.000 A 
ATOM     25  C   UNL d   1      13.094  18.373  -6.388  0.00  0.00     0.000 A 
ATOM     26  C   UNL d   1      13.931  20.368  -6.019  0.00  0.00     0.000 A 
ATOM     27  C   UNL d   1      14.664  20.168  -5.662  0.00  0.00     0.000 A 
ATOM     28  C   UNL d   1      13.291  17.594  -6.279  0.00  0.00     0.002 A 
ATOM     29  C   UNL d   1      14.017  17.399  -5.925  0.00  0.00     0.019 A 
ENDBRANCH  18  20
ENDBRANCH  16  17
ENDBRANCH   1  16
TORSDOF 7
ENDMDL
