MODEL 1
REMARK VINA RESULT:      35.4      0.000      0.000
REMARK  2 active torsions:
REMARK  status: ('A' for Active; 'I' for Inactive)
REMARK    1  A    between atoms: C_6  and  C_2 
REMARK    2  A    between atoms: C_7  and  C_3 
ROOT
ATOM      1  N   UNL d   1      46.253 -18.858  42.746  0.00  0.00    -0.243 NA
ATOM      2  C   UNL d   1      46.086 -18.093  42.495  0.00  0.00     0.104 A 
ATOM      3  C   UNL d   1      46.027 -17.333  43.766  0.00  0.00     0.033 A 
ATOM      4  S   UNL d   1      46.180 -17.913  44.328  0.00  0.00    -0.085 SA
ATOM      5  C   UNL d   1      45.986 -17.412  42.969  0.00  0.00     0.028 A 
ATOM      6  C   UNL d   1      46.361 -19.131  43.520  0.00  0.00     0.087 A 
ATOM      7  C   UNL d   1      46.328 -18.707  44.229  0.00  0.00     0.047 A 
ATOM      8  C   UNL d   1      46.517 -19.934  43.518  0.00  0.00     0.020 A 
ATOM      9  C   UNL d   1      46.452 -19.091  44.928  0.00  0.00     0.008 A 
ATOM     10  C   UNL d   1      46.614 -19.908  44.955  0.00  0.00     0.001 A 
ATOM     11  C   UNL d   1      46.646 -20.330  44.249  0.00  0.00     0.002 A 
ENDROOT
BRANCH   3  12
ATOM     12  C   UNL d   1      45.900 -16.574  44.062  0.00  0.00     0.034 A 
ATOM     13  C   UNL d   1      45.284 -16.438  44.616  0.00  0.00     0.141 A 
ATOM     14  F   UNL d   1      44.812 -17.063  44.860  0.00  0.00    -0.204 F 
ATOM     15  C   UNL d   1      45.161 -15.685  44.907  0.00  0.00     0.030 A 
ATOM     16  C   UNL d   1      45.628 -15.072  44.665  0.00  0.00     0.002 A 
ATOM     17  C   UNL d   1      46.247 -15.181  44.115  0.00  0.00     0.000 A 
ATOM     18  C   UNL d   1      46.375 -15.940  43.818  0.00  0.00     0.003 A 
ENDBRANCH   3  12
BRANCH   2  19
ATOM     19  C   UNL d   1      46.010 -17.998  41.679  0.00  0.00     0.118 A 
ATOM     20  O   UNL d   1      45.347 -17.716  41.276  0.00  0.00    -0.304 OA
ATOM     21  C   UNL d   1      45.527 -17.718  40.465  0.00  0.00     0.123 A 
ATOM     22  C   UNL d   1      46.299 -17.999  40.365  0.00  0.00     0.029 A 
ATOM     23  C   UNL d   1      46.595 -18.171  41.114  0.00  0.00     0.028 A 
ENDBRANCH   2  19
TORSDOF 2
ENDMDL
MODEL 2
REMARK VINA RESULT:      35.7      1.167      3.083
REMARK  2 active torsions:
REMARK  status: ('A' for Active; 'I' for Inactive)
REMARK    1  A    between atoms: C_6  and  C_2 
REMARK    2  A    between atoms: C_7  and  C_3 
ROOT
ATOM      1  N   UNL d   1      46.047 -17.930  44.229  0.00  0.00    -0.243 NA
ATOM      2  C   UNL d   1      45.882 -17.390  43.631  0.00  0.00     0.104 A 
ATOM      3  C   UNL d   1      46.018 -18.206  42.402  0.00  0.00     0.033 A 
ATOM      4  S   UNL d   1      46.216 -18.946  42.700  0.00  0.00    -0.085 SA
ATOM      5  C   UNL d   1      45.872 -17.530  42.807  0.00  0.00     0.028 A 
ATOM      6  C   UNL d   1      46.241 -18.731  44.157  0.00  0.00     0.087 A 
ATOM      7  C   UNL d   1      46.317 -19.186  43.471  0.00  0.00     0.047 A 
ATOM      8  C   UNL d   1      46.362 -19.061  44.895  0.00  0.00     0.020 A 
ATOM      9  C   UNL d   1      46.513 -19.967  43.531  0.00  0.00     0.008 A 
ATOM     10  C   UNL d   1      46.642 -20.329  44.271  0.00  0.00     0.001 A 
ATOM     11  C   UNL d   1      46.567 -19.876  44.953  0.00  0.00     0.002 A 
ENDROOT
BRANCH   3  12
ATOM     12  C   UNL d   1      45.961 -18.156  41.581  0.00  0.00     0.034 A 
ATOM     13  C   UNL d   1      45.207 -18.142  41.212  0.00  0.00     0.141 A 
ATOM     14  F   UNL d   1      44.530 -18.179  41.674  0.00  0.00    -0.204 F 
ATOM     15  C   UNL d   1      45.155 -18.092  40.399  0.00  0.00     0.030 A 
ATOM     16  C   UNL d   1      45.825 -18.055  39.948  0.00  0.00     0.002 A 
ATOM     17  C   UNL d   1      46.586 -18.067  40.290  0.00  0.00     0.000 A 
ATOM     18  C   UNL d   1      46.644 -18.118  41.112  0.00  0.00     0.003 A 
ENDBRANCH   3  12
BRANCH   2  19
ATOM     19  C   UNL d   1      45.706 -16.625  43.885  0.00  0.00     0.118 A 
ATOM     20  O   UNL d   1      44.996 -16.368  44.220  0.00  0.00    -0.304 OA
ATOM     21  C   UNL d   1      45.077 -15.559  44.387  0.00  0.00     0.123 A 
ATOM     22  C   UNL d   1      45.833 -15.313  44.157  0.00  0.00     0.029 A 
ATOM     23  C   UNL d   1      46.220 -15.972  43.848  0.00  0.00     0.028 A 
ENDBRANCH   2  19
TORSDOF 2
ENDMDL
MODEL 3
REMARK VINA RESULT:      38.3      1.083      2.687
REMARK  2 active torsions:
REMARK  status: ('A' for Active; 'I' for Inactive)
REMARK    1  A    between atoms: C_6  and  C_2 
REMARK    2  A    between atoms: C_7  and  C_3 
ROOT
ATOM      1  N   UNL d   1      46.258 -18.957  42.784  0.00  0.00    -0.243 NA
ATOM      2  C   UNL d   1      46.098 -18.723  43.556  0.00  0.00     0.104 A 
ATOM      3  C   UNL d   1      46.052 -17.246  43.451  0.00  0.00     0.033 A 
ATOM      4  S   UNL d   1      46.200 -17.119  42.653  0.00  0.00    -0.085 SA
ATOM      5  C   UNL d   1      46.007 -17.944  43.843  0.00  0.00     0.028 A 
ATOM      6  C   UNL d   1      46.366 -18.481  42.116  0.00  0.00     0.087 A 
ATOM      7  C   UNL d   1      46.340 -17.656  42.058  0.00  0.00     0.047 A 
ATOM      8  C   UNL d   1      46.514 -18.943  41.459  0.00  0.00     0.020 A 
ATOM      9  C   UNL d   1      46.463 -17.304  41.342  0.00  0.00     0.008 A 
ATOM     10  C   UNL d   1      46.616 -17.751  40.656  0.00  0.00     0.001 A 
ATOM     11  C   UNL d   1      46.641 -18.572  40.714  0.00  0.00     0.002 A 
ENDROOT
BRANCH   3  12
ATOM     12  C   UNL d   1      45.933 -16.567  43.904  0.00  0.00     0.034 A 
ATOM     13  C   UNL d   1      45.174 -16.210  43.935  0.00  0.00     0.141 A 
ATOM     14  F   UNL d   1      44.554 -16.541  43.512  0.00  0.00    -0.204 F 
ATOM     15  C   UNL d   1      45.060 -15.538  44.385  0.00  0.00     0.030 A 
ATOM     16  C   UNL d   1      45.675 -15.216  44.800  0.00  0.00     0.002 A 
ATOM     17  C   UNL d   1      46.439 -15.552  44.787  0.00  0.00     0.000 A 
ATOM     18  C   UNL d   1      46.558 -16.231  44.333  0.00  0.00     0.003 A 
ENDBRANCH   3  12
BRANCH   2  19
ATOM     19  C   UNL d   1      46.020 -19.337  44.102  0.00  0.00     0.118 A 
ATOM     20  O   UNL d   1      45.315 -19.635  44.411  0.00  0.00    -0.304 OA
ATOM     21  C   UNL d   1      45.510 -20.247  44.937  0.00  0.00     0.123 A 
ATOM     22  C   UNL d   1      46.333 -20.330  44.955  0.00  0.00     0.029 A 
ATOM     23  C   UNL d   1      46.646 -19.768  44.440  0.00  0.00     0.028 A 
ENDBRANCH   2  19
TORSDOF 2
ENDMDL
