MODEL 1
REMARK VINA RESULT:      73.2      0.000      0.000
REMARK  6 active torsions:
REMARK  status: ('A' for Active; 'I' for Inactive)
REMARK    1  A    between atoms: C_8  and  C_6 
REMARK    2  A    between atoms: C_10  and  C_8 
REMARK       I    between atoms: N_13  and  C_10 
REMARK    3  A    between atoms: C_11  and  C_14 
REMARK    4  A    between atoms: O_20  and  C_11 
REMARK    5  A    between atoms: C_19  and  N_13 
REMARK    6  A    between atoms: C_23  and  O_20 
ROOT
ATOM      1  C   UNL d   1     -55.504-100.099 -43.856  0.00  0.00     0.280 C 
ATOM      2  N   UNL d   1     -55.805 -99.333 -43.939  0.00  0.00    -0.208 NA
ATOM      3  O   UNL d   1     -54.712-100.205 -43.653  0.00  0.00    -0.265 OA
ENDROOT
BRANCH   1   4
ATOM      4  C   UNL d   1     -55.993-100.751 -43.974  0.00  0.00     0.074 C 
BRANCH   4   5
ATOM      5  C   UNL d   1     -55.902-101.218 -44.651  0.00  0.00     0.095 A 
ATOM      6  C   UNL d   1     -56.189-101.984 -44.753  0.00  0.00     0.288 A 
ATOM      7  N   UNL d   1     -55.975-102.238 -45.503  0.00  0.00    -0.169 N 
ATOM      8  O   UNL d   1     -56.615-102.418 -44.196  0.00  0.00    -0.265 OA
ATOM      9  C   UNL d   1     -55.553-101.627 -45.871  0.00  0.00     0.200 A 
ATOM     10  N   UNL d   1     -56.019-102.870 -46.031  0.00  0.00    -0.138 NA
ATOM     11  N   UNL d   1     -55.338-101.882 -46.626  0.00  0.00    -0.197 NA
ATOM     12  S   UNL d   1     -55.508-100.995 -45.343  0.00  0.00    -0.043 SA
ATOM     13  C   UNL d   1     -55.626-102.653 -46.727  0.00  0.00     0.222 A 
ENDBRANCH   4   5
ENDBRANCH   1   4
BRANCH   2  14
ATOM     14  C   UNL d   1     -56.597 -99.230 -44.142  0.00  0.00     0.085 A 
ATOM     15  C   UNL d   1     -57.178 -99.304 -43.557  0.00  0.00     0.019 A 
ATOM     16  C   UNL d   1     -57.969 -99.204 -43.746  0.00  0.00     0.007 A 
ATOM     17  C   UNL d   1     -58.188 -99.028 -44.528  0.00  0.00     0.064 A 
ATOM     18  C   UNL d   1     -57.604 -98.955 -45.112  0.00  0.00     0.007 A 
ATOM     19  C   UNL d   1     -56.812 -99.056 -44.918  0.00  0.00     0.019 A 
BRANCH  17  20
ATOM     20  C   UNL d   1     -58.978 -98.927 -44.726  0.00  0.00     0.300 C 
ATOM     21  O   UNL d   1     -59.188 -98.756 -45.510  0.00  0.00    -0.259 OA
BRANCH  20  22
ATOM     22  O   UNL d   1     -59.562 -98.994 -44.150  0.00  0.00    -0.271 OA
BRANCH  22  23
ATOM     23  C   UNL d   1     -59.366 -98.891 -43.352  0.00  0.00     0.126 C 
ATOM     24  C   UNL d   1     -59.779 -99.308 -42.770  0.00  0.00     0.029 C 
ENDBRANCH  22  23
ENDBRANCH  20  22
ENDBRANCH  17  20
ENDBRANCH   2  14
TORSDOF 6
ENDMDL
