MODEL 1
REMARK VINA RESULT:      -9.0      0.000      0.000
REMARK  4 active torsions:
REMARK  status: ('A' for Active; 'I' for Inactive)
REMARK    1  A    between atoms: N_5  and  C_1 
REMARK    2  A    between atoms: N_8  and  C_3 
REMARK    3  A    between atoms: C_19  and  N_8 
REMARK    4  A    between atoms: C_21  and  C_19 
ROOT
ATOM      1  C   UNL d   1     -49.298  12.546  23.021  0.00  0.00     0.200 A 
ATOM      2  C   UNL d   1     -50.068  12.729  23.251  0.00  0.00     0.288 A 
ATOM      3  C   UNL d   1     -48.749  13.152  22.859  0.00  0.00     0.109 A 
ATOM      4  N   UNL d   1     -50.295  13.524  23.323  0.00  0.00    -0.270 N 
ATOM      5  C   UNL d   1     -48.985  13.945  22.933  0.00  0.00     0.036 A 
ATOM      6  C   UNL d   1     -49.757  14.129  23.164  0.00  0.00     0.069 A 
ATOM      7  O   UNL d   1     -50.606  12.125  23.410  0.00  0.00    -0.265 OA
ATOM      8  C   UNL d   1     -51.064  13.707  23.553  0.00  0.00     0.102 C 
ATOM      9  C   UNL d   1     -48.447  14.549  22.774  0.00  0.00     0.003 A 
ATOM     10  C   UNL d   1     -49.988  14.917  23.236  0.00  0.00     0.018 A 
ATOM     11  C   UNL d   1     -48.680  15.338  22.847  0.00  0.00     0.000 A 
ATOM     12  C   UNL d   1     -49.449  15.521  23.078  0.00  0.00     0.002 A 
ENDROOT
BRANCH   3  13
ATOM     13  N   UNL d   1     -47.980  12.970  22.628  0.00  0.00    -0.242 NA
BRANCH  13  14
ATOM     14  C   UNL d   1     -47.354  13.072  23.157  0.00  0.00     0.099 C 
BRANCH  14  15
ATOM     15  C   UNL d   1     -46.590  12.860  22.936  0.00  0.00     0.021 A 
ATOM     16  C   UNL d   1     -46.226  12.211  23.287  0.00  0.00     0.028 A 
ATOM     17  C   UNL d   1     -45.461  12.000  23.066  0.00  0.00     0.119 A 
ATOM     18  O   UNL d   1     -44.966  11.397  23.311  0.00  0.00    -0.300 OA
ATOM     19  C   UNL d   1     -45.061  12.438  22.493  0.00  0.00     0.119 A 
ATOM     20  C   UNL d   1     -44.258  11.454  22.895  0.00  0.00     0.304 A 
ATOM     21  O   UNL d   1     -44.321  12.102  22.387  0.00  0.00    -0.300 OA
ATOM     22  C   UNL d   1     -45.432  13.092  22.140  0.00  0.00     0.026 A 
ATOM     23  C   UNL d   1     -46.196  13.303  22.362  0.00  0.00     0.004 A 
ENDBRANCH  14  15
ENDBRANCH  13  14
ENDBRANCH   3  13
BRANCH   1  24
ATOM     24  N   UNL d   1     -49.063  11.754  22.947  0.00  0.00    -0.107 N 
ATOM     25  O   UNL d   1     -49.025  11.405  22.201  0.00  0.00    -0.531 OA
ATOM     26  O   UNL d   1     -48.866  11.314  23.619  0.00  0.00    -0.531 OA
ENDBRANCH   1  24
TORSDOF 4
ENDMDL
MODEL 2
REMARK VINA RESULT:      -8.5      0.947      1.278
REMARK  4 active torsions:
REMARK  status: ('A' for Active; 'I' for Inactive)
REMARK    1  A    between atoms: N_5  and  C_1 
REMARK    2  A    between atoms: N_8  and  C_3 
REMARK    3  A    between atoms: C_19  and  N_8 
REMARK    4  A    between atoms: C_21  and  C_19 
ROOT
ATOM      1  C   UNL d   1     -49.227  12.968  21.788  0.00  0.00     0.200 A 
ATOM      2  C   UNL d   1     -50.028  13.154  21.826  0.00  0.00     0.288 A 
ATOM      3  C   UNL d   1     -48.652  13.511  22.052  0.00  0.00     0.109 A 
ATOM      4  N   UNL d   1     -50.263  13.891  22.130  0.00  0.00    -0.270 N 
ATOM      5  C   UNL d   1     -48.896  14.245  22.355  0.00  0.00     0.036 A 
ATOM      6  C   UNL d   1     -49.700  14.433  22.393  0.00  0.00     0.069 A 
ATOM      7  O   UNL d   1     -50.591  12.613  21.563  0.00  0.00    -0.265 OA
ATOM      8  C   UNL d   1     -51.064  14.077  22.168  0.00  0.00     0.102 C 
ATOM      9  C   UNL d   1     -48.333  14.788  22.618  0.00  0.00     0.003 A 
ATOM     10  C   UNL d   1     -49.938  15.162  22.695  0.00  0.00     0.018 A 
ATOM     11  C   UNL d   1     -48.574  15.518  22.920  0.00  0.00     0.000 A 
ATOM     12  C   UNL d   1     -49.375  15.705  22.958  0.00  0.00     0.002 A 
ENDROOT
BRANCH   3  13
ATOM     13  N   UNL d   1     -47.851  13.326  22.014  0.00  0.00    -0.242 NA
BRANCH  13  14
ATOM     14  C   UNL d   1     -47.393  13.328  22.700  0.00  0.00     0.099 C 
BRANCH  14  15
ATOM     15  C   UNL d   1     -46.636  13.005  22.691  0.00  0.00     0.021 A 
ATOM     16  C   UNL d   1     -46.067  13.307  22.180  0.00  0.00     0.028 A 
ATOM     17  C   UNL d   1     -45.310  12.984  22.170  0.00  0.00     0.119 A 
ATOM     18  O   UNL d   1     -44.641  13.162  21.733  0.00  0.00    -0.300 OA
ATOM     19  C   UNL d   1     -45.122  12.358  22.674  0.00  0.00     0.119 A 
ATOM     20  C   UNL d   1     -44.036  12.651  21.959  0.00  0.00     0.304 A 
ATOM     21  O   UNL d   1     -44.339  12.153  22.544  0.00  0.00    -0.300 OA
ATOM     22  C   UNL d   1     -45.699  12.055  23.189  0.00  0.00     0.026 A 
ATOM     23  C   UNL d   1     -46.456  12.379  23.197  0.00  0.00     0.004 A 
ENDBRANCH  14  15
ENDBRANCH  13  14
ENDBRANCH   3  13
BRANCH   1  24
ATOM     24  N   UNL d   1     -48.984  12.235  21.485  0.00  0.00    -0.107 N 
ATOM     25  O   UNL d   1     -49.038  11.559  21.954  0.00  0.00    -0.531 OA
ATOM     26  O   UNL d   1     -48.687  12.180  20.715  0.00  0.00    -0.531 OA
ENDBRANCH   1  24
TORSDOF 4
ENDMDL
MODEL 3
REMARK VINA RESULT:      -8.1      1.517      2.184
REMARK  4 active torsions:
REMARK  status: ('A' for Active; 'I' for Inactive)
REMARK    1  A    between atoms: N_5  and  C_1 
REMARK    2  A    between atoms: N_8  and  C_3 
REMARK    3  A    between atoms: C_19  and  N_8 
REMARK    4  A    between atoms: C_21  and  C_19 
ROOT
ATOM      1  C   UNL d   1     -48.997  14.531  22.723  0.00  0.00     0.200 A 
ATOM      2  C   UNL d   1     -49.759  14.775  22.919  0.00  0.00     0.288 A 
ATOM      3  C   UNL d   1     -48.769  13.735  22.816  0.00  0.00     0.109 A 
ATOM      4  N   UNL d   1     -50.303  14.220  23.213  0.00  0.00    -0.270 N 
ATOM      5  C   UNL d   1     -49.319  13.187  23.111  0.00  0.00     0.036 A 
ATOM      6  C   UNL d   1     -50.084  13.430  23.309  0.00  0.00     0.069 A 
ATOM      7  O   UNL d   1     -49.978  15.564  22.824  0.00  0.00    -0.265 OA
ATOM      8  C   UNL d   1     -51.064  14.463  23.410  0.00  0.00     0.102 C 
ATOM      9  C   UNL d   1     -49.100  12.397  23.207  0.00  0.00     0.003 A 
ATOM     10  C   UNL d   1     -50.627  12.884  23.601  0.00  0.00     0.018 A 
ATOM     11  C   UNL d   1     -49.646  11.851  23.500  0.00  0.00     0.000 A 
ATOM     12  C   UNL d   1     -50.408  12.094  23.697  0.00  0.00     0.002 A 
ENDROOT
BRANCH   3  13
ATOM     13  N   UNL d   1     -48.007  13.491  22.620  0.00  0.00    -0.242 NA
BRANCH  13  14
ATOM     14  C   UNL d   1     -47.438  13.396  23.210  0.00  0.00     0.099 C 
BRANCH  14  15
ATOM     15  C   UNL d   1     -46.705  13.070  23.026  0.00  0.00     0.021 A 
ATOM     16  C   UNL d   1     -46.194  13.470  22.520  0.00  0.00     0.028 A 
ATOM     17  C   UNL d   1     -45.460  13.144  22.336  0.00  0.00     0.119 A 
ATOM     18  O   UNL d   1     -44.847  13.405  21.861  0.00  0.00    -0.300 OA
ATOM     19  C   UNL d   1     -45.238  12.418  22.658  0.00  0.00     0.119 A 
ATOM     20  C   UNL d   1     -44.242  12.847  21.884  0.00  0.00     0.304 A 
ATOM     21  O   UNL d   1     -44.489  12.235  22.381  0.00  0.00    -0.300 OA
ATOM     22  C   UNL d   1     -45.757  12.017  23.169  0.00  0.00     0.026 A 
ATOM     23  C   UNL d   1     -46.490  12.344  23.352  0.00  0.00     0.004 A 
ENDBRANCH  14  15
ENDBRANCH  13  14
ENDBRANCH   3  13
BRANCH   1  24
ATOM     24  N   UNL d   1     -48.448  15.079  22.428  0.00  0.00    -0.107 N 
ATOM     25  O   UNL d   1     -48.340  15.154  21.615  0.00  0.00    -0.531 OA
ATOM     26  O   UNL d   1     -48.008  15.549  22.948  0.00  0.00    -0.531 OA
ENDBRANCH   1  24
TORSDOF 4
ENDMDL
