MODEL 1
REMARK VINA RESULT:     -10.1      0.000      0.000
REMARK  4 active torsions:
REMARK  status: ('A' for Active; 'I' for Inactive)
REMARK    1  A    between atoms: N_3  and  C_1 
REMARK    2  A    between atoms: N_5  and  N_2 
REMARK    3  A    between atoms: S_4  and  N_5 
REMARK    4  A    between atoms: C_13  and  S_4 
ROOT
ATOM      1  C   UNL d   1      52.915  33.880  54.158  0.00  0.00     0.771 A 
ATOM      2  N   UNL d   1      53.487  33.315  54.007  0.00  0.00    -0.026 N 
ATOM      3  N   UNL d   1      53.095  34.230  54.884  0.00  0.00     0.048 NA
ATOM      4  C   UNL d   1      54.018  33.307  54.625  0.00  0.00     0.204 A 
ATOM      5  N   UNL d   1      53.780  33.875  55.174  0.00  0.00    -0.112 NA
ATOM      6  C   UNL d   1      54.681  32.822  54.699  0.00  0.00     0.044 C 
ENDROOT
BRANCH   2   7
ATOM      7  N   UNL d   1      53.530  32.828  53.344  0.00  0.00    -0.056 NA
BRANCH   7   8
ATOM      8  S   UNL d   1      53.407  32.018  53.406  0.00  0.00     0.301 S 
ATOM      9  O   UNL d   1      53.358  32.075  54.218  0.00  0.00    -0.197 OA
ATOM     10  O   UNL d   1      53.457  31.964  52.582  0.00  0.00    -0.197 OA
BRANCH   8  11
ATOM     11  C   UNL d   1      53.285  31.203  53.447  0.00  0.00     0.107 A 
ATOM     12  C   UNL d   1      52.684  30.859  52.999  0.00  0.00     0.015 A 
ATOM     13  C   UNL d   1      52.559  30.043  53.038  0.00  0.00     0.030 A 
ATOM     14  C   UNL d   1      53.039  29.577  53.526  0.00  0.00     0.140 A 
ATOM     15  C   UNL d   1      53.640  29.919  53.974  0.00  0.00     0.030 A 
ATOM     16  F   UNL d   1      52.913  28.768  53.562  0.00  0.00    -0.204 F 
ATOM     17  C   UNL d   1      53.766  30.736  53.936  0.00  0.00     0.015 A 
ENDBRANCH   8  11
ENDBRANCH   7   8
ENDBRANCH   2   7
BRANCH   1  18
ATOM     18  N   UNL d   1      52.276  34.064  53.670  0.00  0.00    -0.056 N 
ATOM     19  N   UNL d   1      51.554  33.666  53.643  0.00  0.00    -0.150 NA
ATOM     20  C   UNL d   1      51.079  34.035  53.080  0.00  0.00     0.103 A 
ATOM     21  C   UNL d   1      50.315  33.819  52.873  0.00  0.00     0.022 C 
ATOM     22  C   UNL d   1      51.506  34.663  52.757  0.00  0.00     0.041 A 
ATOM     23  C   UNL d   1      52.247  34.675  53.127  0.00  0.00     0.102 A 
ATOM     24  C   UNL d   1      52.850  35.215  52.971  0.00  0.00     0.021 C 
ENDBRANCH   1  18
TORSDOF 4
ENDMDL
MODEL 2
REMARK VINA RESULT:      -9.7      1.907      3.634
REMARK  4 active torsions:
REMARK  status: ('A' for Active; 'I' for Inactive)
REMARK    1  A    between atoms: N_3  and  C_1 
REMARK    2  A    between atoms: N_5  and  N_2 
REMARK    3  A    between atoms: S_4  and  N_5 
REMARK    4  A    between atoms: C_13  and  S_4 
ROOT
ATOM      1  C   UNL d   1      53.524  33.532  54.329  0.00  0.00     0.771 A 
ATOM      2  N   UNL d   1      53.182  34.158  53.929  0.00  0.00    -0.026 N 
ATOM      3  N   UNL d   1      53.668  33.779  55.104  0.00  0.00     0.048 NA
ATOM      4  C   UNL d   1      53.111  34.789  54.439  0.00  0.00     0.204 A 
ATOM      5  N   UNL d   1      53.412  34.560  55.172  0.00  0.00    -0.112 NA
ATOM      6  C   UNL d   1      52.796  35.531  54.265  0.00  0.00     0.044 C 
ENDROOT
BRANCH   2   7
ATOM      7  N   UNL d   1      52.944  34.163  53.140  0.00  0.00    -0.056 NA
BRANCH   7   8
ATOM      8  S   UNL d   1      52.152  34.242  52.938  0.00  0.00     0.301 S 
ATOM      9  O   UNL d   1      51.925  34.004  53.684  0.00  0.00    -0.197 OA
ATOM     10  O   UNL d   1      52.386  34.482  52.182  0.00  0.00    -0.197 OA
BRANCH   8  11
ATOM     11  C   UNL d   1      51.362  34.328  52.715  0.00  0.00     0.107 A 
ATOM     12  C   UNL d   1      51.152  34.241  51.923  0.00  0.00     0.015 A 
ATOM     13  C   UNL d   1      50.361  34.327  51.696  0.00  0.00     0.030 A 
ATOM     14  C   UNL d   1      49.787  34.499  52.268  0.00  0.00     0.140 A 
ATOM     15  C   UNL d   1      49.996  34.585  53.060  0.00  0.00     0.030 A 
ATOM     16  F   UNL d   1      49.004  34.583  52.040  0.00  0.00    -0.204 F 
ATOM     17  C   UNL d   1      50.787  34.500  53.288  0.00  0.00     0.015 A 
ENDBRANCH   8  11
ENDBRANCH   7   8
ENDBRANCH   2   7
BRANCH   1  18
ATOM     18  N   UNL d   1      53.692  32.789  54.012  0.00  0.00    -0.056 N 
ATOM     19  N   UNL d   1      53.162  32.163  53.930  0.00  0.00    -0.150 NA
ATOM     20  C   UNL d   1      53.563  31.529  53.589  0.00  0.00     0.103 A 
ATOM     21  C   UNL d   1      53.246  30.795  53.409  0.00  0.00     0.022 C 
ATOM     22  C   UNL d   1      54.344  31.762  53.459  0.00  0.00     0.041 A 
ATOM     23  C   UNL d   1      54.417  32.544  53.723  0.00  0.00     0.102 A 
ATOM     24  C   UNL d   1      55.107  32.994  53.697  0.00  0.00     0.021 C 
ENDBRANCH   1  18
TORSDOF 4
ENDMDL
MODEL 3
REMARK VINA RESULT:      -9.1      2.007      3.786
REMARK  4 active torsions:
REMARK  status: ('A' for Active; 'I' for Inactive)
REMARK    1  A    between atoms: N_3  and  C_1 
REMARK    2  A    between atoms: N_5  and  N_2 
REMARK    3  A    between atoms: S_4  and  N_5 
REMARK    4  A    between atoms: C_13  and  S_4 
ROOT
ATOM      1  C   UNL d   1      53.747  32.191  53.806  0.00  0.00     0.771 A 
ATOM      2  N   UNL d   1      52.945  32.290  53.678  0.00  0.00    -0.026 N 
ATOM      3  N   UNL d   1      53.971  31.482  53.447  0.00  0.00     0.048 NA
ATOM      4  C   UNL d   1      52.667  31.657  53.247  0.00  0.00     0.204 A 
ATOM      5  N   UNL d   1      53.301  31.151  53.100  0.00  0.00    -0.112 NA
ATOM      6  C   UNL d   1      51.891  31.534  52.996  0.00  0.00     0.044 C 
ENDROOT
BRANCH   2   7
ATOM      7  N   UNL d   1      52.483  32.921  53.937  0.00  0.00    -0.056 NA
BRANCH   7   8
ATOM      8  S   UNL d   1      51.956  33.296  53.430  0.00  0.00     0.301 S 
ATOM      9  O   UNL d   1      52.559  33.456  52.904  0.00  0.00    -0.197 OA
ATOM     10  O   UNL d   1      51.349  33.132  53.967  0.00  0.00    -0.197 OA
BRANCH   8  11
ATOM     11  C   UNL d   1      51.412  33.669  52.935  0.00  0.00     0.107 A 
ATOM     12  C   UNL d   1      50.625  33.731  53.170  0.00  0.00     0.015 A 
ATOM     13  C   UNL d   1      50.077  34.104  52.676  0.00  0.00     0.030 A 
ATOM     14  C   UNL d   1      50.324  34.412  51.948  0.00  0.00     0.140 A 
ATOM     15  C   UNL d   1      51.111  34.350  51.711  0.00  0.00     0.030 A 
ATOM     16  F   UNL d   1      49.777  34.781  51.460  0.00  0.00    -0.204 F 
ATOM     17  C   UNL d   1      51.660  33.978  52.205  0.00  0.00     0.015 A 
ENDBRANCH   8  11
ENDBRANCH   7   8
ENDBRANCH   2   7
BRANCH   1  18
ATOM     18  N   UNL d   1      54.239  32.709  54.220  0.00  0.00    -0.056 N 
ATOM     19  N   UNL d   1      54.134  32.962  54.997  0.00  0.00    -0.150 NA
ATOM     20  C   UNL d   1      54.752  33.473  55.186  0.00  0.00     0.103 A 
ATOM     21  C   UNL d   1      54.865  33.854  55.904  0.00  0.00     0.022 C 
ATOM     22  C   UNL d   1      55.241  33.537  54.525  0.00  0.00     0.041 A 
ATOM     23  C   UNL d   1      54.918  33.061  53.930  0.00  0.00     0.102 A 
ATOM     24  C   UNL d   1      55.231  32.961  53.174  0.00  0.00     0.021 C 
ENDBRANCH   1  18
TORSDOF 4
ENDMDL
MODEL 4
REMARK VINA RESULT:      -9.1      2.060      3.954
REMARK  4 active torsions:
REMARK  status: ('A' for Active; 'I' for Inactive)
REMARK    1  A    between atoms: N_3  and  C_1 
REMARK    2  A    between atoms: N_5  and  N_2 
REMARK    3  A    between atoms: S_4  and  N_5 
REMARK    4  A    between atoms: C_13  and  S_4 
ROOT
ATOM      1  C   UNL d   1      52.518  31.169  53.296  0.00  0.00     0.771 A 
ATOM      2  N   UNL d   1      52.978  31.836  53.185  0.00  0.00    -0.026 N 
ATOM      3  N   UNL d   1      51.732  31.380  53.154  0.00  0.00     0.048 NA
ATOM      4  C   UNL d   1      52.493  32.458  52.977  0.00  0.00     0.204 A 
ATOM      5  N   UNL d   1      51.717  32.180  52.956  0.00  0.00    -0.112 NA
ATOM      6  C   UNL d   1      52.727  33.231  52.814  0.00  0.00     0.044 C 
ENDROOT
BRANCH   2   7
ATOM      7  N   UNL d   1      53.796  31.886  53.267  0.00  0.00    -0.056 NA
BRANCH   7   8
ATOM      8  S   UNL d   1      54.137  32.395  53.814  0.00  0.00     0.301 S 
ATOM      9  O   UNL d   1      53.477  32.344  54.290  0.00  0.00    -0.197 OA
ATOM     10  O   UNL d   1      54.805  32.443  53.329  0.00  0.00    -0.197 OA
BRANCH   8  11
ATOM     11  C   UNL d   1      54.496  32.907  54.352  0.00  0.00     0.107 A 
ATOM     12  C   UNL d   1      55.103  33.403  54.097  0.00  0.00     0.015 A 
ATOM     13  C   UNL d   1      55.465  33.917  54.633  0.00  0.00     0.030 A 
ATOM     14  C   UNL d   1      55.215  33.931  55.422  0.00  0.00     0.140 A 
ATOM     15  C   UNL d   1      54.608  33.435  55.678  0.00  0.00     0.030 A 
ATOM     16  F   UNL d   1      55.576  34.442  55.951  0.00  0.00    -0.204 F 
ATOM     17  C   UNL d   1      54.245  32.920  55.143  0.00  0.00     0.015 A 
ENDBRANCH   8  11
ENDBRANCH   7   8
ENDBRANCH   2   7
BRANCH   1  18
ATOM     18  N   UNL d   1      52.794  30.422  53.511  0.00  0.00    -0.056 N 
ATOM     19  N   UNL d   1      52.965  30.168  54.277  0.00  0.00    -0.150 NA
ATOM     20  C   UNL d   1      53.224  29.386  54.237  0.00  0.00     0.103 A 
ATOM     21  C   UNL d   1      53.452  28.917  54.870  0.00  0.00     0.022 C 
ATOM     22  C   UNL d   1      53.214  29.155  53.445  0.00  0.00     0.041 A 
ATOM     23  C   UNL d   1      52.947  29.801  53.001  0.00  0.00     0.102 A 
ATOM     24  C   UNL d   1      52.852  29.812  52.182  0.00  0.00     0.021 C 
ENDBRANCH   1  18
TORSDOF 4
ENDMDL
MODEL 5
REMARK VINA RESULT:      -8.5      0.797      2.157
REMARK  4 active torsions:
REMARK  status: ('A' for Active; 'I' for Inactive)
REMARK    1  A    between atoms: N_3  and  C_1 
REMARK    2  A    between atoms: N_5  and  N_2 
REMARK    3  A    between atoms: S_4  and  N_5 
REMARK    4  A    between atoms: C_13  and  S_4 
ROOT
ATOM      1  C   UNL d   1      52.472  33.752  53.986  0.00  0.00     0.771 A 
ATOM      2  N   UNL d   1      52.377  33.165  53.424  0.00  0.00    -0.026 N 
ATOM      3  N   UNL d   1      51.724  34.066  54.147  0.00  0.00     0.048 NA
ATOM      4  C   UNL d   1      51.587  33.108  53.233  0.00  0.00     0.204 A 
ATOM      5  N   UNL d   1      51.176  33.666  53.680  0.00  0.00    -0.112 NA
ATOM      6  C   UNL d   1      51.248  32.588  52.690  0.00  0.00     0.044 C 
ENDROOT
BRANCH   2   7
ATOM      7  N   UNL d   1      52.975  32.702  53.096  0.00  0.00    -0.056 NA
BRANCH   7   8
ATOM      8  S   UNL d   1      52.990  31.888  53.211  0.00  0.00     0.301 S 
ATOM      9  O   UNL d   1      52.475  31.956  53.840  0.00  0.00    -0.197 OA
ATOM     10  O   UNL d   1      53.512  31.824  52.573  0.00  0.00    -0.197 OA
BRANCH   8  11
ATOM     11  C   UNL d   1      53.018  31.070  53.310  0.00  0.00     0.107 A 
ATOM     12  C   UNL d   1      53.400  30.753  53.969  0.00  0.00     0.015 A 
ATOM     13  C   UNL d   1      53.431  29.934  54.071  0.00  0.00     0.030 A 
ATOM     14  C   UNL d   1      53.076  29.437  53.511  0.00  0.00     0.140 A 
ATOM     15  C   UNL d   1      52.694  29.752  52.852  0.00  0.00     0.030 A 
ATOM     16  F   UNL d   1      53.109  28.624  53.615  0.00  0.00    -0.204 F 
ATOM     17  C   UNL d   1      52.663  30.572  52.749  0.00  0.00     0.015 A 
ENDBRANCH   8  11
ENDBRANCH   7   8
ENDBRANCH   2   7
BRANCH   1  18
ATOM     18  N   UNL d   1      53.186  33.985  54.327  0.00  0.00    -0.056 N 
ATOM     19  N   UNL d   1      53.653  33.533  54.834  0.00  0.00    -0.150 NA
ATOM     20  C   UNL d   1      54.314  33.980  55.041  0.00  0.00     0.103 A 
ATOM     21  C   UNL d   1      54.924  33.745  55.536  0.00  0.00     0.022 C 
ATOM     22  C   UNL d   1      54.256  34.711  54.663  0.00  0.00     0.041 A 
ATOM     23  C   UNL d   1      53.554  34.708  54.222  0.00  0.00     0.102 A 
ATOM     24  C   UNL d   1      53.279  35.330  53.758  0.00  0.00     0.021 C 
ENDBRANCH   1  18
TORSDOF 4
ENDMDL
MODEL 6
REMARK VINA RESULT:      -8.4      1.840      2.981
REMARK  4 active torsions:
REMARK  status: ('A' for Active; 'I' for Inactive)
REMARK    1  A    between atoms: N_3  and  C_1 
REMARK    2  A    between atoms: N_5  and  N_2 
REMARK    3  A    between atoms: S_4  and  N_5 
REMARK    4  A    between atoms: C_13  and  S_4 
ROOT
ATOM      1  C   UNL d   1      52.134  32.092  52.921  0.00  0.00     0.771 A 
ATOM      2  N   UNL d   1      52.935  31.964  53.023  0.00  0.00    -0.026 N 
ATOM      3  N   UNL d   1      51.747  31.374  53.053  0.00  0.00     0.048 NA
ATOM      4  C   UNL d   1      53.054  31.181  53.217  0.00  0.00     0.204 A 
ATOM      5  N   UNL d   1      52.318  30.809  53.237  0.00  0.00    -0.112 NA
ATOM      6  C   UNL d   1      53.777  30.815  53.368  0.00  0.00     0.044 C 
ENDROOT
BRANCH   2   7
ATOM      7  N   UNL d   1      53.534  32.525  52.947  0.00  0.00    -0.056 NA
BRANCH   7   8
ATOM      8  S   UNL d   1      53.946  32.796  53.604  0.00  0.00     0.301 S 
ATOM      9  O   UNL d   1      53.594  32.230  54.073  0.00  0.00    -0.197 OA
ATOM     10  O   UNL d   1      54.301  33.369  53.123  0.00  0.00    -0.197 OA
BRANCH   8  11
ATOM     11  C   UNL d   1      54.369  33.084  54.251  0.00  0.00     0.107 A 
ATOM     12  C   UNL d   1      55.101  33.443  54.131  0.00  0.00     0.015 A 
ATOM     13  C   UNL d   1      55.527  33.732  54.777  0.00  0.00     0.030 A 
ATOM     14  C   UNL d   1      55.215  33.658  55.541  0.00  0.00     0.140 A 
ATOM     15  C   UNL d   1      54.484  33.299  55.662  0.00  0.00     0.030 A 
ATOM     16  F   UNL d   1      55.641  33.946  56.180  0.00  0.00    -0.204 F 
ATOM     17  C   UNL d   1      54.056  33.009  55.016  0.00  0.00     0.015 A 
ENDBRANCH   8  11
ENDBRANCH   7   8
ENDBRANCH   2   7
BRANCH   1  18
ATOM     18  N   UNL d   1      51.780  32.810  52.721  0.00  0.00    -0.056 N 
ATOM     19  N   UNL d   1      51.999  33.303  52.097  0.00  0.00    -0.150 NA
ATOM     20  C   UNL d   1      51.499  33.958  52.101  0.00  0.00     0.103 A 
ATOM     21  C   UNL d   1      51.521  34.588  51.576  0.00  0.00     0.022 C 
ATOM     22  C   UNL d   1      50.970  33.872  52.728  0.00  0.00     0.041 A 
ATOM     23  C   UNL d   1      51.150  33.159  53.108  0.00  0.00     0.102 A 
ATOM     24  C   UNL d   1      50.757  32.855  53.766  0.00  0.00     0.021 C 
ENDBRANCH   1  18
TORSDOF 4
ENDMDL
