MODEL 1
REMARK VINA RESULT:     182.6      0.000      0.000
REMARK  5 active torsions:
REMARK  status: ('A' for Active; 'I' for Inactive)
REMARK    1  A    between atoms: N_11  and  C_4 
REMARK    2  A    between atoms: C_18  and  N_15 
REMARK    3  A    between atoms: C_21  and  C_18 
REMARK    4  A    between atoms: O_28  and  C_23 
REMARK    5  A    between atoms: C_31  and  O_28 
ROOT
ATOM      1  N   UNL d   1     -57.435-100.463 -42.727  0.00  0.00    -0.195 N 
ATOM      2  C   UNL d   1     -58.044 -99.960 -42.898  0.00  0.00     0.168 A 
ATOM      3  C   UNL d   1     -58.135 -99.666 -43.634  0.00  0.00     0.073 A 
ATOM      4  C   UNL d   1     -57.360-100.746 -41.987  0.00  0.00     0.153 A 
ATOM      5  N   UNL d   1     -57.003-100.382 -44.026  0.00  0.00    -0.143 NA
ATOM      6  C   UNL d   1     -57.612 -99.879 -44.198  0.00  0.00     0.185 A 
ATOM      7  N   UNL d   1     -58.563 -99.753 -42.325  0.00  0.00    -0.227 NA
ATOM      8  C   UNL d   1     -58.738 -99.168 -43.803  0.00  0.00     0.007 A 
ATOM      9  N   UNL d   1     -57.691 -99.590 -44.947  0.00  0.00    -0.225 NA
ATOM     10  C   UNL d   1     -57.871-100.544 -41.416  0.00  0.00     0.057 A 
ATOM     11  C   UNL d   1     -58.828 -98.875 -44.539  0.00  0.00     0.019 A 
ATOM     12  C   UNL d   1     -58.480-100.042 -41.587  0.00  0.00     0.086 A 
ATOM     13  C   UNL d   1     -58.301 -99.086 -45.118  0.00  0.00     0.083 A 
ATOM     14  C   UNL d   1     -59.258 -98.962 -43.226  0.00  0.00     0.000 C 
ATOM     15  C   UNL d   1     -59.018 -99.829 -40.988  0.00  0.00     0.021 C 
ATOM     16  C   UNL d   1     -58.384 -98.798 -45.852  0.00  0.00     0.021 C 
ENDROOT
BRANCH   4  17
ATOM     17  N   UNL d   1     -56.729-101.265 -41.818  0.00  0.00    -0.286 N 
ATOM     18  C   UNL d   1     -56.562-100.905 -41.092  0.00  0.00     0.101 A 
ATOM     19  C   UNL d   1     -55.945-101.195 -40.629  0.00  0.00     0.100 A 
ATOM     20  N   UNL d   1     -55.493-101.845 -40.890  0.00  0.00    -0.300 N 
ATOM     21  C   UNL d   1     -55.671-102.200 -41.626  0.00  0.00     0.100 A 
ATOM     22  C   UNL d   1     -56.294-101.906 -42.090  0.00  0.00     0.101 A 
BRANCH  20  23
ATOM     23  C   UNL d   1     -54.867-102.142 -40.425  0.00  0.00     0.080 C 
BRANCH  23  24
ATOM     24  C   UNL d   1     -54.933-102.139 -39.599  0.00  0.00     0.018 A 
ATOM     25  C   UNL d   1     -54.736-101.460 -39.161  0.00  0.00     0.004 A 
ATOM     26  C   UNL d   1     -54.803-101.458 -38.325  0.00  0.00     0.025 A 
ATOM     27  C   UNL d   1     -55.068-102.143 -37.928  0.00  0.00     0.100 A 
ATOM     28  C   UNL d   1     -55.268-102.834 -38.370  0.00  0.00     0.025 A 
ATOM     29  C   UNL d   1     -55.197-102.821 -39.200  0.00  0.00     0.004 A 
BRANCH  27  30
ATOM     30  O   UNL d   1     -55.136-102.148 -37.103  0.00  0.00    -0.305 OA
BRANCH  30  31
ATOM     31  C   UNL d   1     -54.757-101.559 -36.649  0.00  0.00     0.123 C 
ATOM     32  C   UNL d   1     -54.944-101.473 -35.837  0.00  0.00     0.029 C 
ENDBRANCH  30  31
ENDBRANCH  27  30
ENDBRANCH  23  24
ENDBRANCH  20  23
ENDBRANCH   4  17
TORSDOF 5
ENDMDL
