MODEL 1
REMARK VINA RESULT:      46.9      0.000      0.000
REMARK  6 active torsions:
REMARK  status: ('A' for Active; 'I' for Inactive)
REMARK       I    between atoms: C_2  and  N_1 
REMARK    1  A    between atoms: C_3  and  C_2 
REMARK    2  A    between atoms: C_12  and  C_4 
REMARK       I    between atoms: C_5  and  N_8 
REMARK    3  A    between atoms: C_6  and  C_5 
REMARK       I    between atoms: N_9  and  C_6 
REMARK    4  A    between atoms: N_8  and  C_12 
REMARK    5  A    between atoms: C_19  and  N_9 
REMARK    6  A    between atoms: C_21  and  C_19 
ROOT
ATOM      1  C   UNL d   1      15.129  16.337  -2.628  0.00  0.00     0.337 C 
ATOM      2  N   UNL d   1      14.758  15.984  -3.269  0.00  0.00    -0.199 NA
ATOM      3  O   UNL d   1      15.685  16.931  -2.754  0.00  0.00    -0.260 OA
ENDROOT
BRANCH   2   4
ATOM      4  C   UNL d   1      14.201  15.391  -3.143  0.00  0.00     0.146 C 
BRANCH   4   5
ATOM      5  C   UNL d   1      13.656  15.205  -3.743  0.00  0.00     0.190 A 
ATOM      6  N   UNL d   1      13.436  14.443  -3.960  0.00  0.00    -0.250 N 
ATOM      7  C   UNL d   1      13.664  13.697  -3.679  0.00  0.00     0.272 C 
ATOM      8  C   UNL d   1      12.887  14.518  -4.574  0.00  0.00     0.112 A 
ATOM      9  O   UNL d   1      14.214  13.640  -3.065  0.00  0.00    -0.266 OA
ATOM     10  C   UNL d   1      12.775  15.316  -4.728  0.00  0.00     0.144 A 
ATOM     11  O   UNL d   1      13.259  15.739  -4.204  0.00  0.00    -0.285 OA
BRANCH   7  12
ATOM     12  C   UNL d   1      13.346  13.014  -4.008  0.00  0.00     0.086 A 
ATOM     13  S   UNL d   1      13.233  12.254  -3.691  0.00  0.00    -0.082 SA
ATOM     14  C   UNL d   1      12.883  11.784  -4.289  0.00  0.00     0.036 A 
ATOM     15  C   UNL d   1      12.788  12.259  -4.957  0.00  0.00     0.008 A 
ATOM     16  C   UNL d   1      13.070  13.013  -4.790  0.00  0.00     0.012 A 
ENDBRANCH   7  12
ENDBRANCH   4   5
ENDBRANCH   2   4
BRANCH   1  17
ATOM     17  C   UNL d   1      14.949  16.103  -1.856  0.00  0.00     0.337 C 
ATOM     18  N   UNL d   1      15.385  15.522  -1.493  0.00  0.00    -0.202 NA
ATOM     19  O   UNL d   1      14.325  16.461  -1.458  0.00  0.00    -0.260 OA
BRANCH  18  20
ATOM     20  C   UNL d   1      15.206  15.287  -0.720  0.00  0.00     0.102 C 
BRANCH  20  21
ATOM     21  C   UNL d   1      15.069  14.499  -0.546  0.00  0.00     0.019 A 
ATOM     22  C   UNL d   1      14.321  14.231  -0.353  0.00  0.00     0.002 A 
ATOM     23  C   UNL d   1      14.174  13.451  -0.178  0.00  0.00     0.011 A 
ATOM     24  C   UNL d   1      14.805  12.905  -0.196  0.00  0.00     0.058 A 
ATOM     25  C   UNL d   1      15.563  13.158  -0.388  0.00  0.00     0.011 A 
ATOM     26 CL   UNL d   1      14.663  12.104  -0.018  0.00  0.00    -0.082 Cl
ATOM     27  C   UNL d   1      15.700  13.953  -0.564  0.00  0.00     0.002 A 
ENDBRANCH  20  21
ENDBRANCH  18  20
ENDBRANCH   1  17
TORSDOF 6
ENDMDL
MODEL 2
REMARK VINA RESULT:      47.1      1.703      3.540
REMARK  6 active torsions:
REMARK  status: ('A' for Active; 'I' for Inactive)
REMARK       I    between atoms: C_2  and  N_1 
REMARK    1  A    between atoms: C_3  and  C_2 
REMARK    2  A    between atoms: C_12  and  C_4 
REMARK       I    between atoms: C_5  and  N_8 
REMARK    3  A    between atoms: C_6  and  C_5 
REMARK       I    between atoms: N_9  and  C_6 
REMARK    4  A    between atoms: N_8  and  C_12 
REMARK    5  A    between atoms: C_19  and  N_9 
REMARK    6  A    between atoms: C_21  and  C_19 
ROOT
ATOM      1  C   UNL d   1      13.800  13.064  -4.718  0.00  0.00     0.337 C 
ATOM      2  N   UNL d   1      14.054  13.842  -4.768  0.00  0.00    -0.199 NA
ATOM      3  O   UNL d   1      13.905  12.557  -5.358  0.00  0.00    -0.260 OA
ENDROOT
BRANCH   2   4
ATOM      4  C   UNL d   1      13.949  14.349  -4.128  0.00  0.00     0.146 C 
BRANCH   4   5
ATOM      5  C   UNL d   1      14.328  15.089  -4.124  0.00  0.00     0.190 A 
ATOM      6  N   UNL d   1      14.521  15.515  -3.447  0.00  0.00    -0.250 N 
ATOM      7  C   UNL d   1      14.412  15.357  -2.640  0.00  0.00     0.272 C 
ATOM      8  C   UNL d   1      14.888  16.213  -3.700  0.00  0.00     0.112 A 
ATOM      9  O   UNL d   1      14.044  14.656  -2.405  0.00  0.00    -0.266 OA
ATOM     10  C   UNL d   1      14.916  16.210  -4.520  0.00  0.00     0.144 A 
ATOM     11  O   UNL d   1      14.564  15.505  -4.777  0.00  0.00    -0.285 OA
BRANCH   7  12
ATOM     12  C   UNL d   1      14.667  15.895  -2.073  0.00  0.00     0.086 A 
ATOM     13  S   UNL d   1      14.583  16.720  -2.024  0.00  0.00    -0.082 SA
ATOM     14  C   UNL d   1      14.959  16.967  -1.318  0.00  0.00     0.036 A 
ATOM     15  C   UNL d   1      15.264  16.295  -0.948  0.00  0.00     0.008 A 
ATOM     16  C   UNL d   1      15.088  15.636  -1.408  0.00  0.00     0.012 A 
ENDBRANCH   7  12
ENDBRANCH   4   5
ENDBRANCH   2   4
BRANCH   1  17
ATOM     17  C   UNL d   1      13.440  12.783  -4.029  0.00  0.00     0.337 C 
ATOM     18  N   UNL d   1      13.745  12.138  -3.642  0.00  0.00    -0.202 NA
ATOM     19  O   UNL d   1      12.769  13.161  -3.738  0.00  0.00    -0.260 OA
BRANCH  18  20
ATOM     20  C   UNL d   1      13.384  11.856  -2.952  0.00  0.00     0.102 C 
BRANCH  20  21
ATOM     21  C   UNL d   1      13.796  11.837  -2.245  0.00  0.00     0.019 A 
ATOM     22  C   UNL d   1      14.613  11.830  -2.230  0.00  0.00     0.002 A 
ATOM     23  C   UNL d   1      15.032  11.811  -1.534  0.00  0.00     0.011 A 
ATOM     24  C   UNL d   1      14.616  11.798  -0.810  0.00  0.00     0.058 A 
ATOM     25  C   UNL d   1      13.794  11.805  -0.808  0.00  0.00     0.011 A 
ATOM     26 CL   UNL d   1      15.037  11.779  -0.092  0.00  0.00    -0.082 Cl
ATOM     27  C   UNL d   1      13.380  11.824  -1.521  0.00  0.00     0.002 A 
ENDBRANCH  20  21
ENDBRANCH  18  20
ENDBRANCH   1  17
TORSDOF 6
ENDMDL
MODEL 3
REMARK VINA RESULT:      49.0      1.461      3.823
REMARK  6 active torsions:
REMARK  status: ('A' for Active; 'I' for Inactive)
REMARK       I    between atoms: C_2  and  N_1 
REMARK    1  A    between atoms: C_3  and  C_2 
REMARK    2  A    between atoms: C_12  and  C_4 
REMARK       I    between atoms: C_5  and  N_8 
REMARK    3  A    between atoms: C_6  and  C_5 
REMARK       I    between atoms: N_9  and  C_6 
REMARK    4  A    between atoms: N_8  and  C_12 
REMARK    5  A    between atoms: C_19  and  N_9 
REMARK    6  A    between atoms: C_21  and  C_19 
ROOT
ATOM      1  C   UNL d   1      14.551  16.069  -3.207  0.00  0.00     0.337 C 
ATOM      2  N   UNL d   1      14.849  15.850  -2.475  0.00  0.00    -0.199 NA
ATOM      3  O   UNL d   1      14.909  16.678  -3.629  0.00  0.00    -0.260 OA
ENDROOT
BRANCH   2   4
ATOM      4  C   UNL d   1      14.491  15.241  -2.053  0.00  0.00     0.146 C 
BRANCH   4   5
ATOM      5  C   UNL d   1      14.738  15.079  -1.276  0.00  0.00     0.190 A 
ATOM      6  N   UNL d   1      14.792  14.327  -0.947  0.00  0.00    -0.250 N 
ATOM      7  C   UNL d   1      14.635  13.572  -1.253  0.00  0.00     0.272 C 
ATOM      8  C   UNL d   1      15.058  14.425  -0.169  0.00  0.00     0.112 A 
ATOM      9  O   UNL d   1      14.370  13.492  -2.031  0.00  0.00    -0.266 OA
ATOM     10  C   UNL d   1      15.164  15.226  -0.029  0.00  0.00     0.144 A 
ATOM     11  O   UNL d   1      14.961  15.628  -0.726  0.00  0.00    -0.285 OA
BRANCH   7  12
ATOM     12  C   UNL d   1      14.741  12.904  -0.786  0.00  0.00     0.086 A 
ATOM     13  S   UNL d   1      14.194  12.380  -0.445  0.00  0.00    -0.082 SA
ATOM     14  C   UNL d   1      14.629  11.801  -0.027  0.00  0.00     0.036 A 
ATOM     15  C   UNL d   1      15.430  11.977  -0.117  0.00  0.00     0.008 A 
ATOM     16  C   UNL d   1      15.504  12.652  -0.581  0.00  0.00     0.012 A 
ENDBRANCH   7  12
ENDBRANCH   4   5
ENDBRANCH   2   4
BRANCH   1  17
ATOM     17  C   UNL d   1      13.894  15.682  -3.527  0.00  0.00     0.337 C 
ATOM     18  N   UNL d   1      13.870  15.501  -4.318  0.00  0.00    -0.202 NA
ATOM     19  O   UNL d   1      13.263  15.482  -3.038  0.00  0.00    -0.260 OA
BRANCH  18  20
ATOM     20  C   UNL d   1      13.213  15.115  -4.638  0.00  0.00     0.102 C 
BRANCH  20  21
ATOM     21  C   UNL d   1      13.188  14.297  -4.677  0.00  0.00     0.019 A 
ATOM     22  C   UNL d   1      12.799  13.858  -4.108  0.00  0.00     0.002 A 
ATOM     23  C   UNL d   1      12.769  13.046  -4.137  0.00  0.00     0.011 A 
ATOM     24  C   UNL d   1      13.146  12.647  -4.766  0.00  0.00     0.058 A 
ATOM     25  C   UNL d   1      13.541  13.075  -5.346  0.00  0.00     0.011 A 
ATOM     26 CL   UNL d   1      13.119  11.816  -4.803  0.00  0.00    -0.082 Cl
ATOM     27  C   UNL d   1      13.565  13.899  -5.306  0.00  0.00     0.002 A 
ENDBRANCH  20  21
ENDBRANCH  18  20
ENDBRANCH   1  17
TORSDOF 6
ENDMDL
