MODEL 1
REMARK VINA RESULT:      -4.7      0.000      0.000
REMARK  4 active torsions:
REMARK  status: ('A' for Active; 'I' for Inactive)
REMARK    1  A    between atoms: S_3  and  N_1 
REMARK    2  A    between atoms: C_7  and  C_4 
REMARK    3  A    between atoms: C_12  and  C_5 
REMARK    4  A    between atoms: O_24  and  C_21 
ROOT
ATOM      1  N   UNL d   1      58.216  -0.226  29.783  0.00  0.00    -0.155 N 
ATOM      2  N   UNL d   1      57.733   0.151  30.319  0.00  0.00    -0.156 NA
ATOM      3  C   UNL d   1      58.284  -1.005  30.005  0.00  0.00     0.096 A 
ATOM      4  C   UNL d   1      57.501  -0.397  30.875  0.00  0.00     0.103 A 
ATOM      5  C   UNL d   1      57.838  -1.116  30.688  0.00  0.00     0.041 A 
ENDROOT
BRANCH   3   6
ATOM      6  C   UNL d   1      58.723  -1.586  29.616  0.00  0.00     0.020 A 
ATOM      7  C   UNL d   1      59.499  -1.741  29.849  0.00  0.00     0.022 A 
ATOM      8  C   UNL d   1      59.937  -2.322  29.460  0.00  0.00     0.099 A 
ATOM      9  N   UNL d   1      60.713  -2.478  29.694  0.00  0.00    -0.241 NA
ATOM     10  C   UNL d   1      59.601  -2.745  28.843  0.00  0.00     0.099 A 
ATOM     11  C   UNL d   1      61.104  -3.030  29.311  0.00  0.00     0.120 A 
ATOM     12  C   UNL d   1      60.768  -3.453  28.694  0.00  0.00     0.120 A 
ATOM     13  N   UNL d   1      60.041  -3.326  28.455  0.00  0.00    -0.241 NA
ATOM     14  C   UNL d   1      58.826  -2.589  28.610  0.00  0.00     0.021 A 
ATOM     15  C   UNL d   1      58.387  -2.009  28.998  0.00  0.00     0.003 A 
ENDBRANCH   3   6
BRANCH   1  16
ATOM     16  S   UNL d   1      58.575   0.112  29.132  0.00  0.00     0.266 S 
ATOM     17  O   UNL d   1      57.903  -0.079  28.663  0.00  0.00    -0.203 OA
ATOM     18  O   UNL d   1      58.945   0.459  28.461  0.00  0.00    -0.203 OA
ATOM     19  C   UNL d   1      59.225   0.297  29.583  0.00  0.00     0.165 C 
ENDBRANCH   1  16
BRANCH   4  20
ATOM     20  C   UNL d   1      57.015  -0.259  31.512  0.00  0.00     0.020 A 
ATOM     21  C   UNL d   1      56.901   0.490  31.798  0.00  0.00     0.004 A 
ATOM     22  C   UNL d   1      56.402   0.641  32.455  0.00  0.00     0.024 A 
ATOM     23  C   UNL d   1      56.016   0.003  32.818  0.00  0.00     0.094 A 
ATOM     24  C   UNL d   1      56.142  -0.761  32.513  0.00  0.00     0.024 A 
ATOM     25  C   UNL d   1      56.627  -0.894  31.878  0.00  0.00     0.004 A 
BRANCH  23  26
ATOM     26  O   UNL d   1      55.545   0.126  33.433  0.00  0.00    -0.328 OA
ATOM     27  C   UNL d   1      55.859   0.382  34.157  0.00  0.00     0.181 C 
ENDBRANCH  23  26
ENDBRANCH   4  20
TORSDOF 4
ENDMDL
MODEL 2
REMARK VINA RESULT:      -2.6      0.834      1.264
REMARK  4 active torsions:
REMARK  status: ('A' for Active; 'I' for Inactive)
REMARK    1  A    between atoms: S_3  and  N_1 
REMARK    2  A    between atoms: C_7  and  C_4 
REMARK    3  A    between atoms: C_12  and  C_5 
REMARK    4  A    between atoms: O_24  and  C_21 
ROOT
ATOM      1  N   UNL d   1      58.059  -0.133  30.343  0.00  0.00    -0.155 N 
ATOM      2  N   UNL d   1      57.554   0.193  30.892  0.00  0.00    -0.156 NA
ATOM      3  C   UNL d   1      58.102  -0.933  30.480  0.00  0.00     0.096 A 
ATOM      4  C   UNL d   1      57.283  -0.407  31.371  0.00  0.00     0.103 A 
ATOM      5  C   UNL d   1      57.618  -1.110  31.123  0.00  0.00     0.041 A 
ENDROOT
BRANCH   3   6
ATOM      6  C   UNL d   1      58.551  -1.478  30.052  0.00  0.00     0.020 A 
ATOM      7  C   UNL d   1      58.187  -2.137  29.714  0.00  0.00     0.022 A 
ATOM      8  C   UNL d   1      58.636  -2.681  29.286  0.00  0.00     0.099 A 
ATOM      9  N   UNL d   1      58.272  -3.340  28.948  0.00  0.00    -0.241 NA
ATOM     10  C   UNL d   1      59.444  -2.567  29.198  0.00  0.00     0.099 A 
ATOM     11  C   UNL d   1      58.718  -3.837  28.550  0.00  0.00     0.120 A 
ATOM     12  C   UNL d   1      59.526  -3.723  28.462  0.00  0.00     0.120 A 
ATOM     13  N   UNL d   1      59.892  -3.112  28.770  0.00  0.00    -0.241 NA
ATOM     14  C   UNL d   1      59.807  -1.909  29.537  0.00  0.00     0.021 A 
ATOM     15  C   UNL d   1      59.359  -1.365  29.964  0.00  0.00     0.003 A 
ENDBRANCH   3   6
BRANCH   1  16
ATOM     16  S   UNL d   1      58.458   0.265  29.753  0.00  0.00     0.266 S 
ATOM     17  O   UNL d   1      59.165   0.230  30.208  0.00  0.00    -0.203 OA
ATOM     18  O   UNL d   1      58.870   0.676  29.145  0.00  0.00    -0.203 OA
ATOM     19  C   UNL d   1      57.777   0.301  29.311  0.00  0.00     0.165 C 
ENDBRANCH   1  16
BRANCH   4  20
ATOM     20  C   UNL d   1      56.767  -0.329  31.993  0.00  0.00     0.020 A 
ATOM     21  C   UNL d   1      56.050  -0.704  31.994  0.00  0.00     0.004 A 
ATOM     22  C   UNL d   1      55.511  -0.629  32.632  0.00  0.00     0.024 A 
ATOM     23  C   UNL d   1      55.723  -0.155  33.278  0.00  0.00     0.094 A 
ATOM     24  C   UNL d   1      56.463   0.225  33.265  0.00  0.00     0.024 A 
ATOM     25  C   UNL d   1      56.974   0.144  32.642  0.00  0.00     0.004 A 
BRANCH  23  26
ATOM     26  O   UNL d   1      55.231  -0.073  33.884  0.00  0.00    -0.328 OA
ATOM     27  C   UNL d   1      55.093   0.676  34.213  0.00  0.00     0.181 C 
ENDBRANCH  23  26
ENDBRANCH   4  20
TORSDOF 4
ENDMDL
