MODEL 1
REMARK VINA RESULT:      -5.0      0.000      0.000
REMARK  4 active torsions:
REMARK  status: ('A' for Active; 'I' for Inactive)
REMARK    1  A    between atoms: C_9  and  C_4 
REMARK    2  A    between atoms: C_7  and  C_11 
REMARK    3  A    between atoms: O_12  and  C_7 
REMARK    4  A    between atoms: C_11  and  C_9 
ROOT
ATOM      1  N   UNL d   1      56.890   0.361  31.577  0.00  0.00    -0.239 NA
ATOM      2  N   UNL d   1      56.642  -1.250  31.856  0.00  0.00    -0.205 NA
ATOM      3  C   UNL d   1      57.117  -1.006  31.228  0.00  0.00     0.297 A 
ATOM      4  C   UNL d   1      57.243  -0.195  31.085  0.00  0.00     0.139 A 
ATOM      5  C   UNL d   1      56.416   0.116  32.203  0.00  0.00     0.099 A 
ATOM      6  C   UNL d   1      56.291  -0.687  32.344  0.00  0.00     0.102 A 
ATOM      7  O   UNL d   1      57.473  -1.565  30.732  0.00  0.00    -0.264 OA
ATOM      8  C   UNL d   1      56.063   0.681  32.694  0.00  0.00     0.021 A 
ATOM      9  C   UNL d   1      55.813  -0.925  32.976  0.00  0.00     0.021 A 
ATOM     10  C   UNL d   1      55.463  -0.362  33.463  0.00  0.00     0.002 A 
ATOM     11  C   UNL d   1      55.588   0.441  33.321  0.00  0.00     0.002 A 
ENDROOT
BRANCH   4  12
ATOM     12  C   UNL d   1      57.719   0.043  30.457  0.00  0.00     0.029 C 
BRANCH  12  13
ATOM     13  C   UNL d   1      58.398   0.482  30.597  0.00  0.00     0.070 C 
BRANCH  13  14
ATOM     14  C   UNL d   1      58.946   0.594  29.986  0.00  0.00     0.296 C 
ATOM     15  O   UNL d   1      58.697   0.636  29.201  0.00  0.00    -0.259 OA
BRANCH  14  16
ATOM     16  O   UNL d   1      59.754   0.664  30.168  0.00  0.00    -0.296 OA
ATOM     17  C   UNL d   1      60.323   0.426  29.620  0.00  0.00     0.185 C 
ENDBRANCH  14  16
ENDBRANCH  13  14
ENDBRANCH  12  13
ENDBRANCH   4  12
TORSDOF 4
ENDMDL
MODEL 2
REMARK VINA RESULT:      -4.8      1.549      2.007
REMARK  4 active torsions:
REMARK  status: ('A' for Active; 'I' for Inactive)
REMARK    1  A    between atoms: C_9  and  C_4 
REMARK    2  A    between atoms: C_7  and  C_11 
REMARK    3  A    between atoms: O_12  and  C_7 
REMARK    4  A    between atoms: C_11  and  C_9 
ROOT
ATOM      1  N   UNL d   1      57.197  -1.001  31.151  0.00  0.00    -0.239 NA
ATOM      2  N   UNL d   1      57.565   0.492  31.759  0.00  0.00    -0.205 NA
ATOM      3  C   UNL d   1      57.943   0.216  31.080  0.00  0.00     0.297 A 
ATOM      4  C   UNL d   1      57.759  -0.536  30.772  0.00  0.00     0.139 A 
ATOM      5  C   UNL d   1      56.820  -0.724  31.828  0.00  0.00     0.099 A 
ATOM      6  C   UNL d   1      57.003   0.021  32.132  0.00  0.00     0.102 A 
ATOM      7  O   UNL d   1      58.509   0.682  30.698  0.00  0.00    -0.264 OA
ATOM      8  C   UNL d   1      56.255  -1.197  32.204  0.00  0.00     0.021 A 
ATOM      9  C   UNL d   1      56.620   0.292  32.813  0.00  0.00     0.021 A 
ATOM     10  C   UNL d   1      56.058  -0.179  33.186  0.00  0.00     0.002 A 
ATOM     11  C   UNL d   1      55.876  -0.924  32.882  0.00  0.00     0.002 A 
ENDROOT
BRANCH   4  12
ATOM     12  C   UNL d   1      58.139  -0.809  30.094  0.00  0.00     0.029 C 
BRANCH  12  13
ATOM     13  C   UNL d   1      58.166  -1.612  29.931  0.00  0.00     0.070 C 
BRANCH  13  14
ATOM     14  C   UNL d   1      58.598  -1.883  29.279  0.00  0.00     0.296 C 
ATOM     15  O   UNL d   1      58.525  -1.515  28.545  0.00  0.00    -0.259 OA
BRANCH  14  16
ATOM     16  O   UNL d   1      59.110  -2.532  29.366  0.00  0.00    -0.296 OA
ATOM     17  C   UNL d   1      59.242  -3.043  28.731  0.00  0.00     0.185 C 
ENDBRANCH  14  16
ENDBRANCH  13  14
ENDBRANCH  12  13
ENDBRANCH   4  12
TORSDOF 4
ENDMDL
MODEL 3
REMARK VINA RESULT:      -4.8      1.810      3.813
REMARK  4 active torsions:
REMARK  status: ('A' for Active; 'I' for Inactive)
REMARK    1  A    between atoms: C_9  and  C_4 
REMARK    2  A    between atoms: C_7  and  C_11 
REMARK    3  A    between atoms: O_12  and  C_7 
REMARK    4  A    between atoms: C_11  and  C_9 
ROOT
ATOM      1  N   UNL d   1      56.841   0.256  31.594  0.00  0.00    -0.239 NA
ATOM      2  N   UNL d   1      57.192  -1.322  31.246  0.00  0.00    -0.205 NA
ATOM      3  C   UNL d   1      56.622  -1.140  31.813  0.00  0.00     0.297 A 
ATOM      4  C   UNL d   1      56.444  -0.345  31.990  0.00  0.00     0.139 A 
ATOM      5  C   UNL d   1      57.409   0.072  31.028  0.00  0.00     0.099 A 
ATOM      6  C   UNL d   1      57.586  -0.715  30.853  0.00  0.00     0.102 A 
ATOM      7  O   UNL d   1      56.222  -1.743  32.213  0.00  0.00    -0.264 OA
ATOM      8  C   UNL d   1      57.805   0.682  30.633  0.00  0.00     0.021 A 
ATOM      9  C   UNL d   1      58.158  -0.891  30.283  0.00  0.00     0.021 A 
ATOM     10  C   UNL d   1      58.550  -0.284  29.891  0.00  0.00     0.002 A 
ATOM     11  C   UNL d   1      58.374   0.503  30.066  0.00  0.00     0.002 A 
ENDROOT
BRANCH   4  12
ATOM     12  C   UNL d   1      55.874  -0.168  32.558  0.00  0.00     0.029 C 
BRANCH  12  13
ATOM     13  C   UNL d   1      56.048   0.355  33.167  0.00  0.00     0.070 C 
BRANCH  13  14
ATOM     14  C   UNL d   1      55.508   0.454  33.787  0.00  0.00     0.296 C 
ATOM     15  O   UNL d   1      54.701   0.333  33.664  0.00  0.00    -0.259 OA
BRANCH  14  16
ATOM     16  O   UNL d   1      55.782   0.678  34.538  0.00  0.00    -0.296 OA
ATOM     17  C   UNL d   1      55.271   0.666  35.186  0.00  0.00     0.185 C 
ENDBRANCH  14  16
ENDBRANCH  13  14
ENDBRANCH  12  13
ENDBRANCH   4  12
TORSDOF 4
ENDMDL
MODEL 4
REMARK VINA RESULT:      -4.3      1.311      1.746
REMARK  4 active torsions:
REMARK  status: ('A' for Active; 'I' for Inactive)
REMARK    1  A    between atoms: C_9  and  C_4 
REMARK    2  A    between atoms: C_7  and  C_11 
REMARK    3  A    between atoms: O_12  and  C_7 
REMARK    4  A    between atoms: C_11  and  C_9 
ROOT
ATOM      1  N   UNL d   1      56.529   0.327  32.242  0.00  0.00    -0.239 NA
ATOM      2  N   UNL d   1      57.304   0.600  33.677  0.00  0.00    -0.205 NA
ATOM      3  C   UNL d   1      57.732   0.573  32.973  0.00  0.00     0.297 A 
ATOM      4  C   UNL d   1      57.344   0.435  32.249  0.00  0.00     0.139 A 
ATOM      5  C   UNL d   1      56.103   0.355  32.945  0.00  0.00     0.099 A 
ATOM      6  C   UNL d   1      56.488   0.491  33.662  0.00  0.00     0.102 A 
ATOM      7  O   UNL d   1      58.552   0.682  32.978  0.00  0.00    -0.264 OA
ATOM      8  C   UNL d   1      55.283   0.245  32.931  0.00  0.00     0.021 A 
ATOM      9  C   UNL d   1      56.052   0.517  34.364  0.00  0.00     0.021 A 
ATOM     10  C   UNL d   1      55.237   0.408  34.349  0.00  0.00     0.002 A 
ATOM     11  C   UNL d   1      54.853   0.271  33.632  0.00  0.00     0.002 A 
ENDROOT
BRANCH   4  12
ATOM     12  C   UNL d   1      57.775   0.409  31.548  0.00  0.00     0.029 C 
BRANCH  12  13
ATOM     13  C   UNL d   1      57.522  -0.062  30.925  0.00  0.00     0.070 C 
BRANCH  13  14
ATOM     14  C   UNL d   1      57.956  -0.076  30.220  0.00  0.00     0.296 C 
ATOM     15  O   UNL d   1      58.096   0.620  29.800  0.00  0.00    -0.259 OA
BRANCH  14  16
ATOM     16  O   UNL d   1      58.252  -0.798  29.934  0.00  0.00    -0.296 OA
ATOM     17  C   UNL d   1      58.523  -0.855  29.157  0.00  0.00     0.185 C 
ENDBRANCH  14  16
ENDBRANCH  13  14
ENDBRANCH  12  13
ENDBRANCH   4  12
TORSDOF 4
ENDMDL
MODEL 5
REMARK VINA RESULT:      -3.9      2.008      4.176
REMARK  4 active torsions:
REMARK  status: ('A' for Active; 'I' for Inactive)
REMARK    1  A    between atoms: C_9  and  C_4 
REMARK    2  A    between atoms: C_7  and  C_11 
REMARK    3  A    between atoms: O_12  and  C_7 
REMARK    4  A    between atoms: C_11  and  C_9 
ROOT
ATOM      1  N   UNL d   1      57.974  -1.356  30.145  0.00  0.00    -0.239 NA
ATOM      2  N   UNL d   1      59.175  -0.355  29.604  0.00  0.00    -0.205 NA
ATOM      3  C   UNL d   1      58.634  -0.089  30.168  0.00  0.00     0.297 A 
ATOM      4  C   UNL d   1      58.029  -0.591  30.442  0.00  0.00     0.139 A 
ATOM      5  C   UNL d   1      58.514  -1.621  29.584  0.00  0.00     0.099 A 
ATOM      6  C   UNL d   1      59.113  -1.123  29.313  0.00  0.00     0.102 A 
ATOM      7  O   UNL d   1      58.688   0.681  30.466  0.00  0.00    -0.264 OA
ATOM      8  C   UNL d   1      58.453  -2.392  29.290  0.00  0.00     0.021 A 
ATOM      9  C   UNL d   1      59.652  -1.396  28.748  0.00  0.00     0.021 A 
ATOM     10  C   UNL d   1      59.590  -2.163  28.457  0.00  0.00     0.002 A 
ATOM     11  C   UNL d   1      58.990  -2.661  28.728  0.00  0.00     0.002 A 
ENDROOT
BRANCH   4  12
ATOM     12  C   UNL d   1      57.492  -0.321  31.004  0.00  0.00     0.029 C 
BRANCH  12  13
ATOM     13  C   UNL d   1      57.038  -0.855  31.431  0.00  0.00     0.070 C 
BRANCH  13  14
ATOM     14  C   UNL d   1      56.551  -0.581  32.043  0.00  0.00     0.296 C 
ATOM     15  O   UNL d   1      56.313   0.208  32.068  0.00  0.00    -0.259 OA
BRANCH  14  16
ATOM     16  O   UNL d   1      56.302  -1.107  32.636  0.00  0.00    -0.296 OA
ATOM     17  C   UNL d   1      55.679  -0.901  33.136  0.00  0.00     0.185 C 
ENDBRANCH  14  16
ENDBRANCH  13  14
ENDBRANCH  12  13
ENDBRANCH   4  12
TORSDOF 4
ENDMDL
MODEL 6
REMARK VINA RESULT:      -3.8      1.470      4.195
REMARK  4 active torsions:
REMARK  status: ('A' for Active; 'I' for Inactive)
REMARK    1  A    between atoms: C_9  and  C_4 
REMARK    2  A    between atoms: C_7  and  C_11 
REMARK    3  A    between atoms: O_12  and  C_7 
REMARK    4  A    between atoms: C_11  and  C_9 
ROOT
ATOM      1  N   UNL d   1      58.941   0.460  30.536  0.00  0.00    -0.239 NA
ATOM      2  N   UNL d   1      58.764   0.682  28.907  0.00  0.00    -0.205 NA
ATOM      3  C   UNL d   1      58.100   0.627  29.393  0.00  0.00     0.297 A 
ATOM      4  C   UNL d   1      58.187   0.515  30.214  0.00  0.00     0.139 A 
ATOM      5  C   UNL d   1      59.603   0.516  30.051  0.00  0.00     0.099 A 
ATOM      6  C   UNL d   1      59.517   0.626  29.238  0.00  0.00     0.102 A 
ATOM      7  O   UNL d   1      57.341   0.681  29.070  0.00  0.00    -0.264 OA
ATOM      8  C   UNL d   1      60.359   0.460  30.382  0.00  0.00     0.021 A 
ATOM      9  C   UNL d   1      60.186   0.681  28.756  0.00  0.00     0.021 A 
ATOM     10  C   UNL d   1      60.938   0.625  29.087  0.00  0.00     0.002 A 
ATOM     11  C   UNL d   1      61.024   0.515  29.900  0.00  0.00     0.002 A 
ENDROOT
BRANCH   4  12
ATOM     12  C   UNL d   1      57.521   0.460  30.695  0.00  0.00     0.029 C 
BRANCH  12  13
ATOM     13  C   UNL d   1      57.547   0.018  31.386  0.00  0.00     0.070 C 
BRANCH  13  14
ATOM     14  C   UNL d   1      56.858  -0.078  31.836  0.00  0.00     0.296 C 
ATOM     15  O   UNL d   1      56.388   0.572  32.028  0.00  0.00    -0.259 OA
BRANCH  14  16
ATOM     16  O   UNL d   1      56.640  -0.837  32.096  0.00  0.00    -0.296 OA
ATOM     17  C   UNL d   1      56.023  -0.928  32.635  0.00  0.00     0.185 C 
ENDBRANCH  14  16
ENDBRANCH  13  14
ENDBRANCH  12  13
ENDBRANCH   4  12
TORSDOF 4
ENDMDL
MODEL 7
REMARK VINA RESULT:      -3.7      1.801      4.009
REMARK  4 active torsions:
REMARK  status: ('A' for Active; 'I' for Inactive)
REMARK    1  A    between atoms: C_9  and  C_4 
REMARK    2  A    between atoms: C_7  and  C_11 
REMARK    3  A    between atoms: O_12  and  C_7 
REMARK    4  A    between atoms: C_11  and  C_9 
ROOT
ATOM      1  N   UNL d   1      57.223   0.218  31.430  0.00  0.00    -0.239 NA
ATOM      2  N   UNL d   1      58.752   0.674  31.865  0.00  0.00    -0.205 NA
ATOM      3  C   UNL d   1      58.174   0.557  32.442  0.00  0.00     0.297 A 
ATOM      4  C   UNL d   1      57.403   0.327  32.225  0.00  0.00     0.139 A 
ATOM      5  C   UNL d   1      57.800   0.335  30.856  0.00  0.00     0.099 A 
ATOM      6  C   UNL d   1      58.564   0.563  31.071  0.00  0.00     0.102 A 
ATOM      7  O   UNL d   1      58.353   0.666  33.242  0.00  0.00    -0.264 OA
ATOM      8  C   UNL d   1      57.612   0.223  30.058  0.00  0.00     0.021 A 
ATOM      9  C   UNL d   1      59.139   0.679  30.489  0.00  0.00     0.021 A 
ATOM     10  C   UNL d   1      58.950   0.567  29.696  0.00  0.00     0.002 A 
ATOM     11  C   UNL d   1      58.187   0.340  29.481  0.00  0.00     0.002 A 
ENDROOT
BRANCH   4  12
ATOM     12  C   UNL d   1      56.829   0.211  32.804  0.00  0.00     0.029 C 
BRANCH  12  13
ATOM     13  C   UNL d   1      56.052   0.057  32.589  0.00  0.00     0.070 C 
BRANCH  13  14
ATOM     14  C   UNL d   1      55.476  -0.035  33.177  0.00  0.00     0.296 C 
ATOM     15  O   UNL d   1      55.174  -0.781  33.356  0.00  0.00    -0.259 OA
BRANCH  14  16
ATOM     16  O   UNL d   1      55.200   0.632  33.589  0.00  0.00    -0.296 OA
ATOM     17  C   UNL d   1      54.482   0.599  33.995  0.00  0.00     0.185 C 
ENDBRANCH  14  16
ENDBRANCH  13  14
ENDBRANCH  12  13
ENDBRANCH   4  12
TORSDOF 4
ENDMDL
MODEL 8
REMARK VINA RESULT:      -3.3      2.270      3.059
REMARK  4 active torsions:
REMARK  status: ('A' for Active; 'I' for Inactive)
REMARK    1  A    between atoms: C_9  and  C_4 
REMARK    2  A    between atoms: C_7  and  C_11 
REMARK    3  A    between atoms: O_12  and  C_7 
REMARK    4  A    between atoms: C_11  and  C_9 
ROOT
ATOM      1  N   UNL d   1      58.041  -1.304  30.088  0.00  0.00    -0.239 NA
ATOM      2  N   UNL d   1      58.239   0.286  29.679  0.00  0.00    -0.205 NA
ATOM      3  C   UNL d   1      58.585  -0.307  29.221  0.00  0.00     0.297 A 
ATOM      4  C   UNL d   1      58.487  -1.108  29.425  0.00  0.00     0.139 A 
ATOM      5  C   UNL d   1      57.697  -0.712  30.543  0.00  0.00     0.099 A 
ATOM      6  C   UNL d   1      57.795   0.081  30.341  0.00  0.00     0.102 A 
ATOM      7  O   UNL d   1      59.034  -0.111  28.554  0.00  0.00    -0.264 OA
ATOM      8  C   UNL d   1      57.250  -0.917  31.209  0.00  0.00     0.021 A 
ATOM      9  C   UNL d   1      57.445   0.671  30.804  0.00  0.00     0.021 A 
ATOM     10  C   UNL d   1      57.001   0.466  31.465  0.00  0.00     0.002 A 
ATOM     11  C   UNL d   1      56.903  -0.328  31.668  0.00  0.00     0.002 A 
ENDROOT
BRANCH   4  12
ATOM     12  C   UNL d   1      58.834  -1.697  28.965  0.00  0.00     0.029 C 
BRANCH  12  13
ATOM     13  C   UNL d   1      59.185  -2.346  29.323  0.00  0.00     0.070 C 
BRANCH  13  14
ATOM     14  C   UNL d   1      59.393  -3.003  28.864  0.00  0.00     0.296 C 
ATOM     15  O   UNL d   1      58.812  -3.494  28.545  0.00  0.00    -0.259 OA
BRANCH  14  16
ATOM     16  O   UNL d   1      60.196  -3.169  28.725  0.00  0.00    -0.296 OA
ATOM     17  C   UNL d   1      60.637  -3.580  29.287  0.00  0.00     0.185 C 
ENDBRANCH  14  16
ENDBRANCH  13  14
ENDBRANCH  12  13
ENDBRANCH   4  12
TORSDOF 4
ENDMDL
MODEL 9
REMARK VINA RESULT:      -2.1      0.811      1.085
REMARK  4 active torsions:
REMARK  status: ('A' for Active; 'I' for Inactive)
REMARK    1  A    between atoms: C_9  and  C_4 
REMARK    2  A    between atoms: C_7  and  C_11 
REMARK    3  A    between atoms: O_12  and  C_7 
REMARK    4  A    between atoms: C_11  and  C_9 
ROOT
ATOM      1  N   UNL d   1      57.782   0.628  32.062  0.00  0.00    -0.239 NA
ATOM      2  N   UNL d   1      56.898  -0.614  31.420  0.00  0.00    -0.205 NA
ATOM      3  C   UNL d   1      57.562  -0.329  31.023  0.00  0.00     0.297 A 
ATOM      4  C   UNL d   1      58.009   0.296  31.345  0.00  0.00     0.139 A 
ATOM      5  C   UNL d   1      57.119   0.343  32.456  0.00  0.00     0.099 A 
ATOM      6  C   UNL d   1      56.676  -0.276  32.138  0.00  0.00     0.102 A 
ATOM      7  O   UNL d   1      57.792  -0.662  30.302  0.00  0.00    -0.264 OA
ATOM      8  C   UNL d   1      56.896   0.682  33.178  0.00  0.00     0.021 A 
ATOM      9  C   UNL d   1      56.011  -0.557  32.541  0.00  0.00     0.021 A 
ATOM     10  C   UNL d   1      55.791  -0.220  33.258  0.00  0.00     0.002 A 
ATOM     11  C   UNL d   1      56.233   0.400  33.576  0.00  0.00     0.002 A 
ENDROOT
BRANCH   4  12
ATOM     12  C   UNL d   1      58.672   0.577  30.945  0.00  0.00     0.029 C 
BRANCH  12  13
ATOM     13  C   UNL d   1      59.351   0.119  30.900  0.00  0.00     0.070 C 
BRANCH  13  14
ATOM     14  C   UNL d   1      60.061   0.463  30.648  0.00  0.00     0.296 C 
ATOM     15  O   UNL d   1      60.651   0.653  31.192  0.00  0.00    -0.259 OA
BRANCH  14  16
ATOM     16  O   UNL d   1      60.179   0.618  29.840  0.00  0.00    -0.296 OA
ATOM     17  C   UNL d   1      60.830   0.298  29.449  0.00  0.00     0.185 C 
ENDBRANCH  14  16
ENDBRANCH  13  14
ENDBRANCH  12  13
ENDBRANCH   4  12
TORSDOF 4
ENDMDL
