MODEL 1
REMARK VINA RESULT:      32.3      0.000      0.000
REMARK  6 active torsions:
REMARK  status: ('A' for Active; 'I' for Inactive)
REMARK    1  A    between atoms: C_9  and  N_1 
REMARK    2  A    between atoms: N_6  and  C_2 
REMARK    3  A    between atoms: C_7  and  C_5 
REMARK    4  A    between atoms: C_13  and  N_6 
REMARK    5  A    between atoms: C_8  and  C_7 
REMARK       I    between atoms: N_10  and  C_8 
REMARK    6  A    between atoms: C_14  and  N_10 
ROOT
ATOM      1  N   UNL d   1      46.227 -17.994  43.689  0.00  0.00    -0.254 N 
ATOM      2  C   UNL d   1      46.373 -17.706  42.929  0.00  0.00     0.182 A 
ATOM      3  C   UNL d   1      45.962 -17.398  44.144  0.00  0.00     0.272 A 
ATOM      4  S   UNL d   1      46.181 -16.888  42.938  0.00  0.00    -0.045 SA
ATOM      5  C   UNL d   1      45.926 -16.701  43.697  0.00  0.00     0.093 A 
ATOM      6  O   UNL d   1      45.754 -17.454  44.937  0.00  0.00    -0.266 OA
ENDROOT
BRANCH   5   7
ATOM      7  C   UNL d   1      45.685 -15.969  43.954  0.00  0.00     0.074 C 
BRANCH   7   8
ATOM      8  C   UNL d   1      45.174 -15.918  44.597  0.00  0.00     0.280 C 
ATOM      9  N   UNL d   1      44.951 -15.153  44.871  0.00  0.00    -0.208 NA
ATOM     10  O   UNL d   1      44.896 -16.578  44.953  0.00  0.00    -0.265 OA
BRANCH   9  11
ATOM     11  C   UNL d   1      45.244 -14.491  44.497  0.00  0.00     0.085 A 
ATOM     12  C   UNL d   1      45.952 -14.145  44.763  0.00  0.00     0.019 A 
ATOM     13  C   UNL d   1      46.261 -13.467  44.387  0.00  0.00     0.002 A 
ATOM     14  C   UNL d   1      45.848 -13.148  43.748  0.00  0.00     0.000 A 
ATOM     15  C   UNL d   1      45.139 -13.492  43.480  0.00  0.00     0.002 A 
ATOM     16  C   UNL d   1      44.838 -14.161  43.853  0.00  0.00     0.019 A 
ENDBRANCH   9  11
ENDBRANCH   7   8
ENDBRANCH   5   7
BRANCH   1  17
ATOM     17  C   UNL d   1      46.336 -18.760  43.934  0.00  0.00     0.069 A 
ATOM     18  C   UNL d   1      46.241 -19.377  43.384  0.00  0.00     0.018 A 
ATOM     19  C   UNL d   1      46.349 -20.166  43.622  0.00  0.00     0.002 A 
ATOM     20  C   UNL d   1      46.552 -20.329  44.406  0.00  0.00     0.000 A 
ATOM     21  C   UNL d   1      46.647 -19.712  44.955  0.00  0.00     0.002 A 
ATOM     22  C   UNL d   1      46.537 -18.934  44.711  0.00  0.00     0.018 A 
ENDBRANCH   1  17
BRANCH   2  23
ATOM     23  N   UNL d   1      46.647 -18.083  42.260  0.00  0.00    -0.222 NA
BRANCH  23  24
ATOM     24  C   UNL d   1      46.224 -18.054  41.561  0.00  0.00     0.084 A 
ATOM     25  C   UNL d   1      45.405 -18.144  41.570  0.00  0.00     0.019 A 
ATOM     26  C   UNL d   1      44.980 -18.113  40.852  0.00  0.00     0.002 A 
ATOM     27  C   UNL d   1      45.370 -17.995  40.156  0.00  0.00     0.000 A 
ATOM     28  C   UNL d   1      46.196 -17.904  40.146  0.00  0.00     0.002 A 
ATOM     29  C   UNL d   1      46.624 -17.933  40.851  0.00  0.00     0.019 A 
ENDBRANCH  23  24
ENDBRANCH   2  23
TORSDOF 6
ENDMDL
MODEL 2
REMARK VINA RESULT:      32.5      0.759      2.561
REMARK  6 active torsions:
REMARK  status: ('A' for Active; 'I' for Inactive)
REMARK    1  A    between atoms: C_9  and  N_1 
REMARK    2  A    between atoms: N_6  and  C_2 
REMARK    3  A    between atoms: C_7  and  C_5 
REMARK    4  A    between atoms: C_13  and  N_6 
REMARK    5  A    between atoms: C_8  and  C_7 
REMARK       I    between atoms: N_10  and  C_8 
REMARK    6  A    between atoms: C_14  and  N_10 
ROOT
ATOM      1  N   UNL d   1      46.016 -17.503  42.564  0.00  0.00    -0.254 N 
ATOM      2  C   UNL d   1      46.334 -17.887  43.222  0.00  0.00     0.182 A 
ATOM      3  C   UNL d   1      45.785 -16.773  42.778  0.00  0.00     0.272 A 
ATOM      4  S   UNL d   1      46.287 -17.347  43.865  0.00  0.00    -0.045 SA
ATOM      5  C   UNL d   1      45.945 -16.655  43.582  0.00  0.00     0.093 A 
ATOM      6  O   UNL d   1      45.441 -16.214  42.284  0.00  0.00    -0.266 OA
ENDROOT
BRANCH   5   7
ATOM      7  C   UNL d   1      45.794 -15.984  44.016  0.00  0.00     0.074 C 
BRANCH   7   8
ATOM      8  C   UNL d   1      45.262 -16.022  44.643  0.00  0.00     0.280 C 
ATOM      9  N   UNL d   1      44.955 -15.301  44.951  0.00  0.00    -0.208 NA
ATOM     10  O   UNL d   1      45.045 -16.727  44.952  0.00  0.00    -0.265 OA
BRANCH   9  11
ATOM     11  C   UNL d   1      45.188 -14.592  44.624  0.00  0.00     0.085 A 
ATOM     12  C   UNL d   1      45.938 -14.281  44.803  0.00  0.00     0.019 A 
ATOM     13  C   UNL d   1      46.186 -13.556  44.474  0.00  0.00     0.002 A 
ATOM     14  C   UNL d   1      45.673 -13.156  43.968  0.00  0.00     0.000 A 
ATOM     15  C   UNL d   1      44.922 -13.465  43.786  0.00  0.00     0.002 A 
ATOM     16  C   UNL d   1      44.680 -14.181  44.113  0.00  0.00     0.019 A 
ENDBRANCH   9  11
ENDBRANCH   7   8
ENDBRANCH   5   7
BRANCH   1  17
ATOM     17  C   UNL d   1      45.949 -17.820  41.820  0.00  0.00     0.069 A 
ATOM     18  C   UNL d   1      46.637 -17.959  41.376  0.00  0.00     0.018 A 
ATOM     19  C   UNL d   1      46.582 -18.282  40.612  0.00  0.00     0.002 A 
ATOM     20  C   UNL d   1      45.838 -18.463  40.301  0.00  0.00     0.000 A 
ATOM     21  C   UNL d   1      45.150 -18.324  40.746  0.00  0.00     0.002 A 
ATOM     22  C   UNL d   1      45.214 -18.003  41.501  0.00  0.00     0.018 A 
ENDBRANCH   1  17
BRANCH   2  23
ATOM     23  N   UNL d   1      46.647 -18.636  43.304  0.00  0.00    -0.222 NA
BRANCH  23  24
ATOM     24  C   UNL d   1      46.272 -19.198  43.764  0.00  0.00     0.084 A 
ATOM     25  C   UNL d   1      45.575 -19.550  43.499  0.00  0.00     0.019 A 
ATOM     26  C   UNL d   1      45.198 -20.124  43.974  0.00  0.00     0.002 A 
ATOM     27  C   UNL d   1      45.514 -20.330  44.687  0.00  0.00     0.000 A 
ATOM     28  C   UNL d   1      46.217 -19.975  44.955  0.00  0.00     0.002 A 
ATOM     29  C   UNL d   1      46.596 -19.408  44.491  0.00  0.00     0.019 A 
ENDBRANCH  23  24
ENDBRANCH   2  23
TORSDOF 6
ENDMDL
