MODEL 1
REMARK VINA RESULT:      27.6      0.000      0.000
REMARK  3 active torsions:
REMARK  status: ('A' for Active; 'I' for Inactive)
REMARK    1  A    between atoms: C_7  and  C_1 
REMARK    2  A    between atoms: O_14  and  C_7 
REMARK    3  A    between atoms: C_17  and  O_14 
ROOT
ATOM      1  C   UNL d   1      59.757  49.599  50.221  0.00  0.00     0.127 A 
ATOM      2  C   UNL d   1      59.794  49.649  49.404  0.00  0.00     0.305 A 
ATOM      3  C   UNL d   1      59.023  49.585  50.596  0.00  0.00     0.013 A 
ATOM      4  C   UNL d   1      58.326  49.621  50.156  0.00  0.00     0.023 A 
ATOM      5  O   UNL d   1      59.098  49.685  48.964  0.00  0.00    -0.273 OA
ATOM      6  C   UNL d   1      58.364  49.671  49.339  0.00  0.00     0.103 A 
ATOM      7  C   UNL d   1      57.608  49.607  50.532  0.00  0.00     0.002 A 
ATOM      8  O   UNL d   1      60.546  49.663  49.029  0.00  0.00    -0.259 OA
ATOM      9  C   UNL d   1      57.684  49.708  48.900  0.00  0.00     0.025 A 
ATOM     10  C   UNL d   1      56.912  49.643  50.092  0.00  0.00     0.000 A 
ATOM     11  C   UNL d   1      56.950  49.694  49.275  0.00  0.00     0.002 A 
ATOM     12  C   UNL d   1      57.570  49.556  51.358  0.00  0.00     0.000 A 
ATOM     13  C   UNL d   1      56.178  49.629  50.467  0.00  0.00     0.000 A 
ATOM     14  C   UNL d   1      56.849  49.541  51.747  0.00  0.00     0.000 A 
ATOM     15  C   UNL d   1      56.140  49.578  51.297  0.00  0.00     0.000 A 
ENDROOT
BRANCH   1  16
ATOM     16  C   UNL d   1      60.470  49.561  50.683  0.00  0.00     0.305 C 
ATOM     17  O   UNL d   1      61.197  49.471  50.318  0.00  0.00    -0.259 OA
BRANCH  16  18
ATOM     18  O   UNL d   1      60.421  49.614  51.491  0.00  0.00    -0.271 OA
BRANCH  18  19
ATOM     19  C   UNL d   1      61.048  49.351  51.958  0.00  0.00     0.126 C 
ATOM     20  C   UNL d   1      61.236  49.708  52.742  0.00  0.00     0.029 C 
ENDBRANCH  18  19
ENDBRANCH  16  18
ENDBRANCH   1  16
TORSDOF 3
ENDMDL
