MODEL 1
REMARK VINA RESULT:      -7.8      0.000      0.000
REMARK  4 active torsions:
REMARK  status: ('A' for Active; 'I' for Inactive)
REMARK    1  A    between atoms: S_10  and  C_5 
REMARK       I    between atoms: N_7  and  C_8 
REMARK    2  A    between atoms: C_8  and  C_11 
REMARK    3  A    between atoms: C_11  and  S_10 
REMARK    4  A    between atoms: C_19  and  C_12 
ROOT
ATOM      1  S   UNL d   1      51.345  34.255  53.125  0.00  0.00    -0.054 SA
ENDROOT
BRANCH   1   2
ATOM      2  C   UNL d   1      50.642  34.409  52.697  0.00  0.00     0.163 A 
ATOM      3  S   UNL d   1      49.964  34.814  52.984  0.00  0.00    -0.021 SA
ATOM      4  C   UNL d   1      49.398  34.841  52.376  0.00  0.00     0.200 A 
ATOM      5  N   UNL d   1      48.782  35.168  52.525  0.00  0.00    -0.182 NA
ATOM      6  N   UNL d   1      49.714  34.453  51.697  0.00  0.00    -0.204 N 
ATOM      7  C   UNL d   1      48.160  35.254  52.008  0.00  0.00     0.281 A 
ATOM      8  O   UNL d   1      47.696  35.664  52.570  0.00  0.00    -0.265 OA
ATOM      9  C   UNL d   1      48.112  34.974  51.189  0.00  0.00     0.064 A 
ATOM     10  C   UNL d   1      48.718  34.544  50.746  0.00  0.00     0.026 A 
ATOM     11  C   UNL d   1      49.468  34.318  51.034  0.00  0.00     0.103 A 
ATOM     12  N   UNL d   1      50.486  34.185  51.897  0.00  0.00    -0.150 NA
ENDBRANCH   1   2
BRANCH   1  13
ATOM     13  C   UNL d   1      51.711  33.524  53.071  0.00  0.00     0.099 C 
BRANCH  13  14
ATOM     14  C   UNL d   1      52.388  33.368  53.514  0.00  0.00     0.271 C 
ATOM     15  N   UNL d   1      52.753  32.643  53.475  0.00  0.00    -0.273 N 
ATOM     16  C   UNL d   1      53.421  32.493  53.913  0.00  0.00     0.067 A 
ATOM     17  C   UNL d   1      52.448  32.054  52.990  0.00  0.00     0.083 A 
ATOM     18  C   UNL d   1      53.786  31.748  53.866  0.00  0.00     0.018 A 
ATOM     19  C   UNL d   1      53.472  31.175  53.382  0.00  0.00     0.003 A 
ATOM     20  C   UNL d   1      52.802  31.330  52.944  0.00  0.00     0.019 A 
ATOM     21  O   UNL d   1      52.697  33.956  54.001  0.00  0.00    -0.266 OA
BRANCH  16  22
ATOM     22  C   UNL d   1      53.729  33.076  54.398  0.00  0.00     0.018 C 
ATOM     23  C   UNL d   1      54.390  32.903  54.872  0.00  0.00     0.002 C 
ENDBRANCH  16  22
ENDBRANCH  13  14
ENDBRANCH   1  13
TORSDOF 4
ENDMDL
MODEL 2
REMARK VINA RESULT:      -7.5      1.207      5.250
REMARK  4 active torsions:
REMARK  status: ('A' for Active; 'I' for Inactive)
REMARK    1  A    between atoms: S_10  and  C_5 
REMARK       I    between atoms: N_7  and  C_8 
REMARK    2  A    between atoms: C_8  and  C_11 
REMARK    3  A    between atoms: C_11  and  S_10 
REMARK    4  A    between atoms: C_19  and  C_12 
ROOT
ATOM      1  S   UNL d   1      51.317  34.111  52.428  0.00  0.00    -0.054 SA
ENDROOT
BRANCH   1   2
ATOM      2  C   UNL d   1      51.921  33.859  52.951  0.00  0.00     0.163 A 
ATOM      3  S   UNL d   1      52.218  33.077  53.027  0.00  0.00    -0.021 SA
ATOM      4  C   UNL d   1      52.812  33.078  53.608  0.00  0.00     0.200 A 
ATOM      5  N   UNL d   1      53.127  32.453  53.745  0.00  0.00    -0.182 NA
ATOM      6  N   UNL d   1      52.895  33.862  53.906  0.00  0.00    -0.204 N 
ATOM      7  C   UNL d   1      53.718  32.336  54.291  0.00  0.00     0.281 A 
ATOM      8  O   UNL d   1      53.772  31.520  54.120  0.00  0.00    -0.265 OA
ATOM      9  C   UNL d   1      54.081  32.929  54.810  0.00  0.00     0.064 A 
ATOM     10  C   UNL d   1      53.892  33.771  54.856  0.00  0.00     0.026 A 
ATOM     11  C   UNL d   1      53.316  34.170  54.402  0.00  0.00     0.103 A 
ATOM     12  N   UNL d   1      52.342  34.347  53.498  0.00  0.00    -0.150 NA
ENDBRANCH   1   2
BRANCH   1  13
ATOM     13  C   UNL d   1      50.590  34.349  52.721  0.00  0.00     0.099 C 
BRANCH  13  14
ATOM     14  C   UNL d   1      49.963  34.490  52.204  0.00  0.00     0.271 C 
ATOM     15  N   UNL d   1      49.325  34.937  52.436  0.00  0.00    -0.273 N 
ATOM     16  C   UNL d   1      48.709  35.074  51.923  0.00  0.00     0.067 A 
ATOM     17  C   UNL d   1      49.298  35.256  53.192  0.00  0.00     0.083 A 
ATOM     18  C   UNL d   1      48.062  35.532  52.170  0.00  0.00     0.018 A 
ATOM     19  C   UNL d   1      48.049  35.842  52.922  0.00  0.00     0.003 A 
ATOM     20  C   UNL d   1      48.670  35.702  53.433  0.00  0.00     0.019 A 
ATOM     21  O   UNL d   1      49.986  34.172  51.444  0.00  0.00    -0.266 OA
BRANCH  16  22
ATOM     22  C   UNL d   1      48.730  34.759  51.168  0.00  0.00     0.018 C 
ATOM     23  C   UNL d   1      48.068  34.848  50.672  0.00  0.00     0.002 C 
ENDBRANCH  16  22
ENDBRANCH  13  14
ENDBRANCH   1  13
TORSDOF 4
ENDMDL
MODEL 3
REMARK VINA RESULT:      -7.3      1.033      1.808
REMARK  4 active torsions:
REMARK  status: ('A' for Active; 'I' for Inactive)
REMARK    1  A    between atoms: S_10  and  C_5 
REMARK       I    between atoms: N_7  and  C_8 
REMARK    2  A    between atoms: C_8  and  C_11 
REMARK    3  A    between atoms: C_11  and  S_10 
REMARK    4  A    between atoms: C_19  and  C_12 
ROOT
ATOM      1  S   UNL d   1      50.845  33.935  52.610  0.00  0.00    -0.054 SA
ENDROOT
BRANCH   1   2
ATOM      2  C   UNL d   1      50.140  34.387  52.590  0.00  0.00     0.163 A 
ATOM      3  S   UNL d   1      49.599  34.436  51.950  0.00  0.00    -0.021 SA
ATOM      4  C   UNL d   1      48.980  34.946  52.168  0.00  0.00     0.200 A 
ATOM      5  N   UNL d   1      48.466  35.052  51.685  0.00  0.00    -0.182 NA
ATOM      6  N   UNL d   1      49.125  35.224  52.951  0.00  0.00    -0.204 N 
ATOM      7  C   UNL d   1      47.815  35.528  51.790  0.00  0.00     0.281 A 
ATOM      8  O   UNL d   1      47.518  35.360  51.027  0.00  0.00    -0.265 OA
ATOM      9  C   UNL d   1      47.611  35.996  52.491  0.00  0.00     0.064 A 
ATOM     10  C   UNL d   1      48.058  36.055  53.229  0.00  0.00     0.026 A 
ATOM     11  C   UNL d   1      48.777  35.666  53.401  0.00  0.00     0.103 A 
ATOM     12  N   UNL d   1      49.844  34.877  53.213  0.00  0.00    -0.150 NA
ENDBRANCH   1   2
BRANCH   1  13
ATOM     13  C   UNL d   1      51.402  34.063  53.195  0.00  0.00     0.099 C 
BRANCH  13  14
ATOM     14  C   UNL d   1      52.029  33.535  53.291  0.00  0.00     0.271 C 
ATOM     15  N   UNL d   1      52.643  33.706  53.795  0.00  0.00    -0.273 N 
ATOM     16  C   UNL d   1      53.259  33.184  53.888  0.00  0.00     0.067 A 
ATOM     17  C   UNL d   1      52.646  34.411  54.217  0.00  0.00     0.083 A 
ATOM     18  C   UNL d   1      53.881  33.368  54.405  0.00  0.00     0.018 A 
ATOM     19  C   UNL d   1      53.871  34.070  54.816  0.00  0.00     0.003 A 
ATOM     20  C   UNL d   1      53.251  34.591  54.720  0.00  0.00     0.019 A 
ATOM     21  O   UNL d   1      52.029  32.827  52.871  0.00  0.00    -0.266 OA
BRANCH  16  22
ATOM     22  C   UNL d   1      53.261  32.479  53.470  0.00  0.00     0.018 C 
ATOM     23  C   UNL d   1      53.863  31.924  53.613  0.00  0.00     0.002 C 
ENDBRANCH  16  22
ENDBRANCH  13  14
ENDBRANCH   1  13
TORSDOF 4
ENDMDL
MODEL 4
REMARK VINA RESULT:      -6.4     10.163     10.582
REMARK  4 active torsions:
REMARK  status: ('A' for Active; 'I' for Inactive)
REMARK    1  A    between atoms: S_10  and  C_5 
REMARK       I    between atoms: N_7  and  C_8 
REMARK    2  A    between atoms: C_8  and  C_11 
REMARK    3  A    between atoms: C_11  and  S_10 
REMARK    4  A    between atoms: C_19  and  C_12 
ROOT
ATOM      1  S   UNL d   1      44.731  30.778  59.649  0.00  0.00    -0.054 SA
ENDROOT
BRANCH   1   2
ATOM      2  C   UNL d   1      44.767  30.405  58.899  0.00  0.00     0.163 A 
ATOM      3  S   UNL d   1      44.667  30.779  58.154  0.00  0.00    -0.021 SA
ATOM      4  C   UNL d   1      44.746  30.204  57.560  0.00  0.00     0.200 A 
ATOM      5  N   UNL d   1      44.676  30.427  56.886  0.00  0.00    -0.182 NA
ATOM      6  N   UNL d   1      44.897  29.459  57.925  0.00  0.00    -0.204 N 
ATOM      7  C   UNL d   1      44.734  29.953  56.227  0.00  0.00     0.281 A 
ATOM      8  O   UNL d   1      44.596  30.592  55.705  0.00  0.00    -0.265 OA
ATOM      9  C   UNL d   1      44.888  29.101  56.202  0.00  0.00     0.064 A 
ATOM     10  C   UNL d   1      45.013  28.572  56.875  0.00  0.00     0.026 A 
ATOM     11  C   UNL d   1      45.008  28.791  57.680  0.00  0.00     0.103 A 
ATOM     12  N   UNL d   1      44.910  29.584  58.757  0.00  0.00    -0.150 NA
ENDBRANCH   1   2
BRANCH   1  13
ATOM     13  C   UNL d   1      44.778  30.332  60.334  0.00  0.00     0.099 C 
BRANCH  13  14
ATOM     14  C   UNL d   1      44.623  30.682  61.065  0.00  0.00     0.271 C 
ATOM     15  N   UNL d   1      44.573  30.231  61.739  0.00  0.00    -0.273 N 
ATOM     16  C   UNL d   1      44.420  30.579  62.458  0.00  0.00     0.067 A 
ATOM     17  C   UNL d   1      44.678  29.417  61.700  0.00  0.00     0.083 A 
ATOM     18  C   UNL d   1      44.371  30.110  63.142  0.00  0.00     0.018 A 
ATOM     19  C   UNL d   1      44.478  29.305  63.087  0.00  0.00     0.003 A 
ATOM     20  C   UNL d   1      44.631  28.960  62.364  0.00  0.00     0.019 A 
ATOM     21  O   UNL d   1      44.516  31.497  61.109  0.00  0.00    -0.266 OA
BRANCH  16  22
ATOM     22  C   UNL d   1      44.314  31.390  62.503  0.00  0.00     0.018 C 
ATOM     23  C   UNL d   1      44.314  31.758  63.249  0.00  0.00     0.002 C 
ENDBRANCH  16  22
ENDBRANCH  13  14
ENDBRANCH   1  13
TORSDOF 4
ENDMDL
MODEL 5
REMARK VINA RESULT:      -5.5     10.187     10.907
REMARK  4 active torsions:
REMARK  status: ('A' for Active; 'I' for Inactive)
REMARK    1  A    between atoms: S_10  and  C_5 
REMARK       I    between atoms: N_7  and  C_8 
REMARK    2  A    between atoms: C_8  and  C_11 
REMARK    3  A    between atoms: C_11  and  S_10 
REMARK    4  A    between atoms: C_19  and  C_12 
ROOT
ATOM      1  S   UNL d   1      44.981  27.253  58.051  0.00  0.00    -0.054 SA
ENDROOT
BRANCH   1   2
ATOM      2  C   UNL d   1      44.892  26.542  57.618  0.00  0.00     0.163 A 
ATOM      3  S   UNL d   1      44.720  25.784  57.937  0.00  0.00    -0.021 SA
ATOM      4  C   UNL d   1      44.681  25.239  57.312  0.00  0.00     0.200 A 
ATOM      5  N   UNL d   1      44.538  24.561  57.485  0.00  0.00    -0.182 NA
ATOM      6  N   UNL d   1      44.827  25.648  56.589  0.00  0.00    -0.204 N 
ATOM      7  C   UNL d   1      44.476  23.946  56.957  0.00  0.00     0.281 A 
ATOM      8  O   UNL d   1      44.314  23.390  57.560  0.00  0.00    -0.265 OA
ATOM      9  C   UNL d   1      44.567  23.979  56.095  0.00  0.00     0.064 A 
ATOM     10  C   UNL d   1      44.743  24.675  55.614  0.00  0.00     0.026 A 
ATOM     11  C   UNL d   1      44.859  25.452  55.897  0.00  0.00     0.103 A 
ATOM     12  N   UNL d   1      44.958  26.456  56.779  0.00  0.00    -0.150 NA
ENDBRANCH   1   2
BRANCH   1  13
ATOM     13  C   UNL d   1      44.907  27.977  57.675  0.00  0.00     0.099 C 
BRANCH  13  14
ATOM     14  C   UNL d   1      44.941  28.675  58.114  0.00  0.00     0.271 C 
ATOM     15  N   UNL d   1      44.863  29.398  57.752  0.00  0.00    -0.273 N 
ATOM     16  C   UNL d   1      44.897  30.084  58.188  0.00  0.00     0.067 A 
ATOM     17  C   UNL d   1      44.749  29.442  56.940  0.00  0.00     0.083 A 
ATOM     18  C   UNL d   1      44.816  30.818  57.809  0.00  0.00     0.018 A 
ATOM     19  C   UNL d   1      44.704  30.846  57.003  0.00  0.00     0.003 A 
ATOM     20  C   UNL d   1      44.670  30.156  56.570  0.00  0.00     0.019 A 
ATOM     21  O   UNL d   1      45.055  28.635  58.929  0.00  0.00    -0.266 OA
BRANCH  16  22
ATOM     22  C   UNL d   1      45.011  30.045  58.998  0.00  0.00     0.018 C 
ATOM     23  C   UNL d   1      44.988  30.747  59.445  0.00  0.00     0.002 C 
ENDBRANCH  16  22
ENDBRANCH  13  14
ENDBRANCH   1  13
TORSDOF 4
ENDMDL
MODEL 6
REMARK VINA RESULT:      -5.2      2.628      5.131
REMARK  4 active torsions:
REMARK  status: ('A' for Active; 'I' for Inactive)
REMARK    1  A    between atoms: S_10  and  C_5 
REMARK       I    between atoms: N_7  and  C_8 
REMARK    2  A    between atoms: C_8  and  C_11 
REMARK    3  A    between atoms: C_11  and  S_10 
REMARK    4  A    between atoms: C_19  and  C_12 
ROOT
ATOM      1  S   UNL d   1      53.672  32.188  53.494  0.00  0.00    -0.054 SA
ENDROOT
BRANCH   1   2
ATOM      2  C   UNL d   1      53.487  31.373  53.550  0.00  0.00     0.163 A 
ATOM      3  S   UNL d   1      53.629  30.876  54.212  0.00  0.00    -0.021 SA
ATOM      4  C   UNL d   1      53.360  30.112  54.028  0.00  0.00     0.200 A 
ATOM      5  N   UNL d   1      53.438  29.614  54.533  0.00  0.00    -0.182 NA
ATOM      6  N   UNL d   1      53.045  30.119  53.246  0.00  0.00    -0.204 N 
ATOM      7  C   UNL d   1      53.212  28.836  54.462  0.00  0.00     0.281 A 
ATOM      8  O   UNL d   1      53.476  28.647  55.233  0.00  0.00    -0.265 OA
ATOM      9  C   UNL d   1      52.838  28.455  53.779  0.00  0.00     0.064 A 
ATOM     10  C   UNL d   1      52.626  28.822  53.026  0.00  0.00     0.026 A 
ATOM     11  C   UNL d   1      52.745  29.622  52.819  0.00  0.00     0.103 A 
ATOM     12  N   UNL d   1      53.124  30.902  52.949  0.00  0.00    -0.150 NA
ENDBRANCH   1   2
BRANCH   1  13
ATOM     13  C   UNL d   1      53.125  32.716  53.189  0.00  0.00     0.099 C 
BRANCH  13  14
ATOM     14  C   UNL d   1      53.095  33.489  53.473  0.00  0.00     0.271 C 
ATOM     15  N   UNL d   1      52.436  33.951  53.355  0.00  0.00    -0.273 N 
ATOM     16  C   UNL d   1      52.410  34.713  53.637  0.00  0.00     0.067 A 
ATOM     17  C   UNL d   1      51.790  33.649  52.948  0.00  0.00     0.083 A 
ATOM     18  C   UNL d   1      51.732  35.176  53.512  0.00  0.00     0.018 A 
ATOM     19  C   UNL d   1      51.099  34.863  53.106  0.00  0.00     0.003 A 
ATOM     20  C   UNL d   1      51.130  34.099  52.825  0.00  0.00     0.019 A 
ATOM     21  O   UNL d   1      53.741  33.796  53.882  0.00  0.00    -0.266 OA
BRANCH  16  22
ATOM     22  C   UNL d   1      53.051  35.018  54.044  0.00  0.00     0.018 C 
ATOM     23  C   UNL d   1      52.971  35.743  54.444  0.00  0.00     0.002 C 
ENDBRANCH  16  22
ENDBRANCH  13  14
ENDBRANCH   1  13
TORSDOF 4
ENDMDL
MODEL 7
REMARK VINA RESULT:      -5.1     11.412     11.848
REMARK  4 active torsions:
REMARK  status: ('A' for Active; 'I' for Inactive)
REMARK    1  A    between atoms: S_10  and  C_5 
REMARK       I    between atoms: N_7  and  C_8 
REMARK    2  A    between atoms: C_8  and  C_11 
REMARK    3  A    between atoms: C_11  and  S_10 
REMARK    4  A    between atoms: C_19  and  C_12 
ROOT
ATOM      1  S   UNL d   1      44.485  28.137  59.251  0.00  0.00    -0.054 SA
ENDROOT
BRANCH   1   2
ATOM      2  C   UNL d   1      44.519  27.415  58.828  0.00  0.00     0.163 A 
ATOM      3  S   UNL d   1      44.745  27.320  58.024  0.00  0.00    -0.021 SA
ATOM      4  C   UNL d   1      44.700  26.513  57.833  0.00  0.00     0.200 A 
ATOM      5  N   UNL d   1      44.874  26.331  57.166  0.00  0.00    -0.182 NA
ATOM      6  N   UNL d   1      44.444  26.089  58.516  0.00  0.00    -0.204 N 
ATOM      7  C   UNL d   1      44.867  25.573  56.870  0.00  0.00     0.281 A 
ATOM      8  O   UNL d   1      45.122  25.822  56.113  0.00  0.00    -0.265 OA
ATOM      9  C   UNL d   1      44.651  24.845  57.288  0.00  0.00     0.064 A 
ATOM     10  C   UNL d   1      44.398  24.770  58.111  0.00  0.00     0.026 A 
ATOM     11  C   UNL d   1      44.315  25.395  58.659  0.00  0.00     0.103 A 
ATOM     12  N   UNL d   1      44.332  26.649  59.133  0.00  0.00    -0.150 NA
ENDBRANCH   1   2
BRANCH   1  13
ATOM     13  C   UNL d   1      44.498  28.138  60.069  0.00  0.00     0.099 C 
BRANCH  13  14
ATOM     14  C   UNL d   1      44.510  28.852  60.481  0.00  0.00     0.271 C 
ATOM     15  N   UNL d   1      44.571  28.864  61.291  0.00  0.00    -0.273 N 
ATOM     16  C   UNL d   1      44.583  29.570  61.694  0.00  0.00     0.067 A 
ATOM     17  C   UNL d   1      44.623  28.160  61.711  0.00  0.00     0.083 A 
ATOM     18  C   UNL d   1      44.646  29.572  62.522  0.00  0.00     0.018 A 
ATOM     19  C   UNL d   1      44.696  28.866  62.924  0.00  0.00     0.003 A 
ATOM     20  C   UNL d   1      44.684  28.161  62.516  0.00  0.00     0.019 A 
ATOM     21  O   UNL d   1      44.458  29.561  60.064  0.00  0.00    -0.266 OA
BRANCH  16  22
ATOM     22  C   UNL d   1      44.532  30.276  61.281  0.00  0.00     0.018 C 
ATOM     23  C   UNL d   1      44.557  30.994  61.699  0.00  0.00     0.002 C 
ENDBRANCH  16  22
ENDBRANCH  13  14
ENDBRANCH   1  13
TORSDOF 4
ENDMDL
MODEL 8
REMARK VINA RESULT:      -5.0      3.242      3.982
REMARK  4 active torsions:
REMARK  status: ('A' for Active; 'I' for Inactive)
REMARK    1  A    between atoms: S_10  and  C_5 
REMARK       I    between atoms: N_7  and  C_8 
REMARK    2  A    between atoms: C_8  and  C_11 
REMARK    3  A    between atoms: C_11  and  S_10 
REMARK    4  A    between atoms: C_19  and  C_12 
ROOT
ATOM      1  S   UNL d   1      53.997  32.195  54.309  0.00  0.00    -0.054 SA
ENDROOT
BRANCH   1   2
ATOM      2  C   UNL d   1      53.725  32.985  54.259  0.00  0.00     0.163 A 
ATOM      3  S   UNL d   1      53.708  33.545  54.885  0.00  0.00    -0.021 SA
ATOM      4  C   UNL d   1      53.396  34.257  54.591  0.00  0.00     0.200 A 
ATOM      5  N   UNL d   1      53.342  34.798  55.053  0.00  0.00    -0.182 NA
ATOM      6  N   UNL d   1      53.214  34.154  53.775  0.00  0.00    -0.204 N 
ATOM      7  C   UNL d   1      53.053  35.538  54.876  0.00  0.00     0.281 A 
ATOM      8  O   UNL d   1      53.169  35.815  55.656  0.00  0.00    -0.265 OA
ATOM      9  C   UNL d   1      52.757  35.820  54.111  0.00  0.00     0.064 A 
ATOM     10  C   UNL d   1      52.708  35.373  53.372  0.00  0.00     0.026 A 
ATOM     11  C   UNL d   1      52.938  34.578  53.262  0.00  0.00     0.103 A 
ATOM     12  N   UNL d   1      53.417  33.364  53.569  0.00  0.00    -0.150 NA
ENDBRANCH   1   2
BRANCH   1  13
ATOM     13  C   UNL d   1      53.662  31.612  53.842  0.00  0.00     0.099 C 
BRANCH  13  14
ATOM     14  C   UNL d   1      53.582  30.844  54.133  0.00  0.00     0.271 C 
ATOM     15  N   UNL d   1      53.243  30.261  53.681  0.00  0.00    -0.273 N 
ATOM     16  C   UNL d   1      53.166  29.505  53.971  0.00  0.00     0.067 A 
ATOM     17  C   UNL d   1      52.974  30.431  52.923  0.00  0.00     0.083 A 
ATOM     18  C   UNL d   1      52.818  28.916  53.501  0.00  0.00     0.018 A 
ATOM     19  C   UNL d   1      52.556  29.099  52.752  0.00  0.00     0.003 A 
ATOM     20  C   UNL d   1      52.636  29.858  52.465  0.00  0.00     0.019 A 
ATOM     21  O   UNL d   1      53.850  30.670  54.892  0.00  0.00    -0.266 OA
BRANCH  16  22
ATOM     22  C   UNL d   1      53.432  29.330  54.726  0.00  0.00     0.018 C 
ATOM     23  C   UNL d   1      53.379  28.548  55.004  0.00  0.00     0.002 C 
ENDBRANCH  16  22
ENDBRANCH  13  14
ENDBRANCH   1  13
TORSDOF 4
ENDMDL
