MODEL 1
REMARK VINA RESULT:       9.5      0.000      0.000
REMARK  9 active torsions:
REMARK  status: ('A' for Active; 'I' for Inactive)
REMARK    1  A    between atoms: C_12  and  C_1 
REMARK       I    between atoms: C_4  and  N_11 
REMARK    2  A    between atoms: C_5  and  C_4 
REMARK    3  A    between atoms: O_18  and  C_6 
REMARK    4  A    between atoms: O_19  and  C_7 
REMARK    5  A    between atoms: O_20  and  C_8 
REMARK    6  A    between atoms: N_11  and  C_15 
REMARK    7  A    between atoms: C_26  and  O_18 
REMARK    8  A    between atoms: C_28  and  O_19 
REMARK    9  A    between atoms: C_27  and  O_20 
ROOT
ATOM      1  C   UNL d   1     -41.909-122.462 -50.615  0.00  0.00     0.279 C 
ATOM      2  N   UNL d   1     -42.278-121.795 -50.939  0.00  0.00    -0.208 NA
ATOM      3  O   UNL d   1     -41.245-122.787 -50.981  0.00  0.00    -0.265 OA
ENDROOT
BRANCH   1   4
ATOM      4  C   UNL d   1     -42.208-122.800 -49.927  0.00  0.00     0.062 A 
ATOM      5  C   UNL d   1     -42.968-123.123 -49.923  0.00  0.00     0.032 A 
ATOM      6  C   UNL d   1     -43.266-123.460 -49.235  0.00  0.00     0.125 A 
ATOM      7  C   UNL d   1     -42.808-123.477 -48.550  0.00  0.00     0.145 A 
ATOM      8  C   UNL d   1     -42.053-123.156 -48.555  0.00  0.00     0.125 A 
ATOM      9  C   UNL d   1     -41.758-122.821 -49.240  0.00  0.00     0.032 A 
BRANCH   6  10
ATOM     10  O   UNL d   1     -44.032-123.785 -49.232  0.00  0.00    -0.303 OA
BRANCH  10  11
ATOM     11  C   UNL d   1     -44.475-123.797 -49.932  0.00  0.00     0.123 C 
ATOM     12  C   UNL d   1     -45.296-123.673 -49.901  0.00  0.00     0.029 C 
ENDBRANCH  10  11
ENDBRANCH   6  10
BRANCH   7  13
ATOM     13  O   UNL d   1     -43.109-123.817 -47.860  0.00  0.00    -0.301 OA
BRANCH  13  14
ATOM     14  C   UNL d   1     -43.290-123.340 -47.215  0.00  0.00     0.123 C 
ATOM     15  C   UNL d   1     -43.899-123.557 -46.700  0.00  0.00     0.029 C 
ENDBRANCH  13  14
ENDBRANCH   7  13
BRANCH   8  16
ATOM     16  O   UNL d   1     -41.589-123.173 -47.863  0.00  0.00    -0.303 OA
BRANCH  16  17
ATOM     17  C   UNL d   1     -41.507-122.486 -47.411  0.00  0.00     0.123 C 
ATOM     18  C   UNL d   1     -41.123-122.524 -46.676  0.00  0.00     0.029 C 
ENDBRANCH  16  17
ENDBRANCH   8  16
ENDBRANCH   1   4
BRANCH   2  19
ATOM     19  C   UNL d   1     -41.979-121.449 -51.636  0.00  0.00     0.085 A 
ATOM     20  C   UNL d   1     -42.091-121.834 -52.361  0.00  0.00     0.022 A 
ATOM     21  C   UNL d   1     -41.798-121.496 -53.051  0.00  0.00     0.037 A 
ATOM     22  C   UNL d   1     -41.393-120.776 -53.025  0.00  0.00     0.003 A 
ATOM     23  C   UNL d   1     -41.284-120.394 -52.297  0.00  0.00     0.002 A 
ATOM     24  C   UNL d   1     -41.574-120.726 -51.606  0.00  0.00     0.019 A 
BRANCH  21  25
ATOM     25  C   UNL d   1     -41.906-121.876 -53.776  0.00  0.00     0.162 A 
ATOM     26  N   UNL d   1     -41.748-121.639 -54.549  0.00  0.00    -0.225 NA
ATOM     27  C   UNL d   1     -41.973-122.253 -55.053  0.00  0.00     0.101 A 
ATOM     28  C   UNL d   1     -41.945-122.331 -55.878  0.00  0.00     0.021 A 
ATOM     29  C   UNL d   1     -42.266-122.860 -54.589  0.00  0.00     0.101 A 
ATOM     30  C   UNL d   1     -42.215-123.024 -56.225  0.00  0.00     0.002 A 
ATOM     31  C   UNL d   1     -42.513-123.640 -55.753  0.00  0.00     0.002 A 
ATOM     32  C   UNL d   1     -42.538-123.559 -54.942  0.00  0.00     0.021 A 
ATOM     33  N   UNL d   1     -42.226-122.628 -53.801  0.00  0.00    -0.225 NA
ENDBRANCH  21  25
ENDBRANCH   2  19
TORSDOF 9
ENDMDL
