MODEL 1
REMARK VINA RESULT:      61.4      0.000      0.000
REMARK  3 active torsions:
REMARK  status: ('A' for Active; 'I' for Inactive)
REMARK    1  A    between atoms: N_2  and  S_1 
REMARK    2  A    between atoms: C_4  and  S_1 
REMARK       I    between atoms: C_8  and  N_10 
REMARK    3  A    between atoms: N_10  and  C_16 
ROOT
ATOM      1  S   UNL d   1      58.666  49.672  53.186  0.00  0.00     0.271 S 
ATOM      2  O   UNL d   1      59.421  49.639  53.512  0.00  0.00    -0.200 OA
ATOM      3  O   UNL d   1      57.911  49.706  52.856  0.00  0.00    -0.200 OA
ENDROOT
BRANCH   1   4
ATOM      4  N   UNL d   1      58.340  49.677  53.943  0.00  0.00    -0.229 N 
ATOM      5  C   UNL d   1      57.518  49.656  54.030  0.00  0.00     0.092 A 
ATOM      6  C   UNL d   1      57.189  49.661  54.782  0.00  0.00     0.018 A 
ATOM      7  C   UNL d   1      56.369  49.640  54.867  0.00  0.00     0.002 A 
ATOM      8  C   UNL d   1      57.674  49.685  55.449  0.00  0.00     0.003 A 
ATOM      9  C   UNL d   1      56.042  49.645  55.620  0.00  0.00     0.000 A 
ATOM     10  C   UNL d   1      56.522  49.669  56.289  0.00  0.00     0.000 A 
ATOM     11  C   UNL d   1      57.343  49.689  56.198  0.00  0.00     0.000 A 
ATOM     12  C   UNL d   1      58.492  49.705  55.355  0.00  0.00     0.020 A 
ATOM     13  C   UNL d   1      58.826  49.701  54.598  0.00  0.00     0.092 A 
ENDBRANCH   1   4
BRANCH   1  14
ATOM     14  C   UNL d   1      59.000  49.668  52.429  0.00  0.00     0.104 A 
ATOM     15  C   UNL d   1      59.823  49.633  52.348  0.00  0.00     0.014 A 
ATOM     16  C   UNL d   1      60.152  49.628  51.590  0.00  0.00     0.020 A 
ATOM     17  C   UNL d   1      59.666  49.658  50.924  0.00  0.00     0.085 A 
ATOM     18  C   UNL d   1      58.844  49.693  51.021  0.00  0.00     0.020 A 
ATOM     19  C   UNL d   1      58.516  49.697  51.772  0.00  0.00     0.014 A 
BRANCH  17  20
ATOM     20  N   UNL d   1      60.001  49.653  50.176  0.00  0.00    -0.208 NA
ATOM     21  C   UNL d   1      60.817  49.627  50.085  0.00  0.00     0.279 C 
ATOM     22  O   UNL d   1      61.307  49.605  50.748  0.00  0.00    -0.265 OA
ATOM     23  C   UNL d   1      61.155  49.622  49.331  0.00  0.00     0.068 C 
ENDBRANCH  17  20
ENDBRANCH   1  14
TORSDOF 3
ENDMDL
