MODEL 1
REMARK VINA RESULT:      -8.6      0.000      0.000
REMARK  2 active torsions:
REMARK  status: ('A' for Active; 'I' for Inactive)
REMARK    1  A    between atoms: C_9  and  C_1 
REMARK    2  A    between atoms: O_13  and  C_11 
ROOT
ATOM      1  C   UNL d   1     -48.303  13.862  22.819  0.00  0.00     0.064 A 
ATOM      2  C   UNL d   1     -48.300  13.118  23.164  0.00  0.00     0.199 A 
ATOM      3  C   UNL d   1     -47.600  12.684  23.265  0.00  0.00     0.062 A 
ATOM      4  C   UNL d   1     -47.571  14.200  22.558  0.00  0.00     0.126 A 
ATOM      5  C   UNL d   1     -46.887  13.013  23.010  0.00  0.00     0.105 A 
ATOM      6  O   UNL d   1     -46.867  13.779  22.652  0.00  0.00    -0.305 OA
ATOM      7  C   UNL d   1     -47.611  11.963  23.601  0.00  0.00     0.007 A 
ATOM      8  C   UNL d   1     -46.178  12.624  23.089  0.00  0.00     0.049 A 
ATOM      9  O   UNL d   1     -49.009  12.791  23.417  0.00  0.00    -0.286 OA
ATOM     10  C   UNL d   1     -46.185  11.876  23.436  0.00  0.00     0.096 A 
ATOM     11  C   UNL d   1     -46.917  11.538  23.698  0.00  0.00     0.024 A 
ENDROOT
BRANCH   1  12
ATOM     12  C   UNL d   1     -49.003  14.256  22.737  0.00  0.00     0.005 A 
ATOM     13  C   UNL d   1     -49.233  14.831  23.309  0.00  0.00     0.000 A 
ATOM     14  C   UNL d   1     -49.933  15.225  23.227  0.00  0.00     0.000 A 
ATOM     15  C   UNL d   1     -50.432  15.073  22.586  0.00  0.00     0.000 A 
ATOM     16  C   UNL d   1     -50.213  14.503  22.011  0.00  0.00     0.000 A 
ATOM     17  C   UNL d   1     -49.502  14.104  22.096  0.00  0.00     0.000 A 
ENDBRANCH   1  12
BRANCH  10  18
ATOM     18  O   UNL d   1     -45.432  11.466  23.519  0.00  0.00    -0.328 OA
ATOM     19  C   UNL d   1     -45.441  10.665  23.698  0.00  0.00     0.181 C 
ENDBRANCH  10  18
TORSDOF 2
ENDMDL
MODEL 2
REMARK VINA RESULT:      -8.3      0.980      1.254
REMARK  2 active torsions:
REMARK  status: ('A' for Active; 'I' for Inactive)
REMARK    1  A    between atoms: C_9  and  C_1 
REMARK    2  A    between atoms: O_13  and  C_11 
ROOT
ATOM      1  C   UNL d   1     -48.675  14.610  22.815  0.00  0.00     0.064 A 
ATOM      2  C   UNL d   1     -48.419  13.848  22.974  0.00  0.00     0.199 A 
ATOM      3  C   UNL d   1     -47.621  13.632  22.914  0.00  0.00     0.062 A 
ATOM      4  C   UNL d   1     -48.109  15.197  22.582  0.00  0.00     0.126 A 
ATOM      5  C   UNL d   1     -47.069  14.204  22.687  0.00  0.00     0.105 A 
ATOM      6  O   UNL d   1     -47.312  14.996  22.518  0.00  0.00    -0.305 OA
ATOM      7  C   UNL d   1     -47.384  12.888  23.071  0.00  0.00     0.007 A 
ATOM      8  C   UNL d   1     -46.277  14.036  22.615  0.00  0.00     0.049 A 
ATOM      9  O   UNL d   1     -48.968  13.280  23.200  0.00  0.00    -0.286 OA
ATOM     10  C   UNL d   1     -46.028  13.267  22.777  0.00  0.00     0.096 A 
ATOM     11  C   UNL d   1     -46.594  12.680  23.010  0.00  0.00     0.024 A 
ENDROOT
BRANCH   1  12
ATOM     12  C   UNL d   1     -49.460  14.785  22.884  0.00  0.00     0.005 A 
ATOM     13  C   UNL d   1     -49.750  15.159  23.582  0.00  0.00     0.000 A 
ATOM     14  C   UNL d   1     -50.535  15.333  23.651  0.00  0.00     0.000 A 
ATOM     15  C   UNL d   1     -51.064  15.151  23.044  0.00  0.00     0.000 A 
ATOM     16  C   UNL d   1     -50.788  14.780  22.345  0.00  0.00     0.000 A 
ATOM     17  C   UNL d   1     -49.991  14.603  22.276  0.00  0.00     0.000 A 
ENDBRANCH   1  12
BRANCH  10  18
ATOM     18  O   UNL d   1     -45.189  13.093  22.700  0.00  0.00    -0.328 OA
ATOM     19  C   UNL d   1     -44.890  12.936  21.953  0.00  0.00     0.181 C 
ENDBRANCH  10  18
TORSDOF 2
ENDMDL
MODEL 3
REMARK VINA RESULT:      -8.0      0.975      1.657
REMARK  2 active torsions:
REMARK  status: ('A' for Active; 'I' for Inactive)
REMARK    1  A    between atoms: C_9  and  C_1 
REMARK    2  A    between atoms: O_13  and  C_11 
ROOT
ATOM      1  C   UNL d   1     -48.998  12.616  22.754  0.00  0.00     0.064 A 
ATOM      2  C   UNL d   1     -48.268  12.949  22.589  0.00  0.00     0.199 A 
ATOM      3  C   UNL d   1     -47.560  12.606  22.853  0.00  0.00     0.062 A 
ATOM      4  C   UNL d   1     -49.034  11.899  23.206  0.00  0.00     0.126 A 
ATOM      5  C   UNL d   1     -47.595  11.908  23.293  0.00  0.00     0.105 A 
ATOM      6  O   UNL d   1     -48.339  11.547  23.474  0.00  0.00    -0.305 OA
ATOM      7  C   UNL d   1     -46.856  12.939  22.687  0.00  0.00     0.007 A 
ATOM      8  C   UNL d   1     -46.927  11.538  23.571  0.00  0.00     0.049 A 
ATOM      9  O   UNL d   1     -48.233  13.643  22.152  0.00  0.00    -0.286 OA
ATOM     10  C   UNL d   1     -46.196  11.880  23.401  0.00  0.00     0.096 A 
ATOM     11  C   UNL d   1     -46.160  12.597  22.949  0.00  0.00     0.024 A 
ENDROOT
BRANCH   1  12
ATOM     12  C   UNL d   1     -49.667  12.977  22.481  0.00  0.00     0.005 A 
ATOM     13  C   UNL d   1     -49.997  12.750  21.739  0.00  0.00     0.000 A 
ATOM     14  C   UNL d   1     -50.665  13.112  21.467  0.00  0.00     0.000 A 
ATOM     15  C   UNL d   1     -51.035  13.705  21.907  0.00  0.00     0.000 A 
ATOM     16  C   UNL d   1     -50.716  13.939  22.646  0.00  0.00     0.000 A 
ATOM     17  C   UNL d   1     -50.037  13.571  22.921  0.00  0.00     0.000 A 
ENDBRANCH   1  12
BRANCH  10  18
ATOM     18  O   UNL d   1     -45.491  11.485  23.697  0.00  0.00    -0.328 OA
ATOM     19  C   UNL d   1     -45.468  10.666  23.686  0.00  0.00     0.181 C 
ENDBRANCH  10  18
TORSDOF 2
ENDMDL
MODEL 4
REMARK VINA RESULT:      -6.0      8.449      9.810
REMARK  2 active torsions:
REMARK  status: ('A' for Active; 'I' for Inactive)
REMARK    1  A    between atoms: C_9  and  C_1 
REMARK    2  A    between atoms: O_13  and  C_11 
ROOT
ATOM      1  C   UNL d   1     -40.278  14.807  18.822  0.00  0.00     0.064 A 
ATOM      2  C   UNL d   1     -39.561  14.420  18.740  0.00  0.00     0.199 A 
ATOM      3  C   UNL d   1     -39.251  14.223  17.996  0.00  0.00     0.062 A 
ATOM      4  C   UNL d   1     -40.719  15.014  18.128  0.00  0.00     0.126 A 
ATOM      5  C   UNL d   1     -39.681  14.423  17.319  0.00  0.00     0.105 A 
ATOM      6  O   UNL d   1     -40.424  14.824  17.381  0.00  0.00    -0.305 OA
ATOM      7  C   UNL d   1     -38.553  13.846  17.929  0.00  0.00     0.007 A 
ATOM      8  C   UNL d   1     -39.416  14.250  16.571  0.00  0.00     0.049 A 
ATOM      9  O   UNL d   1     -39.134  14.220  19.412  0.00  0.00    -0.286 OA
ATOM     10  C   UNL d   1     -38.693  13.860  16.498  0.00  0.00     0.096 A 
ATOM     11  C   UNL d   1     -38.252  13.654  17.192  0.00  0.00     0.024 A 
ENDROOT
BRANCH   1  12
ATOM     12  C   UNL d   1     -40.549  14.984  19.562  0.00  0.00     0.005 A 
ATOM     13  C   UNL d   1     -40.938  14.393  20.020  0.00  0.00     0.000 A 
ATOM     14  C   UNL d   1     -41.209  14.570  20.760  0.00  0.00     0.000 A 
ATOM     15  C   UNL d   1     -41.110  15.326  21.078  0.00  0.00     0.000 A 
ATOM     16  C   UNL d   1     -40.724  15.921  20.631  0.00  0.00     0.000 A 
ATOM     17  C   UNL d   1     -40.450  15.740  19.881  0.00  0.00     0.000 A 
ENDBRANCH   1  12
BRANCH  10  18
ATOM     18  O   UNL d   1     -38.415  13.677  15.704  0.00  0.00    -0.328 OA
ATOM     19  C   UNL d   1     -37.953  14.232  15.314  0.00  0.00     0.181 C 
ENDBRANCH  10  18
TORSDOF 2
ENDMDL
MODEL 5
REMARK VINA RESULT:      -5.9      8.699      9.642
REMARK  2 active torsions:
REMARK  status: ('A' for Active; 'I' for Inactive)
REMARK    1  A    between atoms: C_9  and  C_1 
REMARK    2  A    between atoms: O_13  and  C_11 
ROOT
ATOM      1  C   UNL d   1     -39.534  14.465  19.970  0.00  0.00     0.064 A 
ATOM      2  C   UNL d   1     -39.950  15.127  19.725  0.00  0.00     0.199 A 
ATOM      3  C   UNL d   1     -40.273  15.186  18.963  0.00  0.00     0.062 A 
ATOM      4  C   UNL d   1     -39.428  13.819  19.430  0.00  0.00     0.126 A 
ATOM      5  C   UNL d   1     -40.169  14.557  18.437  0.00  0.00     0.105 A 
ATOM      6  O   UNL d   1     -39.742  13.864  18.669  0.00  0.00    -0.305 OA
ATOM      7  C   UNL d   1     -40.675  15.834  18.737  0.00  0.00     0.007 A 
ATOM      8  C   UNL d   1     -40.467  14.571  17.681  0.00  0.00     0.049 A 
ATOM      9  O   UNL d   1     -40.053  15.751  20.248  0.00  0.00    -0.286 OA
ATOM     10  C   UNL d   1     -40.885  15.242  17.443  0.00  0.00     0.096 A 
ATOM     11  C   UNL d   1     -40.991  15.887  17.983  0.00  0.00     0.024 A 
ENDROOT
BRANCH   1  12
ATOM     12  C   UNL d   1     -39.234  14.442  20.719  0.00  0.00     0.005 A 
ATOM     13  C   UNL d   1     -39.681  14.090  21.341  0.00  0.00     0.000 A 
ATOM     14  C   UNL d   1     -39.381  14.067  22.091  0.00  0.00     0.000 A 
ATOM     15  C   UNL d   1     -38.638  14.386  22.260  0.00  0.00     0.000 A 
ATOM     16  C   UNL d   1     -38.185  14.739  21.648  0.00  0.00     0.000 A 
ATOM     17  C   UNL d   1     -38.491  14.761  20.889  0.00  0.00     0.000 A 
ENDBRANCH   1  12
BRANCH  10  18
ATOM     18  O   UNL d   1     -41.200  15.254  16.642  0.00  0.00    -0.328 OA
ATOM     19  C   UNL d   1     -41.605  15.922  16.392  0.00  0.00     0.181 C 
ENDBRANCH  10  18
TORSDOF 2
ENDMDL
