MODEL 1
REMARK VINA RESULT:      41.1      0.000      0.000
REMARK  4 active torsions:
REMARK  status: ('A' for Active; 'I' for Inactive)
REMARK    1  A    between atoms: N_3  and  C_1 
REMARK       I    between atoms: C_7  and  N_3 
REMARK    2  A    between atoms: C_11  and  C_7 
REMARK    3  A    between atoms: C_12  and  C_11 
REMARK    4  A    between atoms: C_13  and  C_12 
ROOT
ATOM      1  C   UNL d   1     -55.836 -99.648 -44.051  0.00  0.00     0.124 A 
ATOM      2  C   UNL d   1     -56.489 -99.166 -44.218  0.00  0.00     0.093 A 
ATOM      3  C   UNL d   1     -57.176 -99.097 -43.767  0.00  0.00     0.103 C 
ATOM      4  S   UNL d   1     -55.283 -99.538 -44.648  0.00  0.00    -0.067 SA
ATOM      5  N   UNL d   1     -57.844 -99.021 -43.343  0.00  0.00    -0.191 NA
ATOM      6  C   UNL d   1     -56.330 -98.756 -44.926  0.00  0.00     0.019 A 
ATOM      7  C   UNL d   1     -55.582 -98.990 -45.189  0.00  0.00     0.038 A 
ENDROOT
BRANCH   1   8
ATOM      8  N   UNL d   1     -55.759-100.149 -43.401  0.00  0.00    -0.201 NA
ATOM      9  C   UNL d   1     -55.325-100.849 -43.473  0.00  0.00     0.280 C 
ATOM     10  O   UNL d   1     -54.971-101.045 -44.190  0.00  0.00    -0.265 OA
BRANCH   9  11
ATOM     11  C   UNL d   1     -55.248-101.350 -42.819  0.00  0.00     0.062 C 
BRANCH  11  12
ATOM     12  C   UNL d   1     -54.734-101.156 -42.205  0.00  0.00     0.005 C 
BRANCH  12  13
ATOM     13  C   UNL d   1     -54.729-101.610 -41.502  0.00  0.00     0.000 A 
ATOM     14  C   UNL d   1     -54.729-101.237 -40.765  0.00  0.00     0.000 A 
ATOM     15  C   UNL d   1     -54.723-101.682 -40.080  0.00  0.00     0.000 A 
ATOM     16  C   UNL d   1     -54.718-102.500 -40.121  0.00  0.00     0.000 A 
ATOM     17  C   UNL d   1     -54.718-102.874 -40.854  0.00  0.00     0.000 A 
ATOM     18  C   UNL d   1     -54.724-102.433 -41.540  0.00  0.00     0.000 A 
ENDBRANCH  12  13
ENDBRANCH  11  12
ENDBRANCH   9  11
ENDBRANCH   1   8
TORSDOF 4
ENDMDL
